@<TRIPOS>MOLECULE
*****
 29 33 0 0 0
SMALL
GASTEIGER

@<TRIPOS>ATOM
      1 C          -8.0500  -21.9343   18.0187 C.3     1  UNL1        0.0213
      2 C          -7.7983  -20.9236   19.0981 C.3     1  UNL1        0.0723
      3 C          -9.1623  -20.3813   19.4071 C.3     1  UNL1        0.0259
      4 C         -10.0934  -19.4793   20.1619 C.3     1  UNL1        0.0472
      5 C         -10.3783  -18.4246   21.1896 C.ar    1  UNL1        0.0568
      6 N         -11.8263  -18.5360   20.8145 N.ar    1  UNL1       -0.2461
      7 C         -12.8478  -17.6814   21.5046 C.ar    1  UNL1        0.1279
      8 C         -12.4212  -16.7154   22.5699 C.ar    1  UNL1        0.1589
      9 F         -13.4427  -15.8608   23.2600 F       1  UNL1       -0.2025
     10 C         -10.9731  -16.6039   22.9450 C.ar    1  UNL1        0.0297
     11 C          -9.9517  -17.4585   22.2549 C.ar    1  UNL1        0.0115
     12 C          -8.9114  -16.8025   23.1136 C.3     1  UNL1        0.0979
     13 C          -9.7853  -15.8750   23.9049 C.3     1  UNL1        0.0261
     14 C          -8.9096  -15.1062   24.8494 C.3     1  UNL1        0.0235
     15 C          -7.4946  -15.5584   24.6418 C.3     1  UNL1        0.0925
     16 N          -7.4956  -16.6068   23.5691 N.pl3   1  UNL1       -0.2910
     17 C          -6.0288  -16.9163   23.5170 C.ar    1  UNL1        0.1351
     18 C          -4.0778  -16.8348   23.9521 C.ar    1  UNL1        0.0551
     19 C          -2.7875  -17.4736   23.5312 C.ar    1  UNL1        0.1050
     20 N          -2.7845  -18.5223   22.4588 N.ar    1  UNL1       -0.2104
     21 N          -1.9699  -19.4732   21.6329 N.ar    1  UNL1       -0.1619
     22 C          -2.9027  -20.2062   20.7149 C.ar    1  UNL1        0.1281
     23 C          -4.2938  -19.7083   20.9734 C.ar    1  UNL1        0.1099
     24 C          -4.2209  -18.6676   22.0512 C.ar    1  UNL1        0.1710
     25 N          -4.8470  -17.6600   22.9691 N.ar    1  UNL1       -0.2116
     26 C          -5.0492  -20.5436   19.9826 C.2     1  UNL1        0.2504
     27 O          -3.9850  -21.3725   19.3265 O.2     1  UNL1       -0.2700
     28 N          -6.3140  -20.9822   19.3058 N.am    1  UNL1       -0.3024
     29 H          -6.0128  -21.6640   18.6626 H       1  UNL1        0.1497
@<TRIPOS>BOND
     1     2     1    1
     2     2     3    1
     3     3     4    1
     4     4     5    1
     5     5     6   ar
     6     6     7   ar
     7     7     8   ar
     8     8     9    1
     9     8    10   ar
    10    10    11   ar
    11    11    12    1
    12    12    13    1
    13    13    14    1
    14    14    15    1
    15    15    16    1
    16    16    17    1
    17    17    18   ar
    18    18    19   ar
    19    19    20   ar
    20    20    21   ar
    21    21    22   ar
    22    22    23   ar
    23    23    24   ar
    24    24    25   ar
    25    23    26    1
    26    26    27    2
    27    26    28   am
    28    28     2    1
    29    11     5   ar
    30    16    12    1
    31    25    17   ar
    32    24    20   ar
    33    28    29    1
@<TRIPOS>MOLECULE
*****
 29 33 0 0 0
SMALL
GASTEIGER

@<TRIPOS>ATOM
      1 C         -10.3943   -7.4150   17.8809 C.3     1  UNL1        0.0213
      2 C         -11.6622   -6.6571   18.1417 C.3     1  UNL1        0.0723
      3 C         -12.6901   -7.7325   18.3339 C.3     1  UNL1        0.0259
      4 C         -14.0895   -8.1987   18.6070 C.3     1  UNL1        0.0472
      5 C         -15.5396   -7.9491   18.8983 C.ar    1  UNL1        0.0568
      6 N         -15.7291   -9.4369   18.9191 N.ar    1  UNL1       -0.2461
      7 C         -17.0873  -10.0164   19.1827 C.ar    1  UNL1        0.1279
      8 C         -18.2561   -9.1080   19.4255 C.ar    1  UNL1        0.1589
      9 F         -19.6142   -9.6875   19.6890 F       1  UNL1       -0.2025
     10 C         -18.0665   -7.6202   19.4046 C.ar    1  UNL1        0.0297
     11 C         -16.7084   -7.0407   19.1410 C.ar    1  UNL1        0.0115
     12 C         -17.3279   -5.6817   19.2796 C.3     1  UNL1        0.0979
     13 C         -18.7475   -6.0786   19.5575 C.3     1  UNL1        0.0261
     14 C         -19.5534   -4.8255   19.7320 C.3     1  UNL1        0.0235
     15 C         -18.6319   -3.6542   19.5620 C.3     1  UNL1        0.0925
     16 N         -17.2564   -4.1834   19.2824 N.pl3   1  UNL1       -0.2910
     17 C         -16.5103   -2.8890   19.1486 C.ar    1  UNL1        0.1351
     18 C         -16.1648   -0.9190   19.1022 C.ar    1  UNL1        0.0551
     19 C         -15.0275    0.0349   18.8868 C.ar    1  UNL1        0.1050
     20 N         -13.6506   -0.4904   18.6070 N.ar    1  UNL1       -0.2104
     21 N         -12.2140   -0.1639   18.3249 N.ar    1  UNL1       -0.1619
     22 C         -11.4685   -1.4554   18.1620 C.ar    1  UNL1        0.1281
     23 C         -12.4444   -2.5800   18.3434 C.ar    1  UNL1        0.1099
     24 C         -13.7930   -1.9837   18.6184 C.ar    1  UNL1        0.1710
     25 N         -15.2603   -2.0952   18.9090 N.ar    1  UNL1       -0.2116
     26 C         -11.5235   -3.7476   18.1470 C.2     1  UNL1        0.2504
     27 O         -10.1891   -3.1130   17.8888 O.2     1  UNL1       -0.2700
     28 N         -11.2412   -5.2191   18.0742 N.am    1  UNL1       -0.3024
     29 H         -10.2767   -5.2647   17.8818 H       1  UNL1        0.1497
@<TRIPOS>BOND
     1     2     1    1
     2     2     3    1
     3     3     4    1
     4     4     5    1
     5     5     6   ar
     6     6     7   ar
     7     7     8   ar
     8     8     9    1
     9     8    10   ar
    10    10    11   ar
    11    11    12    1
    12    12    13    1
    13    13    14    1
    14    14    15    1
    15    15    16    1
    16    16    17    1
    17    17    18   ar
    18    18    19   ar
    19    19    20   ar
    20    20    21   ar
    21    21    22   ar
    22    22    23   ar
    23    23    24   ar
    24    24    25   ar
    25    23    26    1
    26    26    27    2
    27    26    28   am
    28    28     2    1
    29    11     5   ar
    30    16    12    1
    31    25    17   ar
    32    24    20   ar
    33    28    29    1
@<TRIPOS>MOLECULE
*****
 29 33 0 0 0
SMALL
GASTEIGER

@<TRIPOS>ATOM
      1 C         -17.6534   -8.4415   19.3878 C.3     1  UNL1        0.0213
      2 C         -16.9455   -7.1217   19.3035 C.3     1  UNL1        0.0723
      3 C         -15.5398   -7.4915   18.9329 C.3     1  UNL1        0.0259
      4 C         -14.1172   -7.1448   18.6069 C.3     1  UNL1        0.0472
      5 C         -13.0038   -6.1612   18.4000 C.ar    1  UNL1        0.0568
      6 N         -12.1100   -7.3280   18.1011 N.ar    1  UNL1       -0.2461
      7 C         -10.6667   -7.0997   17.7619 C.ar    1  UNL1        0.1279
      8 C         -10.1174   -5.7045   17.7217 C.ar    1  UNL1        0.1589
      9 F          -8.6742   -5.4762   17.3825 F       1  UNL1       -0.2025
     10 C         -11.0113   -4.5376   18.0207 C.ar    1  UNL1        0.0297
     11 C         -12.4545   -4.7660   18.3598 C.ar    1  UNL1        0.0115
     12 C         -12.5952   -3.2787   18.4954 C.3     1  UNL1        0.0979
     13 C         -11.1895   -2.8622   18.1783 C.3     1  UNL1        0.0261
     14 C         -11.1192   -1.3662   18.2627 C.3     1  UNL1        0.0235
     15 C         -12.4814   -0.8582   18.6319 C.3     1  UNL1        0.0925
     16 N         -13.3936   -2.0402   18.7758 N.pl3   1  UNL1       -0.2910
     17 C         -14.6669   -1.3341   19.1367 C.ar    1  UNL1        0.1351
     18 C         -15.9311    0.1606   19.5490 C.ar    1  UNL1        0.0551
     19 C         -17.3703    0.3687   19.9168 C.ar    1  UNL1        0.1050
     20 N         -18.2856   -0.8108   20.0617 N.ar    1  UNL1       -0.2104
     21 N         -19.6711   -1.2964   20.3692 N.ar    1  UNL1       -0.1619
     22 C         -19.6710   -2.7929   20.2675 C.ar    1  UNL1        0.1281
     23 C         -18.2855   -3.2323   19.8971 C.ar    1  UNL1        0.1099
     24 C         -17.4292   -2.0073   19.7699 C.ar    1  UNL1        0.1710
     25 N         -16.1233   -1.3223   19.4955 N.ar    1  UNL1       -0.2116
     26 C         -18.4959   -4.7167   19.8480 C.2     1  UNL1        0.2504
     27 O         -19.9459   -4.8853   20.1929 O.2     1  UNL1       -0.2700
     28 N         -18.0123   -6.1204   19.6337 N.am    1  UNL1       -0.3024
     29 H         -18.8121   -6.6720   19.7928 H       1  UNL1        0.1497
@<TRIPOS>BOND
     1     2     1    1
     2     2     3    1
     3     3     4    1
     4     4     5    1
     5     5     6   ar
     6     6     7   ar
     7     7     8   ar
     8     8     9    1
     9     8    10   ar
    10    10    11   ar
    11    11    12    1
    12    12    13    1
    13    13    14    1
    14    14    15    1
    15    15    16    1
    16    16    17    1
    17    17    18   ar
    18    18    19   ar
    19    19    20   ar
    20    20    21   ar
    21    21    22   ar
    22    22    23   ar
    23    23    24   ar
    24    24    25   ar
    25    23    26    1
    26    26    27    2
    27    26    28   am
    28    28     2    1
    29    11     5   ar
    30    16    12    1
    31    25    17   ar
    32    24    20   ar
    33    28    29    1
@<TRIPOS>MOLECULE
*****
 29 33 0 0 0
SMALL
GASTEIGER

@<TRIPOS>ATOM
      1 C         -10.7444   -7.9760   17.5084 C.3     1  UNL1        0.0213
      2 C         -11.8656   -7.0206   17.7913 C.3     1  UNL1        0.0723
      3 C         -11.2521   -5.6705   17.5659 C.3     1  UNL1        0.0259
      4 C         -11.3158   -4.1722   17.5275 C.3     1  UNL1        0.0472
      5 C         -12.0420   -2.8693   17.6849 C.ar    1  UNL1        0.0568
      6 N         -10.7671   -2.1812   17.2964 N.ar    1  UNL1       -0.2461
      7 C         -10.7145   -0.6839   17.2249 C.ar    1  UNL1        0.1279
      8 C         -11.9370    0.1255   17.5421 C.ar    1  UNL1        0.1589
      9 F         -11.8845    1.6228   17.4708 F       1  UNL1       -0.2025
     10 C         -13.2120   -0.5626   17.9307 C.ar    1  UNL1        0.0297
     11 C         -13.2645   -2.0599   18.0021 C.ar    1  UNL1        0.0115
     12 C         -14.7031   -1.9297   18.4064 C.3     1  UNL1        0.0979
     13 C         -14.8363   -0.4358   18.3880 C.3     1  UNL1        0.0261
     14 C         -16.2439   -0.0912   18.7754 C.3     1  UNL1        0.0235
     15 C         -16.9806   -1.3721   19.0332 C.3     1  UNL1        0.0925
     16 N         -16.0283   -2.5084   18.8052 N.pl3   1  UNL1       -0.2910
     17 C         -16.9365   -3.6634   19.1071 C.ar    1  UNL1        0.1351
     18 C         -18.5920   -4.6650   19.6157 C.ar    1  UNL1        0.0551
     19 C         -19.0582   -6.0785   19.8016 C.ar    1  UNL1        0.1050
     20 N         -18.1089   -7.2175   19.5745 N.ar    1  UNL1       -0.2104
     21 N         -17.9064   -8.7038   19.5730 N.ar    1  UNL1       -0.1619
     22 C         -16.4852   -8.9775   19.1790 C.ar    1  UNL1        0.1281
     23 C         -15.8094   -7.6604   18.9371 C.ar    1  UNL1        0.1099
     24 C         -16.8128   -6.5727   19.1816 C.ar    1  UNL1        0.1710
     25 N         -17.2196   -5.1302   19.2429 N.ar    1  UNL1       -0.2116
     26 C         -14.4389   -8.1443   18.5656 C.2     1  UNL1        0.2504
     27 O         -14.5494   -9.6376   18.6533 O.2     1  UNL1       -0.2700
     28 N         -13.0157   -7.9134   18.1520 N.am    1  UNL1       -0.3024
     29 H         -12.6411   -8.8209   18.0797 H       1  UNL1        0.1497
@<TRIPOS>BOND
     1     2     1    1
     2     2     3    1
     3     3     4    1
     4     4     5    1
     5     5     6   ar
     6     6     7   ar
     7     7     8   ar
     8     8     9    1
     9     8    10   ar
    10    10    11   ar
    11    11    12    1
    12    12    13    1
    13    13    14    1
    14    14    15    1
    15    15    16    1
    16    16    17    1
    17    17    18   ar
    18    18    19   ar
    19    19    20   ar
    20    20    21   ar
    21    21    22   ar
    22    22    23   ar
    23    23    24   ar
    24    24    25   ar
    25    23    26    1
    26    26    27    2
    27    26    28   am
    28    28     2    1
    29    11     5   ar
    30    16    12    1
    31    25    17   ar
    32    24    20   ar
    33    28    29    1
@<TRIPOS>MOLECULE
*****
 29 33 0 0 0
SMALL
GASTEIGER

@<TRIPOS>ATOM
      1 C         -15.7627  -10.5056   18.0954 C.3     1  UNL1        0.0213
      2 C         -15.6340   -9.0226   18.2809 C.3     1  UNL1        0.0723
      3 C         -14.1956   -8.7442   17.9592 C.3     1  UNL1        0.0259
      4 C         -13.0251   -7.8197   17.8000 C.3     1  UNL1        0.0472
      5 C         -12.3906   -6.4611   17.8397 C.ar    1  UNL1        0.0568
      6 N         -11.1074   -7.1147   17.4202 N.ar    1  UNL1       -0.2461
      7 C          -9.8711   -6.2868   17.2302 C.ar    1  UNL1        0.1279
      8 C          -9.9180   -4.8052   17.4597 C.ar    1  UNL1        0.1589
      9 F          -8.6818   -3.9773   17.2698 F       1  UNL1       -0.2025
     10 C         -11.2013   -4.1516   17.8793 C.ar    1  UNL1        0.0297
     11 C         -12.4376   -4.9795   18.0692 C.ar    1  UNL1        0.0115
     12 C         -13.1552   -3.7143   18.4360 C.3     1  UNL1        0.0979
     13 C         -12.0278   -2.7348   18.2958 C.3     1  UNL1        0.0261
     14 C         -12.5550   -1.3707   18.6291 C.3     1  UNL1        0.0235
     15 C         -14.0081   -1.5070   18.9754 C.3     1  UNL1        0.0925
     16 N         -14.3790   -2.9555   18.8560 N.pl3   1  UNL1       -0.2910
     17 C         -15.8288   -2.8768   19.2330 C.ar    1  UNL1        0.1351
     18 C         -17.5821   -2.0910   19.7905 C.ar    1  UNL1        0.0551
     19 C         -18.9874   -2.5281   20.0805 C.ar    1  UNL1        0.1050
     20 N         -19.3622   -3.9757   19.9622 N.ar    1  UNL1       -0.2104
     21 N         -20.4437   -5.0080   20.0832 N.ar    1  UNL1       -0.1619
     22 C         -19.8517   -6.3422   19.7379 C.ar    1  UNL1        0.1281
     23 C         -18.4043   -6.1346   19.4035 C.ar    1  UNL1        0.1099
     24 C         -18.1017   -4.6720   19.5422 C.ar    1  UNL1        0.1710
     25 N         -17.1722   -3.4963   19.4806 N.ar    1  UNL1       -0.2116
     26 C         -18.0105   -7.5491   19.0964 C.2     1  UNL1        0.2504
     27 O         -19.2767   -8.3267   19.3013 O.2     1  UNL1       -0.2700
     28 N         -17.0107   -8.5914   18.6913 N.am    1  UNL1       -0.3024
     29 H         -17.5277   -9.4292   18.6985 H       1  UNL1        0.1497
@<TRIPOS>BOND
     1     2     1    1
     2     2     3    1
     3     3     4    1
     4     4     5    1
     5     5     6   ar
     6     6     7   ar
     7     7     8   ar
     8     8     9    1
     9     8    10   ar
    10    10    11   ar
    11    11    12    1
    12    12    13    1
    13    13    14    1
    14    14    15    1
    15    15    16    1
    16    16    17    1
    17    17    18   ar
    18    18    19   ar
    19    19    20   ar
    20    20    21   ar
    21    21    22   ar
    22    22    23   ar
    23    23    24   ar
    24    24    25   ar
    25    23    26    1
    26    26    27    2
    27    26    28   am
    28    28     2    1
    29    11     5   ar
    30    16    12    1
    31    25    17   ar
    32    24    20   ar
    33    28    29    1
@<TRIPOS>MOLECULE
*****
 29 33 0 0 0
SMALL
GASTEIGER

@<TRIPOS>ATOM
      1 C           3.6057   -0.8153   27.3484 C.3     1  UNL1        0.0213
      2 C           4.0714   -1.2985   26.0068 C.3     1  UNL1        0.0723
      3 C           3.1487   -0.6176   25.0400 C.3     1  UNL1        0.0259
      4 C           2.6602   -0.3240   23.6524 C.3     1  UNL1        0.0472
      5 C           2.7179   -0.4848   22.1622 C.ar    1  UNL1        0.0568
      6 N           1.5555    0.4593   22.0761 N.ar    1  UNL1       -0.2461
      7 C           0.9837    0.8249   20.7384 C.ar    1  UNL1        0.1279
      8 C           1.5744    0.2464   19.4868 C.ar    1  UNL1        0.1589
      9 F           1.0026    0.6120   18.1491 F       1  UNL1       -0.2025
     10 C           2.7368   -0.6977   19.5729 C.ar    1  UNL1        0.0297
     11 C           3.3086   -1.0633   20.9106 C.ar    1  UNL1        0.0115
     12 C           4.2969   -1.9269   20.1844 C.3     1  UNL1        0.0979
     13 C           3.8600   -1.6773   18.7713 C.3     1  UNL1        0.0261
     14 C           4.7495   -2.4740   17.8636 C.3     1  UNL1        0.0235
     15 C           5.7362   -3.2159   18.7156 C.3     1  UNL1        0.0925
     16 N           5.4565   -2.8778   20.1500 N.pl3   1  UNL1       -0.2910
     17 C           6.5217   -3.6982   20.8152 C.ar    1  UNL1        0.1351
     18 C           8.0696   -4.9481   21.0253 C.ar    1  UNL1        0.0551
     19 C           8.9091   -5.5517   22.1119 C.ar    1  UNL1        0.1050
     20 N           8.6324   -5.2160   23.5475 N.ar    1  UNL1       -0.2104
     21 N           9.0168   -5.4209   24.9828 N.ar    1  UNL1       -0.1619
     22 C           8.0921   -4.5999   25.8320 C.ar    1  UNL1        0.1281
     23 C           7.1363   -3.8877   24.9215 C.ar    1  UNL1        0.1099
     24 C           7.4702   -4.2684   23.5095 C.ar    1  UNL1        0.1710
     25 N           7.2484   -4.2000   22.0276 N.ar    1  UNL1       -0.2116
     26 C           6.3231   -3.1450   25.9400 C.2     1  UNL1        0.2504
     27 O           6.9352   -3.5457   27.2495 O.2     1  UNL1       -0.2700
     28 N           5.2170   -2.2106   26.3317 N.am    1  UNL1       -0.3024
     29 H           5.2713   -2.1800   27.3142 H       1  UNL1        0.1497
@<TRIPOS>BOND
     1     2     1    1
     2     2     3    1
     3     3     4    1
     4     4     5    1
     5     5     6   ar
     6     6     7   ar
     7     7     8   ar
     8     8     9    1
     9     8    10   ar
    10    10    11   ar
    11    11    12    1
    12    12    13    1
    13    13    14    1
    14    14    15    1
    15    15    16    1
    16    16    17    1
    17    17    18   ar
    18    18    19   ar
    19    19    20   ar
    20    20    21   ar
    21    21    22   ar
    22    22    23   ar
    23    23    24   ar
    24    24    25   ar
    25    23    26    1
    26    26    27    2
    27    26    28   am
    28    28     2    1
    29    11     5   ar
    30    16    12    1
    31    25    17   ar
    32    24    20   ar
    33    28    29    1
@<TRIPOS>MOLECULE
*****
 29 33 0 0 0
SMALL
GASTEIGER

@<TRIPOS>ATOM
      1 C         -10.0934   -3.6751   17.2487 C.3     1  UNL1        0.0213
      2 C         -11.5136   -3.7773   17.7208 C.3     1  UNL1        0.0723
      3 C         -11.9329   -2.3494   17.9084 C.3     1  UNL1        0.0259
      4 C         -12.9360   -1.2974   18.2791 C.3     1  UNL1        0.0472
      5 C         -14.2929   -0.8624   18.7478 C.ar    1  UNL1        0.0568
      6 N         -13.8116    0.5536   18.6335 N.ar    1  UNL1       -0.2461
      7 C         -14.7302    1.6882   18.9786 C.ar    1  UNL1        0.1279
      8 C         -16.1301    1.4066   19.4380 C.ar    1  UNL1        0.1589
      9 F         -17.0487    2.5410   19.7830 F       1  UNL1       -0.2025
     10 C         -16.6114   -0.0095   19.5522 C.ar    1  UNL1        0.0297
     11 C         -15.6928   -1.1440   19.2071 C.ar    1  UNL1        0.0115
     12 C         -16.8150   -2.0777   19.5520 C.3     1  UNL1        0.0979
     13 C         -17.8655   -1.0786   19.9368 C.3     1  UNL1        0.0261
     14 C         -19.1022   -1.8330   20.3258 C.3     1  UNL1        0.0235
     15 C         -18.8160   -3.2984   20.1815 C.3     1  UNL1        0.0925
     16 N         -17.4024   -3.4496   19.7032 N.pl3   1  UNL1       -0.2910
     17 C         -17.3205   -4.9454   19.6263 C.ar    1  UNL1        0.1351
     18 C         -17.8763   -6.8634   19.7489 C.ar    1  UNL1        0.0551
     19 C         -17.3101   -8.2323   19.5141 C.ar    1  UNL1        0.1050
     20 N         -15.8969   -8.3876   19.0358 N.ar    1  UNL1       -0.2104
     21 N         -14.8012   -9.3316   18.6377 N.ar    1  UNL1       -0.1619
     22 C         -13.5999   -8.5154   18.2625 C.ar    1  UNL1        0.1281
     23 C         -13.9531   -7.0671   18.4287 C.ar    1  UNL1        0.1099
     24 C         -15.3727   -6.9881   18.9066 C.ar    1  UNL1        0.1710
     25 N         -16.5879   -6.2224   19.3388 N.ar    1  UNL1       -0.2116
     26 C         -12.6543   -6.4412   18.0145 C.2     1  UNL1        0.2504
     27 O         -11.7801   -7.6143   17.6831 O.2     1  UNL1       -0.2700
     28 N         -11.7738   -5.2540   17.7591 N.am    1  UNL1       -0.3024
     29 H         -10.9235   -5.6509   17.4612 H       1  UNL1        0.1497
@<TRIPOS>BOND
     1     2     1    1
     2     2     3    1
     3     3     4    1
     4     4     5    1
     5     5     6   ar
     6     6     7   ar
     7     7     8   ar
     8     8     9    1
     9     8    10   ar
    10    10    11   ar
    11    11    12    1
    12    12    13    1
    13    13    14    1
    14    14    15    1
    15    15    16    1
    16    16    17    1
    17    17    18   ar
    18    18    19   ar
    19    19    20   ar
    20    20    21   ar
    21    21    22   ar
    22    22    23   ar
    23    23    24   ar
    24    24    25   ar
    25    23    26    1
    26    26    27    2
    27    26    28   am
    28    28     2    1
    29    11     5   ar
    30    16    12    1
    31    25    17   ar
    32    24    20   ar
    33    28    29    1
@<TRIPOS>MOLECULE
*****
 29 33 0 0 0
SMALL
GASTEIGER

@<TRIPOS>ATOM
      1 C           4.2487   -1.5857   27.5337 C.3     1  UNL1        0.0213
      2 C           3.5361   -0.9900   26.3558 C.3     1  UNL1        0.0723
      3 C           4.1693   -1.6640   25.1748 C.3     1  UNL1        0.0259
      4 C           4.3164   -1.8984   23.7005 C.3     1  UNL1        0.0472
      5 C           3.9438   -1.6396   22.2708 C.ar    1  UNL1        0.0568
      6 N           4.9846   -2.6467   21.8805 N.ar    1  UNL1       -0.2461
      7 C           5.2184   -2.9612   20.4326 C.ar    1  UNL1        0.1279
      8 C           4.4112   -2.2685   19.3749 C.ar    1  UNL1        0.1589
      9 F           4.6450   -2.5829   17.9270 F       1  UNL1       -0.2025
     10 C           3.3703   -1.2614   19.7652 C.ar    1  UNL1        0.0297
     11 C           3.1366   -0.9470   21.2131 C.ar    1  UNL1        0.0115
     12 C           2.0799    0.0210   20.7697 C.3     1  UNL1        0.0979
     13 C           2.1746   -0.1647   19.2843 C.3     1  UNL1        0.0261
     14 C           1.1689    0.7419   18.6389 C.3     1  UNL1        0.0235
     15 C           0.4527    1.4880   19.7254 C.3     1  UNL1        0.0925
     16 N           1.0157    1.0424   21.0424 N.pl3   1  UNL1       -0.2910
     17 C           0.1879    1.8833   21.9684 C.ar    1  UNL1        0.1351
     18 C          -1.1777    3.2110   22.5806 C.ar    1  UNL1        0.0551
     19 C          -1.7093    3.7952   23.8557 C.ar    1  UNL1        0.1050
     20 N          -1.1489    3.3521   25.1746 N.ar    1  UNL1       -0.2104
     21 N          -1.1908    3.4886   26.6678 N.ar    1  UNL1       -0.1619
     22 C          -0.1658    2.5593   27.2472 C.ar    1  UNL1        0.1281
     23 C           0.5097    1.8486   26.1121 C.ar    1  UNL1        0.1099
     24 C          -0.0978    2.3385   24.8312 C.ar    1  UNL1        0.1710
     25 N          -0.2139    2.3510   23.3358 N.ar    1  UNL1       -0.2116
     26 C           1.4696    0.9934   26.8851 C.2     1  UNL1        0.2504
     27 O           1.1931    1.3470   28.3164 O.2     1  UNL1       -0.2700
     28 N           2.5618   -0.0311   26.9731 N.am    1  UNL1       -0.3024
     29 H           2.7234   -0.1207   27.9401 H       1  UNL1        0.1497
@<TRIPOS>BOND
     1     2     1    1
     2     2     3    1
     3     3     4    1
     4     4     5    1
     5     5     6   ar
     6     6     7   ar
     7     7     8   ar
     8     8     9    1
     9     8    10   ar
    10    10    11   ar
    11    11    12    1
    12    12    13    1
    13    13    14    1
    14    14    15    1
    15    15    16    1
    16    16    17    1
    17    17    18   ar
    18    18    19   ar
    19    19    20   ar
    20    20    21   ar
    21    21    22   ar
    22    22    23   ar
    23    23    24   ar
    24    24    25   ar
    25    23    26    1
    26    26    27    2
    27    26    28   am
    28    28     2    1
    29    11     5   ar
    30    16    12    1
    31    25    17   ar
    32    24    20   ar
    33    28    29    1
@<TRIPOS>MOLECULE
*****
 29 33 0 0 0
SMALL
GASTEIGER

@<TRIPOS>ATOM
      1 C           5.0260   -3.7855   18.6497 C.3     1  UNL1        0.0213
      2 C           4.7102   -3.1218   19.9573 C.3     1  UNL1        0.0723
      3 C           3.6100   -2.1611   19.6155 C.3     1  UNL1        0.0259
      4 C           2.6107   -1.1027   19.9780 C.3     1  UNL1        0.0472
      5 C           1.9411   -0.1893   20.9614 C.ar    1  UNL1        0.0568
      6 N           1.0942    0.3103   19.8287 N.ar    1  UNL1       -0.2461
      7 C           0.0609    1.3693   20.0752 C.ar    1  UNL1        0.1279
      8 C          -0.1256    1.9287   21.4544 C.ar    1  UNL1        0.1589
      9 F          -1.1589    2.9877   21.7009 F       1  UNL1       -0.2025
     10 C           0.7214    1.4291   22.5872 C.ar    1  UNL1        0.0297
     11 C           1.7547    0.3702   22.3407 C.ar    1  UNL1        0.0115
     12 C           2.0941    0.4473   23.7998 C.3     1  UNL1        0.0979
     13 C           1.1184    1.5019   24.2306 C.3     1  UNL1        0.0261
     14 C           1.3028    1.7309   25.7015 C.3     1  UNL1        0.0235
     15 C           2.3926    0.8178   26.1797 C.3     1  UNL1        0.0925
     16 N           2.8816    0.0244   25.0044 N.pl3   1  UNL1       -0.2910
     17 C           3.9368   -0.8014   25.6786 C.ar    1  UNL1        0.1351
     18 C           5.1100   -1.5266   27.1278 C.ar    1  UNL1        0.0551
     19 C           6.2094   -2.5305   27.3102 C.ar    1  UNL1        0.1050
     20 N           6.7012   -3.3258   26.1373 N.ar    1  UNL1       -0.2104
     21 N           7.6511   -4.3742   25.6389 N.ar    1  UNL1       -0.1619
     22 C           7.4144   -4.5530   24.1686 C.ar    1  UNL1        0.1281
     23 C           6.3182   -3.6150   23.7581 C.ar    1  UNL1        0.1099
     24 C           5.8773   -2.8565   24.9748 C.ar    1  UNL1        0.1710
     25 N           5.0179   -1.8411   25.6679 N.ar    1  UNL1       -0.2116
     26 C           6.2394   -3.9428   22.2964 C.2     1  UNL1        0.2504
     27 O           7.2872   -4.9995   22.1085 O.2     1  UNL1       -0.2700
     28 N           5.6591   -3.7648   20.9247 N.am    1  UNL1       -0.3024
     29 H           6.1645   -4.4024   20.3705 H       1  UNL1        0.1497
@<TRIPOS>BOND
     1     2     1    1
     2     2     3    1
     3     3     4    1
     4     4     5    1
     5     5     6   ar
     6     6     7   ar
     7     7     8   ar
     8     8     9    1
     9     8    10   ar
    10    10    11   ar
    11    11    12    1
    12    12    13    1
    13    13    14    1
    14    14    15    1
    15    15    16    1
    16    16    17    1
    17    17    18   ar
    18    18    19   ar
    19    19    20   ar
    20    20    21   ar
    21    21    22   ar
    22    22    23   ar
    23    23    24   ar
    24    24    25   ar
    25    23    26    1
    26    26    27    2
    27    26    28   am
    28    28     2    1
    29    11     5   ar
    30    16    12    1
    31    25    17   ar
    32    24    20   ar
    33    28    29    1
