@<TRIPOS>MOLECULE
*****
 38 40 0 0 0
SMALL
GASTEIGER

@<TRIPOS>ATOM
      1 C          -4.9565  -18.6745   22.2490 C.ar    1  UNL1        0.0730
      2 C          -5.4253  -17.5040   23.0617 C.ar    1  UNL1        0.0322
      3 C          -4.5217  -16.3247   23.2687 C.ar    1  UNL1        0.0653
      4 C          -3.1494  -16.3159   22.6630 C.ar    1  UNL1        0.1133
      5 N          -2.6807  -17.4863   21.8504 N.ar    1  UNL1       -0.2367
      6 C          -3.5842  -18.6656   21.6434 C.ar    1  UNL1        0.1476
      7 C          -3.1155  -19.8361   20.8307 C.2     1  UNL1        0.2617
      8 N          -3.9485  -20.3381   19.6888 N.am    1  UNL1       -0.3240
      9 O          -1.8137  -20.5046   21.1601 O.2     1  UNL1       -0.2687
     10 H          -4.8029  -19.8993   19.4727 H       1  UNL1        0.1453
     11 H          -3.6409  -21.1063   19.1554 H       1  UNL1        0.1453
     12 N          -5.8600  -19.8538   22.0420 N.pl3   1  UNL1       -0.2964
     13 H          -5.6092  -20.7352   22.4018 H       1  UNL1        0.1537
     14 C          -8.7949  -20.8779   17.8781 C.3     1  UNL1        0.0738
     15 C          -8.6132  -20.2022   19.2049 C.ar    1  UNL1        0.1441
     16 N          -7.3275  -20.3658   19.9601 N.ar    1  UNL1       -0.2157
     17 C          -7.1458  -19.6901   21.2868 C.ar    1  UNL1        0.1382
     18 C          -8.2497  -18.8507   21.8585 C.ar    1  UNL1        0.0920
     19 C          -9.5353  -18.6871   21.1033 C.ar    1  UNL1        0.2289
     20 N          -9.7171  -19.3628   19.7765 N.ar    1  UNL1       -0.1966
     21 O         -10.6393  -17.8477   21.6750 O.3     1  UNL1       -0.4576
     22 C         -10.6112  -17.4564   23.1227 C.3     1  UNL1        0.2335
     23 C         -11.4144  -18.2314   24.1249 C.3     1  UNL1        0.1286
     24 C         -10.1666  -18.5104   24.9091 C.3     1  UNL1        0.0332
     25 C         -12.6622  -17.9524   23.3406 C.3     1  UNL1        0.0332
     26 O         -12.2175  -19.0064   25.1270 O.3     1  UNL1       -0.3831
     27 H         -11.6299  -19.3435   25.8212 H       1  UNL1        0.2104
     28 N          -4.9904  -15.1543   24.0813 N.pl3   1  UNL1       -0.3316
     29 H          -4.5589  -14.2760   23.9737 H       1  UNL1        0.1468
     30 C          -6.1165  -15.3221   25.0578 C.3     1  UNL1        0.0833
     31 C          -5.8262  -15.7056   26.4786 C.3     1  UNL1        0.0208
     32 C          -6.9524  -15.8735   27.4552 C.3     1  UNL1        0.0018
     33 C          -8.3688  -15.6578   27.0109 C.3     1  UNL1        0.0015
     34 C          -8.6590  -15.2743   25.5901 C.3     1  UNL1        0.0172
     35 C          -7.5329  -15.1065   24.6136 C.3     1  UNL1        0.0689
     36 N          -7.8232  -14.7230   23.1928 N.3     1  UNL1       -0.3209
     37 H          -6.9479  -14.6537   22.6737 H       1  UNL1        0.1189
     38 H          -8.3013  -13.8222   23.1746 H       1  UNL1        0.1189
@<TRIPOS>BOND
     1    14    15    1
     2    15    16   ar
     3    16    17   ar
     4    17    12    1
     5    12     1    1
     6     1     2   ar
     7     2     3   ar
     8     3    28    1
     9    30    28    1
    10    30    31    1
    11    31    32    1
    12    32    33    1
    13    33    34    1
    14    34    35    1
    15    35    36    1
    16     3     4   ar
    17     4     5   ar
    18     5     6   ar
    19     6     7    1
    20     7     8   am
    21     7     9    2
    22    17    18   ar
    23    18    19   ar
    24    19    21    1
    25    21    22    1
    26    22    23    1
    27    23    24    1
    28    23    25    1
    29    23    26    1
    30    19    20   ar
    31    20    15   ar
    32     6     1   ar
    33    35    30    1
    34    12    13    1
    35    28    29    1
    36    36    37    1
    37    36    38    1
    38     8    10    1
    39     8    11    1
    40    26    27    1
@<TRIPOS>MOLECULE
*****
 38 40 0 0 0
SMALL
GASTEIGER

@<TRIPOS>ATOM
      1 C          -4.9040  -18.6612   22.2746 C.ar    1  UNL1        0.0730
      2 C          -5.3814  -17.4953   23.0887 C.ar    1  UNL1        0.0322
      3 C          -4.5004  -16.2945   23.2675 C.ar    1  UNL1        0.0653
      4 C          -3.1420  -16.2597   22.6321 C.ar    1  UNL1        0.1133
      5 N          -2.6647  -17.4256   21.8180 N.ar    1  UNL1       -0.2367
      6 C          -3.5457  -18.6264   21.6393 C.ar    1  UNL1        0.1476
      7 C          -3.0683  -19.7923   20.8251 C.2     1  UNL1        0.2617
      8 N          -3.8645  -20.2569   19.6418 N.am    1  UNL1       -0.3240
      9 O          -1.7948  -20.4936   21.1944 O.2     1  UNL1       -0.2687
     10 H          -4.7003  -19.7967   19.3995 H       1  UNL1        0.1453
     11 H          -3.5512  -21.0222   19.1075 H       1  UNL1        0.1453
     12 N          -5.7851  -19.8620   22.0958 N.pl3   1  UNL1       -0.2964
     13 H          -5.3844  -20.7546   21.9866 H       1  UNL1        0.1537
     14 C         -10.4074  -20.5941   24.3537 C.3     1  UNL1        0.0738
     15 C          -9.5877  -20.0688   23.2126 C.ar    1  UNL1        0.1441
     16 N          -8.0963  -20.2280   23.2247 N.ar    1  UNL1       -0.2157
     17 C          -7.2766  -19.7027   22.0836 C.ar    1  UNL1        0.1382
     18 C          -7.9483  -19.0182   20.9303 C.ar    1  UNL1        0.0920
     19 C          -9.4398  -18.8590   20.9181 C.ar    1  UNL1        0.2289
     20 N         -10.2595  -19.3843   22.0593 N.ar    1  UNL1       -0.1966
     21 O         -10.1116  -18.1744   19.7648 O.3     1  UNL1       -0.4576
     22 C         -11.3907  -17.4215   19.9813 C.3     1  UNL1        0.2335
     23 C         -11.5374  -16.5183   21.1700 C.3     1  UNL1        0.1286
     24 C         -10.3514  -15.7226   20.7117 C.3     1  UNL1        0.0332
     25 C         -12.7235  -17.3141   21.6283 C.3     1  UNL1        0.0332
     26 O         -11.6841  -15.6152   22.3585 O.3     1  UNL1       -0.3831
     27 H         -10.9926  -14.9354   22.3353 H       1  UNL1        0.2104
     28 N          -4.9777  -15.1286   24.0815 N.pl3   1  UNL1       -0.3316
     29 H          -4.5503  -14.2478   23.9777 H       1  UNL1        0.1468
     30 C          -6.1062  -15.3046   25.0538 C.3     1  UNL1        0.0833
     31 C          -5.8180  -15.6770   26.4780 C.3     1  UNL1        0.0208
     32 C          -6.9466  -15.8530   27.4503 C.3     1  UNL1        0.0018
     33 C          -8.3633  -15.6567   26.9985 C.3     1  UNL1        0.0015
     34 C          -8.6516  -15.2844   25.5743 C.3     1  UNL1        0.0172
     35 C          -7.5231  -15.1083   24.6020 C.3     1  UNL1        0.0689
     36 N          -7.8113  -14.7359   23.1778 N.3     1  UNL1       -0.3209
     37 H          -6.9345  -14.6590   22.6624 H       1  UNL1        0.1189
     38 H          -8.3001  -13.8411   23.1526 H       1  UNL1        0.1189
@<TRIPOS>BOND
     1    14    15    1
     2    15    16   ar
     3    16    17   ar
     4    17    12    1
     5    12     1    1
     6     1     2   ar
     7     2     3   ar
     8     3    28    1
     9    30    28    1
    10    30    31    1
    11    31    32    1
    12    32    33    1
    13    33    34    1
    14    34    35    1
    15    35    36    1
    16     3     4   ar
    17     4     5   ar
    18     5     6   ar
    19     6     7    1
    20     7     8   am
    21     7     9    2
    22    17    18   ar
    23    18    19   ar
    24    19    21    1
    25    21    22    1
    26    22    23    1
    27    23    24    1
    28    23    25    1
    29    23    26    1
    30    19    20   ar
    31    20    15   ar
    32     6     1   ar
    33    35    30    1
    34    12    13    1
    35    28    29    1
    36    36    37    1
    37    36    38    1
    38     8    10    1
    39     8    11    1
    40    26    27    1
@<TRIPOS>MOLECULE
*****
 38 40 0 0 0
SMALL
GASTEIGER

@<TRIPOS>ATOM
      1 C          -7.4874  -19.7316   21.5864 C.ar    1  UNL1        0.0730
      2 C          -6.1004  -19.7723   22.1563 C.ar    1  UNL1        0.0322
      3 C          -4.9186  -19.4994   21.2737 C.ar    1  UNL1        0.0653
      4 C          -5.1238  -19.1859   19.8212 C.ar    1  UNL1        0.1133
      5 N          -6.5108  -19.1452   19.2514 N.ar    1  UNL1       -0.2367
      6 C          -7.6925  -19.4180   20.1340 C.ar    1  UNL1        0.1476
      7 C          -9.0795  -19.3773   19.5641 C.2     1  UNL1        0.2617
      8 N          -9.9474  -18.1746   19.7880 N.am    1  UNL1       -0.3240
      9 O          -9.5986  -20.5394   18.7703 O.2     1  UNL1       -0.2687
     10 H          -9.6067  -17.4119   20.3090 H       1  UNL1        0.1453
     11 H         -10.8576  -18.1479   19.4140 H       1  UNL1        0.1453
     12 N          -8.6692  -20.0044   22.4690 N.pl3   1  UNL1       -0.2964
     13 H          -8.8784  -20.9275   22.7401 H       1  UNL1        0.1537
     14 C         -13.3681  -17.8572   23.0250 C.3     1  UNL1        0.0738
     15 C         -11.8816  -17.7973   23.2165 C.ar    1  UNL1        0.1441
     16 N         -11.0187  -18.9308   22.7470 N.ar    1  UNL1       -0.2157
     17 C          -9.5321  -18.8709   22.9386 C.ar    1  UNL1        0.1382
     18 C          -8.9086  -17.6776   23.5997 C.ar    1  UNL1        0.0920
     19 C          -9.7716  -16.5441   24.0692 C.ar    1  UNL1        0.2289
     20 N         -11.2581  -16.6040   23.8776 N.ar    1  UNL1       -0.1966
     21 O          -9.1480  -15.3507   24.7304 O.3     1  UNL1       -0.4576
     22 C          -7.6568  -15.2619   24.8653 C.3     1  UNL1        0.2335
     23 C          -7.0114  -15.4660   26.2040 C.3     1  UNL1        0.1286
     24 C          -8.3565  -15.3930   26.8636 C.3     1  UNL1        0.0332
     25 C          -5.6662  -15.5391   25.5443 C.3     1  UNL1        0.0332
     26 O          -6.3660  -15.6701   27.5425 O.3     1  UNL1       -0.3831
     27 H          -7.0471  -15.6696   28.2333 H       1  UNL1        0.2104
     28 N          -3.5317  -19.5401   21.8435 N.pl3   1  UNL1       -0.3316
     29 H          -3.3084  -20.1889   22.5496 H       1  UNL1        0.1468
     30 C          -2.4850  -18.5923   21.3377 C.3     1  UNL1        0.0833
     31 C          -1.4515  -19.0684   20.3603 C.3     1  UNL1        0.0208
     32 C          -0.4047  -18.1204   19.8545 C.3     1  UNL1        0.0018
     33 C          -0.3915  -16.6966   20.3260 C.3     1  UNL1        0.0015
     34 C          -1.4250  -16.2205   21.3033 C.3     1  UNL1        0.0172
     35 C          -2.4717  -17.1683   21.8092 C.3     1  UNL1        0.0689
     36 N          -3.5053  -16.6923   22.7865 N.3     1  UNL1       -0.3209
     37 H          -4.1319  -17.4623   23.0208 H       1  UNL1        0.1189
     38 H          -4.0422  -15.9316   22.3700 H       1  UNL1        0.1189
@<TRIPOS>BOND
     1    14    15    1
     2    15    16   ar
     3    16    17   ar
     4    17    12    1
     5    12     1    1
     6     1     2   ar
     7     2     3   ar
     8     3    28    1
     9    30    28    1
    10    30    31    1
    11    31    32    1
    12    32    33    1
    13    33    34    1
    14    34    35    1
    15    35    36    1
    16     3     4   ar
    17     4     5   ar
    18     5     6   ar
    19     6     7    1
    20     7     8   am
    21     7     9    2
    22    17    18   ar
    23    18    19   ar
    24    19    21    1
    25    21    22    1
    26    22    23    1
    27    23    24    1
    28    23    25    1
    29    23    26    1
    30    19    20   ar
    31    20    15   ar
    32     6     1   ar
    33    35    30    1
    34    12    13    1
    35    28    29    1
    36    36    37    1
    37    36    38    1
    38     8    10    1
    39     8    11    1
    40    26    27    1
@<TRIPOS>MOLECULE
*****
 38 40 0 0 0
SMALL
GASTEIGER

@<TRIPOS>ATOM
      1 C          -6.6467  -15.5662   23.7652 C.ar    1  UNL1        0.0730
      2 C          -5.4017  -16.0467   23.0802 C.ar    1  UNL1        0.0322
      3 C          -4.3049  -16.6855   23.8795 C.ar    1  UNL1        0.0653
      4 C          -4.4530  -16.8437   25.3638 C.ar    1  UNL1        0.1133
      5 N          -5.6979  -16.3632   26.0487 N.ar    1  UNL1       -0.2367
      6 C          -6.7948  -15.7245   25.2494 C.ar    1  UNL1        0.1476
      7 C          -8.0398  -15.2439   25.9344 C.2     1  UNL1        0.2617
      8 N          -7.9815  -14.7863   27.3617 N.am    1  UNL1       -0.3240
      9 O          -9.3430  -15.2211   25.1921 O.2     1  UNL1       -0.2687
     10 H          -7.1262  -14.8013   27.8489 H       1  UNL1        0.1453
     11 H          -8.7986  -14.4709   27.8112 H       1  UNL1        0.1453
     12 N          -7.7436  -14.9274   22.9659 N.pl3   1  UNL1       -0.2964
     13 H          -7.8603  -13.9500   22.9834 H       1  UNL1        0.1537
     14 C         -11.2691  -15.3727   19.1748 C.3     1  UNL1        0.0738
     15 C         -10.4253  -16.0005   20.2443 C.ar    1  UNL1        0.1441
     16 N          -9.5064  -15.1501   21.0703 N.ar    1  UNL1       -0.2157
     17 C          -8.6625  -15.7779   22.1398 C.ar    1  UNL1        0.1382
     18 C          -8.7376  -17.2561   22.3832 C.ar    1  UNL1        0.0920
     19 C          -9.6565  -18.1064   21.5572 C.ar    1  UNL1        0.2289
     20 N         -10.5004  -17.4786   20.4877 N.ar    1  UNL1       -0.1966
     21 O          -9.7316  -19.5847   21.8006 O.3     1  UNL1       -0.4576
     22 C         -10.7209  -20.1333   22.7856 C.3     1  UNL1        0.2335
     23 C         -10.4821  -19.9714   24.2577 C.3     1  UNL1        0.1286
     24 C         -11.6639  -19.0521   24.3482 C.3     1  UNL1        0.0332
     25 C          -9.3004  -20.8908   24.1672 C.3     1  UNL1        0.0332
     26 O         -10.2434  -19.8095   25.7297 O.3     1  UNL1       -0.3831
     27 H         -10.9125  -19.2141   26.1022 H       1  UNL1        0.2104
     28 N          -3.0599  -17.1660   23.1946 N.pl3   1  UNL1       -0.3316
     29 H          -2.1759  -16.9354   23.5615 H       1  UNL1        0.1468
     30 C          -3.1618  -17.9980   21.9506 C.3     1  UNL1        0.0833
     31 C          -4.1894  -19.0868   21.8587 C.3     1  UNL1        0.0208
     32 C          -4.2913  -19.9188   20.6146 C.3     1  UNL1        0.0018
     33 C          -3.3656  -19.6619   19.4627 C.3     1  UNL1        0.0015
     34 C          -2.3380  -18.5730   19.5546 C.3     1  UNL1        0.0172
     35 C          -2.2361  -17.7411   20.7986 C.3     1  UNL1        0.0689
     36 N          -1.2085  -16.6522   20.8905 N.3     1  UNL1       -0.3209
     37 H          -1.2805  -16.1926   21.7983 H       1  UNL1        0.1189
     38 H          -1.3694  -15.9695   20.1500 H       1  UNL1        0.1189
@<TRIPOS>BOND
     1    14    15    1
     2    15    16   ar
     3    16    17   ar
     4    17    12    1
     5    12     1    1
     6     1     2   ar
     7     2     3   ar
     8     3    28    1
     9    30    28    1
    10    30    31    1
    11    31    32    1
    12    32    33    1
    13    33    34    1
    14    34    35    1
    15    35    36    1
    16     3     4   ar
    17     4     5   ar
    18     5     6   ar
    19     6     7    1
    20     7     8   am
    21     7     9    2
    22    17    18   ar
    23    18    19   ar
    24    19    21    1
    25    21    22    1
    26    22    23    1
    27    23    24    1
    28    23    25    1
    29    23    26    1
    30    19    20   ar
    31    20    15   ar
    32     6     1   ar
    33    35    30    1
    34    12    13    1
    35    28    29    1
    36    36    37    1
    37    36    38    1
    38     8    10    1
    39     8    11    1
    40    26    27    1
@<TRIPOS>MOLECULE
*****
 38 40 0 0 0
SMALL
GASTEIGER

@<TRIPOS>ATOM
      1 C          -3.9959  -17.8476   22.0683 C.ar    1  UNL1        0.0730
      2 C          -5.1405  -18.8114   21.9627 C.ar    1  UNL1        0.0322
      3 C          -5.1396  -19.8625   20.8925 C.ar    1  UNL1        0.0653
      4 C          -3.9942  -19.9497   19.9279 C.ar    1  UNL1        0.1133
      5 N          -2.8497  -18.9859   20.0335 N.ar    1  UNL1       -0.2367
      6 C          -2.8505  -17.9349   21.1037 C.ar    1  UNL1        0.1476
      7 C          -1.7059  -16.9711   21.2093 C.2     1  UNL1        0.2617
      8 N          -0.3229  -17.4040   20.8225 N.am    1  UNL1       -0.3240
      9 O          -1.9445  -15.5744   21.7017 O.2     1  UNL1       -0.2687
     10 H          -0.1663  -18.3206   20.4993 H       1  UNL1        0.1453
     11 H           0.4283  -16.7714   20.8918 H       1  UNL1        0.1453
     12 N          -3.9967  -16.7966   23.1385 N.pl3   1  UNL1       -0.2964
     13 H          -3.1586  -16.3408   23.3815 H       1  UNL1        0.1537
     14 C          -6.4794  -15.0078   27.3381 C.3     1  UNL1        0.0738
     15 C          -6.5159  -15.5457   25.9383 C.ar    1  UNL1        0.1441
     16 N          -5.2381  -15.9022   25.2383 N.ar    1  UNL1       -0.2157
     17 C          -5.2746  -16.4401   23.8385 C.ar    1  UNL1        0.1382
     18 C          -6.5889  -16.6214   23.1387 C.ar    1  UNL1        0.0920
     19 C          -7.8667  -16.2648   23.8388 C.ar    1  UNL1        0.2289
     20 N          -7.8302  -15.7269   25.2385 N.ar    1  UNL1       -0.1966
     21 O          -9.1811  -16.4461   23.1390 O.3     1  UNL1       -0.4576
     22 C         -10.3606  -16.9917   23.8880 C.3     1  UNL1        0.2335
     23 C         -11.6196  -17.3425   23.1519 C.3     1  UNL1        0.1286
     24 C         -11.4293  -16.1522   22.2592 C.3     1  UNL1        0.0332
     25 C         -11.8100  -18.5327   24.0446 C.3     1  UNL1        0.0332
     26 O         -12.8786  -17.6932   22.4158 O.3     1  UNL1       -0.3831
     27 H         -13.0340  -17.0431   21.7129 H       1  UNL1        0.2104
     28 N          -6.2841  -20.8262   20.7869 N.pl3   1  UNL1       -0.3316
     29 H          -6.1485  -21.7771   21.0027 H       1  UNL1        0.1468
     30 C          -7.6354  -20.3412   20.3524 C.3     1  UNL1        0.0833
     31 C          -8.0216  -20.3952   18.9040 C.3     1  UNL1        0.0208
     32 C          -9.3729  -19.9101   18.4695 C.3     1  UNL1        0.0018
     33 C         -10.3379  -19.3710   19.4834 C.3     1  UNL1        0.0015
     34 C          -9.9517  -19.3170   20.9319 C.3     1  UNL1        0.0172
     35 C          -8.6005  -19.8020   21.3663 C.3     1  UNL1        0.0689
     36 N          -8.2142  -19.7480   22.8148 N.3     1  UNL1       -0.3209
     37 H          -7.2693  -20.1149   22.9286 H       1  UNL1        0.1189
     38 H          -8.8657  -20.3110   23.3616 H       1  UNL1        0.1189
@<TRIPOS>BOND
     1    14    15    1
     2    15    16   ar
     3    16    17   ar
     4    17    12    1
     5    12     1    1
     6     1     2   ar
     7     2     3   ar
     8     3    28    1
     9    30    28    1
    10    30    31    1
    11    31    32    1
    12    32    33    1
    13    33    34    1
    14    34    35    1
    15    35    36    1
    16     3     4   ar
    17     4     5   ar
    18     5     6   ar
    19     6     7    1
    20     7     8   am
    21     7     9    2
    22    17    18   ar
    23    18    19   ar
    24    19    21    1
    25    21    22    1
    26    22    23    1
    27    23    24    1
    28    23    25    1
    29    23    26    1
    30    19    20   ar
    31    20    15   ar
    32     6     1   ar
    33    35    30    1
    34    12    13    1
    35    28    29    1
    36    36    37    1
    37    36    38    1
    38     8    10    1
    39     8    11    1
    40    26    27    1
@<TRIPOS>MOLECULE
*****
 38 40 0 0 0
SMALL
GASTEIGER

@<TRIPOS>ATOM
      1 C          -6.8244  -15.8052   24.0277 C.ar    1  UNL1        0.0730
      2 C          -7.9366  -15.9637   23.0337 C.ar    1  UNL1        0.0322
      3 C          -9.3632  -15.8240   23.4758 C.ar    1  UNL1        0.0653
      4 C          -9.6775  -15.5258   24.9119 C.ar    1  UNL1        0.1133
      5 N          -8.5654  -15.3672   25.9058 N.ar    1  UNL1       -0.2367
      6 C          -7.1388  -15.5069   25.4637 C.ar    1  UNL1        0.1476
      7 C          -6.0266  -15.3483   26.4577 C.2     1  UNL1        0.2617
      8 N          -6.0526  -16.1226   27.7421 N.am    1  UNL1       -0.3240
      9 O          -4.8885  -14.4154   26.1672 O.2     1  UNL1       -0.2687
     10 H          -6.7996  -16.7349   27.9328 H       1  UNL1        0.1453
     11 H          -5.3227  -16.0185   28.3945 H       1  UNL1        0.1453
     12 N          -5.3979  -15.9448   23.5856 N.pl3   1  UNL1       -0.2964
     13 H          -4.7725  -15.1925   23.6957 H       1  UNL1        0.1537
     14 C          -6.4333  -20.6350   21.6032 C.3     1  UNL1        0.0738
     15 C          -5.4419  -19.5759   21.9846 C.ar    1  UNL1        0.1441
     16 N          -5.9156  -18.2900   22.5944 N.ar    1  UNL1       -0.2157
     17 C          -4.9242  -17.2309   22.9758 C.ar    1  UNL1        0.1382
     18 C          -3.4592  -17.4578   22.7474 C.ar    1  UNL1        0.0920
     19 C          -2.9855  -18.7437   22.1376 C.ar    1  UNL1        0.2289
     20 N          -3.9769  -19.8028   21.7562 N.ar    1  UNL1       -0.1966
     21 O          -1.5205  -18.9707   21.9092 O.3     1  UNL1       -0.4576
     22 C          -0.9490  -18.8483   20.5278 C.3     1  UNL1        0.2335
     23 C          -1.4947  -17.8230   19.5785 C.3     1  UNL1        0.1286
     24 C          -2.3645  -18.8699   18.9480 C.3     1  UNL1        0.0332
     25 C          -0.6250  -16.7761   20.2090 C.3     1  UNL1        0.0332
     26 O          -2.0405  -16.7979   18.6292 O.3     1  UNL1       -0.3831
     27 H          -2.6884  -17.2152   18.0401 H       1  UNL1        0.2104
     28 N         -10.4753  -15.9826   22.4819 N.pl3   1  UNL1       -0.3316
     29 H         -11.0906  -15.2340   22.3081 H       1  UNL1        0.1468
     30 C         -10.6500  -17.2817   21.7528 C.3     1  UNL1        0.0833
     31 C         -10.5984  -18.5776   22.5064 C.3     1  UNL1        0.0208
     32 C         -10.7730  -19.8768   21.7772 C.3     1  UNL1        0.0018
     33 C         -10.9993  -19.8801   20.2944 C.3     1  UNL1        0.0015
     34 C         -11.0508  -18.5842   19.5407 C.3     1  UNL1        0.0172
     35 C         -10.8762  -17.2850   20.2699 C.3     1  UNL1        0.0689
     36 N         -10.9278  -15.9892   19.5162 N.3     1  UNL1       -0.3209
     37 H         -10.7911  -15.2133   20.1641 H       1  UNL1        0.1189
     38 H         -11.8360  -15.8963   19.0614 H       1  UNL1        0.1189
@<TRIPOS>BOND
     1    14    15    1
     2    15    16   ar
     3    16    17   ar
     4    17    12    1
     5    12     1    1
     6     1     2   ar
     7     2     3   ar
     8     3    28    1
     9    30    28    1
    10    30    31    1
    11    31    32    1
    12    32    33    1
    13    33    34    1
    14    34    35    1
    15    35    36    1
    16     3     4   ar
    17     4     5   ar
    18     5     6   ar
    19     6     7    1
    20     7     8   am
    21     7     9    2
    22    17    18   ar
    23    18    19   ar
    24    19    21    1
    25    21    22    1
    26    22    23    1
    27    23    24    1
    28    23    25    1
    29    23    26    1
    30    19    20   ar
    31    20    15   ar
    32     6     1   ar
    33    35    30    1
    34    12    13    1
    35    28    29    1
    36    36    37    1
    37    36    38    1
    38     8    10    1
    39     8    11    1
    40    26    27    1
@<TRIPOS>MOLECULE
*****
 38 40 0 0 0
SMALL
GASTEIGER

@<TRIPOS>ATOM
      1 C          -6.1471  -16.1192   23.9741 C.ar    1  UNL1        0.0730
      2 C          -4.9785  -16.7896   23.3144 C.ar    1  UNL1        0.0322
      3 C          -3.8416  -17.3046   24.1464 C.ar    1  UNL1        0.0653
      4 C          -3.8733  -17.1493   25.6380 C.ar    1  UNL1        0.1133
      5 N          -5.0419  -16.4790   26.2976 N.ar    1  UNL1       -0.2367
      6 C          -6.1788  -15.9639   25.4656 C.ar    1  UNL1        0.1476
      7 C          -7.3474  -15.2936   26.1253 C.2     1  UNL1        0.2617
      8 N          -7.1711  -14.6108   27.4492 N.am    1  UNL1       -0.3240
      9 O          -8.6922  -15.3060   25.4610 O.2     1  UNL1       -0.2687
     10 H          -6.2884  -14.6027   27.8852 H       1  UNL1        0.1453
     11 H          -7.9381  -14.1709   27.8822 H       1  UNL1        0.1453
     12 N          -7.2840  -15.6042   23.1421 N.pl3   1  UNL1       -0.2964
     13 H          -7.5273  -14.6509   23.1772 H       1  UNL1        0.1537
     14 C          -7.3564  -19.5211   19.7285 C.3     1  UNL1        0.0738
     15 C          -8.0864  -18.5002   20.5499 C.ar    1  UNL1        0.1441
     16 N          -7.3202  -17.5627   21.4353 N.ar    1  UNL1       -0.2157
     17 C          -8.0503  -16.5417   22.2567 C.ar    1  UNL1        0.1382
     18 C          -9.5466  -16.4583   22.1926 C.ar    1  UNL1        0.0920
     19 C         -10.3128  -17.3958   21.3072 C.ar    1  UNL1        0.2289
     20 N          -9.5827  -18.4167   20.4859 N.ar    1  UNL1       -0.1966
     21 O         -11.8091  -17.3124   21.2432 O.3     1  UNL1       -0.4576
     22 C         -12.6484  -18.3040   21.9930 C.3     1  UNL1        0.2335
     23 C         -12.4246  -18.5182   23.4607 C.3     1  UNL1        0.1286
     24 C         -11.3842  -19.5533   23.1510 C.3     1  UNL1        0.0332
     25 C         -13.4649  -17.4830   23.7704 C.3     1  UNL1        0.0332
     26 O         -12.2007  -18.7323   24.9283 O.3     1  UNL1       -0.3831
     27 H         -11.5182  -19.4096   25.0558 H       1  UNL1        0.2104
     28 N          -2.6731  -17.9750   23.4868 N.pl3   1  UNL1       -0.3316
     29 H          -1.8591  -18.1681   24.0058 H       1  UNL1        0.1468
     30 C          -2.7448  -18.3510   22.0365 C.3     1  UNL1        0.0833
     31 C          -3.4316  -19.6190   21.6236 C.3     1  UNL1        0.0208
     32 C          -3.5032  -19.9951   20.1732 C.3     1  UNL1        0.0018
     33 C          -2.8882  -19.1032   19.1359 C.3     1  UNL1        0.0015
     34 C          -2.2014  -17.8352   19.5488 C.3     1  UNL1        0.0172
     35 C          -2.1297  -17.4591   20.9991 C.3     1  UNL1        0.0689
     36 N          -1.4429  -16.1911   21.4120 N.3     1  UNL1       -0.3209
     37 H          -1.4884  -16.0946   22.4264 H       1  UNL1        0.1189
     38 H          -1.9063  -15.3952   20.9737 H       1  UNL1        0.1189
@<TRIPOS>BOND
     1    14    15    1
     2    15    16   ar
     3    16    17   ar
     4    17    12    1
     5    12     1    1
     6     1     2   ar
     7     2     3   ar
     8     3    28    1
     9    30    28    1
    10    30    31    1
    11    31    32    1
    12    32    33    1
    13    33    34    1
    14    34    35    1
    15    35    36    1
    16     3     4   ar
    17     4     5   ar
    18     5     6   ar
    19     6     7    1
    20     7     8   am
    21     7     9    2
    22    17    18   ar
    23    18    19   ar
    24    19    21    1
    25    21    22    1
    26    22    23    1
    27    23    24    1
    28    23    25    1
    29    23    26    1
    30    19    20   ar
    31    20    15   ar
    32     6     1   ar
    33    35    30    1
    34    12    13    1
    35    28    29    1
    36    36    37    1
    37    36    38    1
    38     8    10    1
    39     8    11    1
    40    26    27    1
@<TRIPOS>MOLECULE
*****
 38 40 0 0 0
SMALL
GASTEIGER

@<TRIPOS>ATOM
      1 C          -4.9651  -17.6942   22.2889 C.ar    1  UNL1        0.0730
      2 C          -6.2479  -18.3440   21.8618 C.ar    1  UNL1        0.0322
      3 C          -6.2267  -19.4549   20.8541 C.ar    1  UNL1        0.0653
      4 C          -4.9227  -19.9161   20.2735 C.ar    1  UNL1        0.1133
      5 N          -3.6400  -19.2663   20.7006 N.ar    1  UNL1       -0.2367
      6 C          -3.6612  -18.1554   21.7083 C.ar    1  UNL1        0.1476
      7 C          -2.3784  -17.5056   22.1354 C.2     1  UNL1        0.2617
      8 N          -1.2690  -18.3389   22.7052 N.am    1  UNL1       -0.3240
      9 O          -2.2051  -16.0225   21.9925 O.2     1  UNL1       -0.2687
     10 H          -1.3828  -19.3123   22.7989 H       1  UNL1        0.1453
     11 H          -0.4271  -17.9125   22.9855 H       1  UNL1        0.1453
     12 N          -4.9863  -16.5833   23.2965 N.pl3   1  UNL1       -0.2964
     13 H          -4.1685  -16.0653   23.4754 H       1  UNL1        0.1537
     14 C          -7.4079  -15.0246   27.6216 C.3     1  UNL1        0.0738
     15 C          -7.4644  -15.4824   26.1943 C.ar    1  UNL1        0.1441
     16 N          -6.1972  -15.8039   25.4591 N.ar    1  UNL1       -0.2157
     17 C          -6.2537  -16.2617   24.0318 C.ar    1  UNL1        0.1382
     18 C          -7.5774  -16.3979   23.3397 C.ar    1  UNL1        0.0920
     19 C          -8.8447  -16.0763   24.0749 C.ar    1  UNL1        0.2289
     20 N          -8.7882  -15.6185   25.5022 N.ar    1  UNL1       -0.1966
     21 O         -10.1686  -16.2125   23.3828 O.3     1  UNL1       -0.4576
     22 C         -10.2527  -16.0765   21.8913 C.3     1  UNL1        0.2335
     23 C         -11.5848  -16.1492   21.2055 C.3     1  UNL1        0.1286
     24 C         -12.2731  -16.0985   22.5372 C.3     1  UNL1        0.0332
     25 C         -10.8964  -16.1999   19.8738 C.3     1  UNL1        0.0332
     26 O         -12.9168  -16.2219   20.5197 O.3     1  UNL1       -0.3831
     27 H         -13.6236  -16.2066   21.1838 H       1  UNL1        0.2104
     28 N          -7.5094  -20.1047   20.4270 N.pl3   1  UNL1       -0.3316
     29 H          -7.5415  -20.6315   19.5960 H       1  UNL1        0.1468
     30 C          -8.7432  -19.9518   21.2662 C.3     1  UNL1        0.0833
     31 C          -8.6447  -20.0080   22.7619 C.3     1  UNL1        0.0208
     32 C          -9.8786  -19.8551   23.6011 C.3     1  UNL1        0.0018
     33 C         -11.2110  -19.6461   22.9446 C.3     1  UNL1        0.0015
     34 C         -11.3095  -19.5900   21.4489 C.3     1  UNL1        0.0172
     35 C         -10.0757  -19.7428   20.6097 C.3     1  UNL1        0.0689
     36 N         -10.1742  -19.6867   19.1140 N.3     1  UNL1       -0.3209
     37 H          -9.2467  -19.8079   18.7073 H       1  UNL1        0.1189
     38 H         -10.5536  -18.7828   18.8319 H       1  UNL1        0.1189
@<TRIPOS>BOND
     1    14    15    1
     2    15    16   ar
     3    16    17   ar
     4    17    12    1
     5    12     1    1
     6     1     2   ar
     7     2     3   ar
     8     3    28    1
     9    30    28    1
    10    30    31    1
    11    31    32    1
    12    32    33    1
    13    33    34    1
    14    34    35    1
    15    35    36    1
    16     3     4   ar
    17     4     5   ar
    18     5     6   ar
    19     6     7    1
    20     7     8   am
    21     7     9    2
    22    17    18   ar
    23    18    19   ar
    24    19    21    1
    25    21    22    1
    26    22    23    1
    27    23    24    1
    28    23    25    1
    29    23    26    1
    30    19    20   ar
    31    20    15   ar
    32     6     1   ar
    33    35    30    1
    34    12    13    1
    35    28    29    1
    36    36    37    1
    37    36    38    1
    38     8    10    1
    39     8    11    1
    40    26    27    1
@<TRIPOS>MOLECULE
*****
 38 40 0 0 0
SMALL
GASTEIGER

@<TRIPOS>ATOM
      1 C          -8.6392  -18.3798   21.6074 C.ar    1  UNL1        0.0730
      2 C          -8.1476  -17.1961   22.3867 C.ar    1  UNL1        0.0322
      3 C          -9.1161  -16.1488   22.8506 C.ar    1  UNL1        0.0653
      4 C         -10.5763  -16.2853   22.5353 C.ar    1  UNL1        0.1133
      5 N         -11.0678  -17.4689   21.7560 N.ar    1  UNL1       -0.2367
      6 C         -10.0993  -18.5162   21.2921 C.ar    1  UNL1        0.1476
      7 C         -10.5909  -19.6999   20.5128 C.2     1  UNL1        0.2617
      8 N         -10.3475  -19.7783   19.0348 N.am    1  UNL1       -0.3240
      9 O         -11.3259  -20.8051   21.2116 O.2     1  UNL1       -0.2687
     10 H          -9.8651  -19.0530   18.5761 H       1  UNL1        0.1453
     11 H         -10.6702  -20.5552   18.5233 H       1  UNL1        0.1453
     12 N          -7.6707  -19.4270   21.1435 N.pl3   1  UNL1       -0.2964
     13 H          -8.0022  -20.2484   20.7138 H       1  UNL1        0.1537
     14 C          -3.6861  -17.8985   24.1078 C.3     1  UNL1        0.0738
     15 C          -4.2046  -18.4585   22.8165 C.ar    1  UNL1        0.1441
     16 N          -5.6783  -18.6628   22.6256 N.ar    1  UNL1       -0.2157
     17 C          -6.1969  -19.2228   21.3343 C.ar    1  UNL1        0.1382
     18 C          -5.2417  -19.5785   20.2338 C.ar    1  UNL1        0.0920
     19 C          -3.7680  -19.3743   20.4247 C.ar    1  UNL1        0.2289
     20 N          -3.2495  -18.8143   21.7160 N.ar    1  UNL1       -0.1966
     21 O          -2.8128  -19.7301   19.3242 O.3     1  UNL1       -0.4576
     22 C          -2.1059  -18.6465   18.5652 C.3     1  UNL1        0.2335
     23 C          -1.4429  -17.5226   19.3051 C.3     1  UNL1        0.1286
     24 C          -0.3279  -18.4432   19.7043 C.3     1  UNL1        0.0332
     25 C          -2.5578  -16.6020   18.9058 C.3     1  UNL1        0.0332
     26 O          -0.7799  -16.3988   20.0449 O.3     1  UNL1       -0.3831
     27 H           0.0428  -16.7178   20.4478 H       1  UNL1        0.2104
     28 N          -8.6245  -14.9652   23.6299 N.pl3   1  UNL1       -0.3316
     29 H          -8.8185  -14.0530   23.3142 H       1  UNL1        0.1468
     30 C          -7.8375  -15.1713   24.8901 C.3     1  UNL1        0.0833
     31 C          -8.5491  -15.4317   26.1846 C.3     1  UNL1        0.0208
     32 C          -7.7620  -15.6378   27.4448 C.3     1  UNL1        0.0018
     33 C          -6.2634  -15.5835   27.4105 C.3     1  UNL1        0.0015
     34 C          -5.5518  -15.3231   26.1159 C.3     1  UNL1        0.0172
     35 C          -6.3389  -15.1170   24.8557 C.3     1  UNL1        0.0689
     36 N          -5.6273  -14.8566   23.5612 N.3     1  UNL1       -0.3209
     37 H          -6.3120  -14.7414   22.8140 H       1  UNL1        0.1189
     38 H          -5.0168  -15.6444   23.3443 H       1  UNL1        0.1189
@<TRIPOS>BOND
     1    14    15    1
     2    15    16   ar
     3    16    17   ar
     4    17    12    1
     5    12     1    1
     6     1     2   ar
     7     2     3   ar
     8     3    28    1
     9    30    28    1
    10    30    31    1
    11    31    32    1
    12    32    33    1
    13    33    34    1
    14    34    35    1
    15    35    36    1
    16     3     4   ar
    17     4     5   ar
    18     5     6   ar
    19     6     7    1
    20     7     8   am
    21     7     9    2
    22    17    18   ar
    23    18    19   ar
    24    19    21    1
    25    21    22    1
    26    22    23    1
    27    23    24    1
    28    23    25    1
    29    23    26    1
    30    19    20   ar
    31    20    15   ar
    32     6     1   ar
    33    35    30    1
    34    12    13    1
    35    28    29    1
    36    36    37    1
    37    36    38    1
    38     8    10    1
    39     8    11    1
    40    26    27    1
