@<TRIPOS>MOLECULE
*****
 33 36 0 0 0
SMALL
GASTEIGER

@<TRIPOS>ATOM
      1 C           6.1449   -2.9424   32.4351 C.ar    1  UNL1        0.0504
      2 C           7.1589   -1.9376   32.8954 C.ar    1  UNL1        0.0160
      3 C           6.7732   -0.8856   33.8926 C.ar    1  UNL1        0.0200
      4 C           5.3734   -0.8385   34.4295 C.ar    1  UNL1        0.1104
      5 C           4.3593   -1.8433   33.9692 C.ar    1  UNL1        0.0200
      6 C           4.7451   -2.8953   32.9720 C.ar    1  UNL1        0.0160
      7 O           6.1495   -2.3014   29.5043 O.2     1  UNL1       -0.2748
      8 C           6.5329   -3.6739   29.9725 C.2     1  UNL1        0.2260
      9 N           6.5306   -3.9945   31.4378 N.am    1  UNL1       -0.2839
     10 H           6.7823   -4.8953   31.7450 H       1  UNL1        0.1549
     11 C           6.9186   -4.7260   28.9752 C.3     1  UNL1        0.0812
     12 C           7.4006   -6.1136   28.6715 C.3     1  UNL1        0.0143
     13 C           7.1047   -5.1606   27.5516 C.3     1  UNL1        0.0330
     14 C           7.0413   -4.8612   26.0832 C.ar    1  UNL1       -0.0029
     15 C           6.4393   -3.5730   25.6057 C.ar    1  UNL1       -0.0011
     16 C           6.3759   -3.2736   24.1373 C.ar    1  UNL1        0.0204
     17 C           6.9145   -4.2625   23.1463 C.ar    1  UNL1        0.0989
     18 N           7.5166   -5.5507   23.6238 N.ar    1  UNL1       -0.2426
     19 C           7.5800   -5.8501   25.0923 C.ar    1  UNL1        0.0946
     20 S           4.9876    0.2136   35.4268 S.O2    1  UNL1        0.0275
     21 O           5.7422   -0.5217   36.4944 O.2     1  UNL1       -0.1642
     22 O           4.2330    0.9489   34.3592 O.2     1  UNL1       -0.1642
     23 C           4.6019    1.2656   36.4240 C.ar    1  UNL1        0.1133
     24 C           5.1798    2.6459   36.3195 C.ar    1  UNL1        0.0190
     25 C           4.7941    3.6979   37.3167 C.ar    1  UNL1        0.0044
     26 C           3.8304    3.3697   38.4184 C.ar    1  UNL1        0.0373
     27 C           3.2525    1.9895   38.5229 C.ar    1  UNL1        0.1481
     28 C           3.6382    0.9374   37.5257 C.ar    1  UNL1        0.0559
     29 O           2.2889    1.6612   39.6245 O.3     1  UNL1       -0.4044
     30 C           0.9073    1.1798   39.2938 C.3     1  UNL1        0.5753
     31 F          -0.4743    0.6983   38.9631 F       1  UNL1       -0.1328
     32 F           0.4998    2.5827   38.9538 F       1  UNL1       -0.1328
     33 F           1.3148   -0.2232   39.6338 F       1  UNL1       -0.1328
@<TRIPOS>BOND
     1     7     8    2
     2     8     9   am
     3     9     1    1
     4     1     2   ar
     5     2     3   ar
     6     3     4   ar
     7     4    20    1
     8    20    21    2
     9    20    22    2
    10    20    23    1
    11    23    24   ar
    12    24    25   ar
    13    25    26   ar
    14    26    27   ar
    15    27    29    1
    16    29    30    1
    17    30    31    1
    18    30    32    1
    19    30    33    1
    20    27    28   ar
    21     4     5   ar
    22     5     6   ar
    23    11     8    1
    24    11    12    1
    25    12    13    1
    26    13    14    1
    27    14    15   ar
    28    15    16   ar
    29    16    17   ar
    30    17    18   ar
    31    18    19   ar
    32     6     1   ar
    33    13    11    1
    34    19    14   ar
    35    28    23   ar
    36     9    10    1
@<TRIPOS>MOLECULE
*****
 33 36 0 0 0
SMALL
GASTEIGER

@<TRIPOS>ATOM
      1 C          -2.0204    3.7755   21.0292 C.ar    1  UNL1        0.0504
      2 C          -1.7069    3.6816   19.5653 C.ar    1  UNL1        0.0160
      3 C          -0.5921    2.7964   19.0924 C.ar    1  UNL1        0.0200
      4 C           0.2092    2.0052   20.0833 C.ar    1  UNL1        0.1104
      5 C          -0.1044    2.0991   21.5471 C.ar    1  UNL1        0.0200
      6 C          -1.2191    2.9842   22.0201 C.ar    1  UNL1        0.0160
      7 O          -4.7581    2.6322   21.4735 O.2     1  UNL1       -0.2748
      8 C          -4.5040    4.0890   21.7244 C.2     1  UNL1        0.2260
      9 N          -3.1352    4.6607   21.5022 N.am    1  UNL1       -0.2839
     10 H          -2.9684    5.6169   21.6668 H       1  UNL1        0.1549
     11 C          -5.6188    4.9743   22.1974 C.3     1  UNL1        0.0812
     12 C          -6.7813    5.8729   21.8955 C.3     1  UNL1        0.0143
     13 C          -6.3873    5.6088   23.3185 C.3     1  UNL1        0.0330
     14 C          -6.6034    5.8226   24.7873 C.ar    1  UNL1       -0.0029
     15 C          -5.4962    5.5362   25.7578 C.ar    1  UNL1       -0.0011
     16 C          -5.7123    5.7501   27.2267 C.ar    1  UNL1        0.0204
     17 C          -7.0358    6.2504   27.7250 C.ar    1  UNL1        0.0989
     18 N          -8.1430    6.5368   26.7545 N.ar    1  UNL1       -0.2426
     19 C          -7.9268    6.3229   25.2856 C.ar    1  UNL1        0.0946
     20 S           1.3240    1.1199   19.6103 S.O2    1  UNL1        0.0275
     21 O           0.6379    0.9637   18.2856 O.2     1  UNL1       -0.1642
     22 O           2.0100    1.2762   20.9350 O.2     1  UNL1       -0.1642
     23 C           2.4388    0.2348   19.1374 C.ar    1  UNL1        0.1133
     24 C           3.3038    0.6661   17.9903 C.ar    1  UNL1        0.0190
     25 C           4.4186   -0.2190   17.5174 C.ar    1  UNL1        0.0044
     26 C           4.6684   -1.5355   18.1914 C.ar    1  UNL1        0.0373
     27 C           3.8034   -1.9669   19.3384 C.ar    1  UNL1        0.1481
     28 C           2.6885   -1.0818   19.8114 C.ar    1  UNL1        0.0559
     29 O           4.0531   -3.2835   20.0125 O.3     1  UNL1       -0.4044
     30 C           4.4224   -4.4861   19.1957 C.3     1  UNL1        0.5753
     31 F           4.7917   -5.6888   18.3789 F       1  UNL1       -0.1328
     32 F           3.0046   -4.5976   18.7188 F       1  UNL1       -0.1328
     33 F           5.8402   -4.3747   19.6725 F       1  UNL1       -0.1328
@<TRIPOS>BOND
     1     7     8    2
     2     8     9   am
     3     9     1    1
     4     1     2   ar
     5     2     3   ar
     6     3     4   ar
     7     4    20    1
     8    20    21    2
     9    20    22    2
    10    20    23    1
    11    23    24   ar
    12    24    25   ar
    13    25    26   ar
    14    26    27   ar
    15    27    29    1
    16    29    30    1
    17    30    31    1
    18    30    32    1
    19    30    33    1
    20    27    28   ar
    21     4     5   ar
    22     5     6   ar
    23    11     8    1
    24    11    12    1
    25    12    13    1
    26    13    14    1
    27    14    15   ar
    28    15    16   ar
    29    16    17   ar
    30    17    18   ar
    31    18    19   ar
    32     6     1   ar
    33    13    11    1
    34    19    14   ar
    35    28    23   ar
    36     9    10    1
@<TRIPOS>MOLECULE
*****
 33 36 0 0 0
SMALL
GASTEIGER

@<TRIPOS>ATOM
      1 C           5.9491   -2.5301   21.4840 C.ar    1  UNL1        0.0504
      2 C           7.0281   -3.5450   21.2483 C.ar    1  UNL1        0.0160
      3 C           7.4726   -4.4405   22.3666 C.ar    1  UNL1        0.0200
      4 C           6.8381   -4.3210   23.7205 C.ar    1  UNL1        0.1104
      5 C           5.7591   -3.3060   23.9562 C.ar    1  UNL1        0.0200
      6 C           5.3146   -2.4106   22.8380 C.ar    1  UNL1        0.0160
      7 O           3.5902   -3.2961   19.7962 O.2     1  UNL1       -0.2748
      8 C           4.3251   -2.0176   19.5219 C.2     1  UNL1        0.2260
      9 N           5.5045   -1.6345   20.3658 N.am    1  UNL1       -0.2839
     10 H           5.9868   -0.7954   20.1857 H       1  UNL1        0.1549
     11 C           3.8805   -1.1220   18.4036 C.3     1  UNL1        0.0812
     12 C           3.7938   -0.8209   16.9367 C.3     1  UNL1        0.0143
     13 C           3.1972    0.1278   17.9336 C.3     1  UNL1        0.0330
     14 C           2.4582    1.3972   18.2379 C.ar    1  UNL1       -0.0029
     15 C           0.9700    1.3725   18.4238 C.ar    1  UNL1       -0.0011
     16 C           0.2310    2.6418   18.7280 C.ar    1  UNL1        0.0204
     17 C           0.9802    3.9360   18.8464 C.ar    1  UNL1        0.0989
     18 N           2.4684    3.9607   18.6605 N.ar    1  UNL1       -0.2426
     19 C           3.2074    2.6912   18.3562 C.ar    1  UNL1        0.0946
     20 S           7.2827   -5.2165   24.8388 S.O2    1  UNL1        0.0275
     21 O           7.7505   -6.2324   23.8393 O.2     1  UNL1       -0.1642
     22 O           6.8148   -4.2006   25.8383 O.2     1  UNL1       -0.1642
     23 C           7.7272   -6.1120   25.9570 C.ar    1  UNL1        0.1133
     24 C           7.8750   -7.5864   25.7237 C.ar    1  UNL1        0.0190
     25 C           8.3195   -8.4818   26.8419 C.ar    1  UNL1        0.0044
     26 C           8.6163   -7.9030   28.1935 C.ar    1  UNL1        0.0373
     27 C           8.4685   -6.4287   28.4269 C.ar    1  UNL1        0.1481
     28 C           8.0240   -5.5331   27.3086 C.ar    1  UNL1        0.0559
     29 O           8.7653   -5.8498   29.7785 O.3     1  UNL1       -0.4044
     30 C           7.8039   -6.0577   30.9110 C.3     1  UNL1        0.5753
     31 F           6.8426   -6.2656   32.0434 F       1  UNL1       -0.1328
     32 F           8.7823   -6.9829   31.5717 F       1  UNL1       -0.1328
     33 F           6.8255   -5.1325   30.2502 F       1  UNL1       -0.1328
@<TRIPOS>BOND
     1     7     8    2
     2     8     9   am
     3     9     1    1
     4     1     2   ar
     5     2     3   ar
     6     3     4   ar
     7     4    20    1
     8    20    21    2
     9    20    22    2
    10    20    23    1
    11    23    24   ar
    12    24    25   ar
    13    25    26   ar
    14    26    27   ar
    15    27    29    1
    16    29    30    1
    17    30    31    1
    18    30    32    1
    19    30    33    1
    20    27    28   ar
    21     4     5   ar
    22     5     6   ar
    23    11     8    1
    24    11    12    1
    25    12    13    1
    26    13    14    1
    27    14    15   ar
    28    15    16   ar
    29    16    17   ar
    30    17    18   ar
    31    18    19   ar
    32     6     1   ar
    33    13    11    1
    34    19    14   ar
    35    28    23   ar
    36     9    10    1
@<TRIPOS>MOLECULE
*****
 33 36 0 0 0
SMALL
GASTEIGER

@<TRIPOS>ATOM
      1 C           0.8818    1.5619   30.1504 C.ar    1  UNL1        0.0504
      2 C           2.0354    0.6342   30.3923 C.ar    1  UNL1        0.0160
      3 C           2.7710    0.6769   31.6988 C.ar    1  UNL1        0.0200
      4 C           2.3530    1.6474   32.7634 C.ar    1  UNL1        0.1104
      5 C           1.1994    2.5751   32.5216 C.ar    1  UNL1        0.0200
      6 C           0.4638    2.5323   31.2151 C.ar    1  UNL1        0.0160
      7 O           1.6247    3.4585   27.9479 O.2     1  UNL1       -0.2748
      8 C           0.5176    2.4674   27.7426 C.2     1  UNL1        0.2260
      9 N           0.1462    1.5191   28.8438 N.am    1  UNL1       -0.2839
     10 H          -0.5805    0.8686   28.7091 H       1  UNL1        0.1549
     11 C          -0.2180    2.4246   26.4360 C.3     1  UNL1        0.0812
     12 C          -0.2930    1.9947   25.0010 C.3     1  UNL1        0.0143
     13 C          -1.4172    2.7805   25.6082 C.3     1  UNL1        0.0330
     14 C          -2.7585    3.4397   25.4808 C.ar    1  UNL1       -0.0029
     15 C          -3.4808    3.9136   26.7070 C.ar    1  UNL1       -0.0011
     16 C          -4.8222    4.5728   26.5796 C.ar    1  UNL1        0.0204
     17 C          -5.4412    4.7581   25.2259 C.ar    1  UNL1        0.0989
     18 N          -4.7189    4.2842   23.9997 N.ar    1  UNL1       -0.2426
     19 C          -3.3775    3.6250   24.1271 C.ar    1  UNL1        0.0946
     20 S           3.0887    1.6902   34.0700 S.O2    1  UNL1        0.0275
     21 O           4.2506    0.9820   33.4390 O.2     1  UNL1       -0.1642
     22 O           1.9267    2.3983   34.7010 O.2     1  UNL1       -0.1642
     23 C           3.8242    1.7329   35.3765 C.ar    1  UNL1        0.1133
     24 C           5.3109    1.9319   35.3941 C.ar    1  UNL1        0.0190
     25 C           6.0465    1.9747   36.7006 C.ar    1  UNL1        0.0044
     26 C           5.2955    1.8185   37.9896 C.ar    1  UNL1        0.0373
     27 C           3.8089    1.6195   37.9721 C.ar    1  UNL1        0.1481
     28 C           3.0732    1.5768   36.6656 C.ar    1  UNL1        0.0559
     29 O           3.0578    1.4634   39.2611 O.3     1  UNL1       -0.4044
     30 C           1.5584    1.4239   39.2555 C.3     1  UNL1        0.5753
     31 F           0.0590    1.3844   39.2498 F       1  UNL1       -0.1328
     32 F           1.5188    2.9224   39.3075 F       1  UNL1       -0.1328
     33 F           1.5980   -0.0746   39.2035 F       1  UNL1       -0.1328
@<TRIPOS>BOND
     1     7     8    2
     2     8     9   am
     3     9     1    1
     4     1     2   ar
     5     2     3   ar
     6     3     4   ar
     7     4    20    1
     8    20    21    2
     9    20    22    2
    10    20    23    1
    11    23    24   ar
    12    24    25   ar
    13    25    26   ar
    14    26    27   ar
    15    27    29    1
    16    29    30    1
    17    30    31    1
    18    30    32    1
    19    30    33    1
    20    27    28   ar
    21     4     5   ar
    22     5     6   ar
    23    11     8    1
    24    11    12    1
    25    12    13    1
    26    13    14    1
    27    14    15   ar
    28    15    16   ar
    29    16    17   ar
    30    17    18   ar
    31    18    19   ar
    32     6     1   ar
    33    13    11    1
    34    19    14   ar
    35    28    23   ar
    36     9    10    1
@<TRIPOS>MOLECULE
*****
 33 36 0 0 0
SMALL
GASTEIGER

@<TRIPOS>ATOM
      1 C           6.5257   -2.2739   32.0008 C.ar    1  UNL1        0.0504
      2 C           6.5768   -1.6856   30.6220 C.ar    1  UNL1        0.0160
      3 C           6.8271   -2.5713   29.4376 C.ar    1  UNL1        0.0200
      4 C           7.0262   -4.0453   29.6320 C.ar    1  UNL1        0.1104
      5 C           6.9750   -4.6336   31.0108 C.ar    1  UNL1        0.0200
      6 C           6.7248   -3.7479   32.1953 C.ar    1  UNL1        0.0160
      7 O           3.8244   -2.2412   33.3053 O.2     1  UNL1       -0.2748
      8 C           4.9248   -1.3719   33.8376 C.2     1  UNL1        0.2260
      9 N           6.2755   -1.3882   33.1853 N.am    1  UNL1       -0.2839
     10 H           6.9977   -0.8176   33.5347 H       1  UNL1        0.1549
     11 C           4.6746   -0.4862   35.0221 C.3     1  UNL1        0.0812
     12 C           4.8785   -0.1706   36.4742 C.3     1  UNL1        0.0143
     13 C           4.0373    0.7323   35.6215 C.3     1  UNL1        0.0330
     14 C           3.1838    1.9570   35.4752 C.ar    1  UNL1       -0.0029
     15 C           2.8560    2.7909   36.6782 C.ar    1  UNL1       -0.0011
     16 C           2.0024    4.0156   36.5319 C.ar    1  UNL1        0.0204
     17 C           1.4766    4.4065   35.1825 C.ar    1  UNL1        0.0989
     18 N           1.8043    3.5726   33.9795 N.ar    1  UNL1       -0.2426
     19 C           2.6579    2.3479   34.1259 C.ar    1  UNL1        0.0946
     20 S           7.2764   -4.9310   28.4475 S.O2    1  UNL1        0.0275
     21 O           7.4400   -6.1083   29.3623 O.2     1  UNL1       -0.1642
     22 O           7.1127   -3.7536   27.5326 O.2     1  UNL1       -0.1642
     23 C           7.5266   -5.8166   27.2630 C.ar    1  UNL1        0.1133
     24 C           7.9091   -7.2526   27.4676 C.ar    1  UNL1        0.0190
     25 C           8.1593   -8.1382   26.2832 C.ar    1  UNL1        0.0044
     26 C           8.0271   -7.5879   24.8940 C.ar    1  UNL1        0.0373
     27 C           7.6446   -6.1520   24.6893 C.ar    1  UNL1        0.1481
     28 C           7.3944   -5.2663   25.8739 C.ar    1  UNL1        0.0559
     29 O           7.5123   -5.6018   23.3002 O.3     1  UNL1       -0.4044
     30 C           7.3932   -4.1217   23.0880 C.3     1  UNL1        0.5753
     31 F           7.2741   -2.6416   22.8757 F       1  UNL1       -0.1328
     32 F           5.8997   -4.2497   23.0337 F       1  UNL1       -0.1328
     33 F           8.8867   -3.9937   23.1422 F       1  UNL1       -0.1328
@<TRIPOS>BOND
     1     7     8    2
     2     8     9   am
     3     9     1    1
     4     1     2   ar
     5     2     3   ar
     6     3     4   ar
     7     4    20    1
     8    20    21    2
     9    20    22    2
    10    20    23    1
    11    23    24   ar
    12    24    25   ar
    13    25    26   ar
    14    26    27   ar
    15    27    29    1
    16    29    30    1
    17    30    31    1
    18    30    32    1
    19    30    33    1
    20    27    28   ar
    21     4     5   ar
    22     5     6   ar
    23    11     8    1
    24    11    12    1
    25    12    13    1
    26    13    14    1
    27    14    15   ar
    28    15    16   ar
    29    16    17   ar
    30    17    18   ar
    31    18    19   ar
    32     6     1   ar
    33    13    11    1
    34    19    14   ar
    35    28    23   ar
    36     9    10    1
@<TRIPOS>MOLECULE
*****
 33 36 0 0 0
SMALL
GASTEIGER

@<TRIPOS>ATOM
      1 C           3.9406   -2.0269   20.7999 C.ar    1  UNL1        0.0504
      2 C           3.1916   -1.3133   21.8860 C.ar    1  UNL1        0.0160
      3 C           2.2075   -0.2368   21.5359 C.ar    1  UNL1        0.0200
      4 C           1.9726    0.1263   20.0996 C.ar    1  UNL1        0.1104
      5 C           2.7216   -0.5872   19.0134 C.ar    1  UNL1        0.0200
      6 C           3.7056   -1.6638   19.3635 C.ar    1  UNL1        0.0160
      7 O           6.7720   -1.3071   21.4820 O.2     1  UNL1       -0.2748
      8 C           6.3403   -2.7436   21.4910 C.2     1  UNL1        0.2260
      9 N           4.9247   -3.1035   21.1500 N.am    1  UNL1       -0.2839
     10 H           4.6414   -4.0463   21.1559 H       1  UNL1        0.1549
     11 C           7.3244   -3.8203   21.8411 C.3     1  UNL1        0.0812
     12 C           8.5408   -4.6291   21.5004 C.3     1  UNL1        0.0143
     13 C           7.8124   -4.8762   22.7882 C.3     1  UNL1        0.0330
     14 C           7.6736   -5.6285   24.0784 C.ar    1  UNL1       -0.0029
     15 C           8.2145   -7.0226   24.1957 C.ar    1  UNL1       -0.0011
     16 C           8.0756   -7.7749   25.4859 C.ar    1  UNL1        0.0204
     17 C           7.3958   -7.1330   26.6590 C.ar    1  UNL1        0.0989
     18 N           6.8549   -5.7389   26.5417 N.ar    1  UNL1       -0.2426
     19 C           6.9938   -4.9866   25.2514 C.ar    1  UNL1        0.0946
     20 S           0.9885    1.2029   19.7495 S.O2    1  UNL1        0.0275
     21 O           2.0172    1.8598   18.8777 O.2     1  UNL1       -0.1642
     22 O          -0.0403    0.5461   20.6213 O.2     1  UNL1       -0.1642
     23 C           0.0044    2.2795   19.3994 C.ar    1  UNL1        0.1133
     24 C           0.0046    2.8773   18.0236 C.ar    1  UNL1        0.0190
     25 C          -0.9795    3.9539   17.6736 C.ar    1  UNL1        0.0044
     26 C          -1.9637    4.4327   18.6992 C.ar    1  UNL1        0.0373
     27 C          -1.9639    3.8350   20.0750 C.ar    1  UNL1        0.1481
     28 C          -0.9798    2.7584   20.4251 C.ar    1  UNL1        0.0559
     29 O          -2.9481    4.3138   21.1006 O.3     1  UNL1       -0.4044
     30 C          -3.9281    3.3529   21.7058 C.3     1  UNL1        0.5753
     31 F          -4.9080    2.3919   22.3109 F       1  UNL1       -0.1328
     32 F          -3.3493    3.6180   23.0640 F       1  UNL1       -0.1328
     33 F          -4.5068    3.0877   20.3476 F       1  UNL1       -0.1328
@<TRIPOS>BOND
     1     7     8    2
     2     8     9   am
     3     9     1    1
     4     1     2   ar
     5     2     3   ar
     6     3     4   ar
     7     4    20    1
     8    20    21    2
     9    20    22    2
    10    20    23    1
    11    23    24   ar
    12    24    25   ar
    13    25    26   ar
    14    26    27   ar
    15    27    29    1
    16    29    30    1
    17    30    31    1
    18    30    32    1
    19    30    33    1
    20    27    28   ar
    21     4     5   ar
    22     5     6   ar
    23    11     8    1
    24    11    12    1
    25    12    13    1
    26    13    14    1
    27    14    15   ar
    28    15    16   ar
    29    16    17   ar
    30    17    18   ar
    31    18    19   ar
    32     6     1   ar
    33    13    11    1
    34    19    14   ar
    35    28    23   ar
    36     9    10    1
@<TRIPOS>MOLECULE
*****
 33 36 0 0 0
SMALL
GASTEIGER

@<TRIPOS>ATOM
      1 C          -0.6035    2.8262   20.9780 C.ar    1  UNL1        0.0504
      2 C          -1.9052    3.1221   20.2940 C.ar    1  UNL1        0.0160
      3 C          -3.0713    3.6306   21.0886 C.ar    1  UNL1        0.0200
      4 C          -2.9357    3.8433   22.5672 C.ar    1  UNL1        0.1104
      5 C          -1.6340    3.5475   23.2512 C.ar    1  UNL1        0.0200
      6 C          -0.4679    3.0389   22.4566 C.ar    1  UNL1        0.0160
      7 O          -0.2176   -0.1249   20.6014 O.2     1  UNL1       -0.2748
      8 C           0.7557    0.8421   19.9950 C.2     1  UNL1        0.2260
      9 N           0.5627    2.3176   20.1833 N.am    1  UNL1       -0.2839
     10 H           1.2015    2.9523   19.7854 H       1  UNL1        0.1549
     11 C           1.9219    0.3335   19.2004 C.3     1  UNL1        0.0812
     12 C           2.7731    0.3822   17.9663 C.3     1  UNL1        0.0143
     13 C           3.0905   -0.5960   19.0582 C.3     1  UNL1        0.0330
     14 C           3.9485   -1.6974   19.6065 C.ar    1  UNL1       -0.0029
     15 C           3.5200   -3.1271   19.4571 C.ar    1  UNL1       -0.0011
     16 C           4.3779   -4.2285   20.0054 C.ar    1  UNL1        0.0204
     17 C           5.6646   -3.9003   20.7032 C.ar    1  UNL1        0.0989
     18 N           6.0931   -2.4706   20.8527 N.ar    1  UNL1       -0.2426
     19 C           5.2351   -1.3691   20.3043 C.ar    1  UNL1        0.0946
     20 S          -4.1019    4.3519   23.3619 S.O2    1  UNL1        0.0275
     21 O          -3.5990    5.7559   23.2014 O.2     1  UNL1       -0.1642
     22 O          -4.6048    2.9479   23.5223 O.2     1  UNL1       -0.1642
     23 C          -5.2681    4.8604   24.1565 C.ar    1  UNL1        0.1133
     24 C          -5.0523    5.4181   25.5322 C.ar    1  UNL1        0.0190
     25 C          -6.2184    5.9266   26.3268 C.ar    1  UNL1        0.0044
     26 C          -7.6005    5.8775   25.7457 C.ar    1  UNL1        0.0373
     27 C          -7.8163    5.3199   24.3701 C.ar    1  UNL1        0.1481
     28 C          -6.6501    4.8113   23.5754 C.ar    1  UNL1        0.0559
     29 O          -9.1983    5.2708   23.7890 O.3     1  UNL1       -0.4044
     30 C         -10.3291    4.6979   24.5909 C.3     1  UNL1        0.5753
     31 F         -11.4599    4.1251   25.3928 F       1  UNL1       -0.1328
     32 F          -9.8925    3.3125   24.2169 F       1  UNL1       -0.1328
     33 F         -10.7658    6.0833   24.9649 F       1  UNL1       -0.1328
@<TRIPOS>BOND
     1     7     8    2
     2     8     9   am
     3     9     1    1
     4     1     2   ar
     5     2     3   ar
     6     3     4   ar
     7     4    20    1
     8    20    21    2
     9    20    22    2
    10    20    23    1
    11    23    24   ar
    12    24    25   ar
    13    25    26   ar
    14    26    27   ar
    15    27    29    1
    16    29    30    1
    17    30    31    1
    18    30    32    1
    19    30    33    1
    20    27    28   ar
    21     4     5   ar
    22     5     6   ar
    23    11     8    1
    24    11    12    1
    25    12    13    1
    26    13    14    1
    27    14    15   ar
    28    15    16   ar
    29    16    17   ar
    30    17    18   ar
    31    18    19   ar
    32     6     1   ar
    33    13    11    1
    34    19    14   ar
    35    28    23   ar
    36     9    10    1
@<TRIPOS>MOLECULE
*****
 33 36 0 0 0
SMALL
GASTEIGER

@<TRIPOS>ATOM
      1 C           2.7703    1.4044   28.2254 C.ar    1  UNL1        0.0504
      2 C           1.6719    1.7015   27.2480 C.ar    1  UNL1        0.0160
      3 C           1.7298    1.1356   25.8600 C.ar    1  UNL1        0.0200
      4 C           2.8860    0.2727   25.4495 C.ar    1  UNL1        0.1104
      5 C           3.9844   -0.0244   26.4269 C.ar    1  UNL1        0.0200
      6 C           3.9265    0.5414   27.8149 C.ar    1  UNL1        0.0160
      7 O           1.6151   -0.2261   30.4631 O.2     1  UNL1       -0.2748
      8 C           2.1348    1.1550   30.7322 C.2     1  UNL1        0.2260
      9 N           2.7124    1.9702   29.6134 N.am    1  UNL1       -0.2839
     10 H           3.0535    2.8767   29.7901 H       1  UNL1        0.1549
     11 C           2.0770    1.7208   32.1203 C.3     1  UNL1        0.0812
     12 C           1.4819    2.6797   33.1084 C.3     1  UNL1        0.0143
     13 C           2.5718    1.7421   33.5361 C.3     1  UNL1        0.0330
     14 C           3.4868    1.2130   34.6005 C.ar    1  UNL1       -0.0029
     15 C           4.3951    0.0572   34.3021 C.ar    1  UNL1       -0.0011
     16 C           5.3101   -0.4719   35.3664 C.ar    1  UNL1        0.0204
     17 C           5.3168    0.1549   36.7292 C.ar    1  UNL1        0.0989
     18 N           4.4085    1.3107   37.0276 N.ar    1  UNL1       -0.2426
     19 C           3.4935    1.8398   35.9632 C.ar    1  UNL1        0.0946
     20 S           2.9439   -0.2931   24.0615 S.O2    1  UNL1        0.0275
     21 O           3.9809   -1.2809   24.5073 O.2     1  UNL1       -0.1642
     22 O           1.9069    0.6946   23.6156 O.2     1  UNL1       -0.1642
     23 C           3.0017   -0.8589   22.6735 C.ar    1  UNL1        0.1133
     24 C           2.1437   -0.2764   21.5898 C.ar    1  UNL1        0.0190
     25 C           2.2015   -0.8422   20.2018 C.ar    1  UNL1        0.0044
     26 C           3.1173   -1.9905   19.8975 C.ar    1  UNL1        0.0373
     27 C           3.9753   -2.5730   20.9812 C.ar    1  UNL1        0.1481
     28 C           3.9175   -2.0073   22.3692 C.ar    1  UNL1        0.0559
     29 O           4.8911   -3.7214   20.6769 O.3     1  UNL1       -0.4044
     30 C           4.7384   -4.4829   19.3937 C.3     1  UNL1        0.5753
     31 F           4.5856   -5.2443   18.1104 F       1  UNL1       -0.1328
     32 F           3.6553   -5.3136   20.0155 F       1  UNL1       -0.1328
     33 F           5.8215   -3.6521   18.7718 F       1  UNL1       -0.1328
@<TRIPOS>BOND
     1     7     8    2
     2     8     9   am
     3     9     1    1
     4     1     2   ar
     5     2     3   ar
     6     3     4   ar
     7     4    20    1
     8    20    21    2
     9    20    22    2
    10    20    23    1
    11    23    24   ar
    12    24    25   ar
    13    25    26   ar
    14    26    27   ar
    15    27    29    1
    16    29    30    1
    17    30    31    1
    18    30    32    1
    19    30    33    1
    20    27    28   ar
    21     4     5   ar
    22     5     6   ar
    23    11     8    1
    24    11    12    1
    25    12    13    1
    26    13    14    1
    27    14    15   ar
    28    15    16   ar
    29    16    17   ar
    30    17    18   ar
    31    18    19   ar
    32     6     1   ar
    33    13    11    1
    34    19    14   ar
    35    28    23   ar
    36     9    10    1
@<TRIPOS>MOLECULE
*****
 33 36 0 0 0
SMALL
GASTEIGER

@<TRIPOS>ATOM
      1 C           2.5467   -0.0477   28.6867 C.ar    1  UNL1        0.0504
      2 C           1.7224    0.8721   29.5377 C.ar    1  UNL1        0.0160
      3 C           2.0592    1.0552   30.9878 C.ar    1  UNL1        0.0200
      4 C           3.2203    0.3185   31.5870 C.ar    1  UNL1        0.1104
      5 C           4.0447   -0.6014   30.7359 C.ar    1  UNL1        0.0200
      6 C           3.7079   -0.7844   29.2858 C.ar    1  UNL1        0.0160
      7 O           4.0993    1.4304   26.5879 O.2     1  UNL1       -0.2748
      8 C           2.9862    0.5082   26.1871 C.2     1  UNL1        0.2260
      9 N           2.2100   -0.2308   27.2364 N.am    1  UNL1       -0.2839
     10 H           1.4794   -0.8361   26.9733 H       1  UNL1        0.1549
     11 C           2.6495    0.3251   24.7368 C.3     1  UNL1        0.0812
     12 C           1.8774    0.7411   23.5199 C.3     1  UNL1        0.0143
     13 C           2.8382   -0.4081   23.4419 C.3     1  UNL1        0.0330
     14 C           3.5018   -1.4950   22.6493 C.ar    1  UNL1       -0.0029
     15 C           3.3093   -1.5639   21.1633 C.ar    1  UNL1       -0.0011
     16 C           3.9729   -2.6508   20.3707 C.ar    1  UNL1        0.0204
     17 C           4.8292   -3.6687   21.0640 C.ar    1  UNL1        0.0989
     18 N           5.0218   -3.5997   22.5500 N.ar    1  UNL1       -0.2426
     19 C           4.3581   -2.5128   23.3426 C.ar    1  UNL1        0.0946
     20 S           3.5571    0.5016   33.0372 S.O2    1  UNL1        0.0275
     21 O           3.6486   -0.9863   33.2039 O.2     1  UNL1       -0.1642
     22 O           3.4656    1.9895   32.8705 O.2     1  UNL1       -0.1642
     23 C           3.8939    0.6848   34.4874 C.ar    1  UNL1        0.1133
     24 C           4.8035   -0.2899   35.1750 C.ar    1  UNL1        0.0190
     25 C           5.1402   -0.1067   36.6252 C.ar    1  UNL1        0.0044
     26 C           4.5674    1.0511   37.3877 C.ar    1  UNL1        0.0373
     27 C           3.6579    2.0257   36.7001 C.ar    1  UNL1        0.1481
     28 C           3.3211    1.8426   35.2499 C.ar    1  UNL1        0.0559
     29 O           3.0851    3.1835   37.4627 O.3     1  UNL1       -0.4044
     30 C           1.7063    3.0891   38.0456 C.3     1  UNL1        0.5753
     31 F           0.3275    2.9947   38.6286 F       1  UNL1       -0.1328
     32 F           2.2294    2.2065   39.1399 F       1  UNL1       -0.1328
     33 F           1.1833    3.9717   36.9514 F       1  UNL1       -0.1328
@<TRIPOS>BOND
     1     7     8    2
     2     8     9   am
     3     9     1    1
     4     1     2   ar
     5     2     3   ar
     6     3     4   ar
     7     4    20    1
     8    20    21    2
     9    20    22    2
    10    20    23    1
    11    23    24   ar
    12    24    25   ar
    13    25    26   ar
    14    26    27   ar
    15    27    29    1
    16    29    30    1
    17    30    31    1
    18    30    32    1
    19    30    33    1
    20    27    28   ar
    21     4     5   ar
    22     5     6   ar
    23    11     8    1
    24    11    12    1
    25    12    13    1
    26    13    14    1
    27    14    15   ar
    28    15    16   ar
    29    16    17   ar
    30    17    18   ar
    31    18    19   ar
    32     6     1   ar
    33    13    11    1
    34    19    14   ar
    35    28    23   ar
    36     9    10    1
