@<TRIPOS>MOLECULE
*****
 39 42 0 0 0
SMALL
GASTEIGER

@<TRIPOS>ATOM
      1 N           6.5209   -3.8079   26.8100 N.3     1  UNL1       -0.2711
      2 C           6.7247   -4.8987   25.8008 C.3     1  UNL1        0.0933
      3 C           6.5192   -3.9106   24.6912 C.3     1  UNL1        0.1035
      4 C           6.3154   -2.8198   25.7004 C.3     1  UNL1        0.0933
      5 C           6.5242   -3.5898   31.3047 C.3     1  UNL1        0.1232
      6 O           6.8391   -4.4446   32.4964 O.3     1  UNL1       -0.3812
      7 C           6.1006   -2.3994   30.4964 C.3     1  UNL1        0.0341
      8 C           6.0994   -2.4720   28.9982 C.3     1  UNL1        0.0188
      9 C           6.5220   -3.7352   28.3082 C.3     1  UNL1        0.0578
     10 C           6.9457   -4.9256   29.1165 C.3     1  UNL1        0.0188
     11 C           6.9468   -4.8529   30.6147 C.3     1  UNL1        0.0341
     12 H           6.6793   -3.9388   33.3085 H       1  UNL1        0.2107
     13 C           6.9634   -0.7354   34.0268 C.ar    1  UNL1        0.2247
     14 C           5.5848   -0.6911   34.6160 C.ar    1  UNL1        0.0577
     15 C           4.5193   -1.6130   34.1015 C.ar    1  UNL1        0.0061
     16 C           4.8324   -2.5792   32.9978 C.ar    1  UNL1        0.0173
     17 C           6.2110   -2.6235   32.4085 C.ar    1  UNL1        0.0861
     18 N           7.2766   -1.7016   32.9230 N.ar    1  UNL1       -0.2137
     19 C           8.1505    0.4446   36.0139 C.3     1  UNL1        0.2542
     20 O           8.0290    0.1865   34.5412 O.3     1  UNL1       -0.4561
     21 N           6.5181   -3.9833   23.1929 N.am    1  UNL1       -0.3018
     22 C           7.8109   -3.8988   22.4370 C.2     1  UNL1        0.2426
     23 O           9.1049   -3.7417   23.1791 O.2     1  UNL1       -0.2733
     24 H           5.6688   -4.0864   22.7057 H       1  UNL1        0.1495
     25 C           7.8097   -3.9715   20.9386 C.3     1  UNL1        0.1759
     26 N           7.0023   -2.9910   20.1409 N.am    1  UNL1       -0.2931
     27 C           5.5172   -3.1645   20.0207 C.2     1  UNL1        0.2462
     28 O           4.8396   -4.3185   20.6983 O.2     1  UNL1       -0.2701
     29 H           7.4470   -2.2336   19.6961 H       1  UNL1        0.1502
     30 C           4.7097   -2.1840   19.2229 C.ar    1  UNL1        0.0533
     31 C           5.2089   -1.7098   17.8902 C.ar    1  UNL1        0.0045
     32 C           4.4014   -0.7293   17.0924 C.ar    1  UNL1        0.0001
     33 C           3.0947   -0.2229   17.6273 C.ar    1  UNL1        0.0039
     34 C           2.5955   -0.6970   18.9600 C.ar    1  UNL1        0.0716
     35 C           3.4030   -1.6775   19.7577 C.ar    1  UNL1        0.0084
     36 C           1.2888   -0.1906   19.4948 C.3     1  UNL1        0.4186
     37 F          -0.0179    0.3159   20.0297 F       1  UNL1       -0.1659
     38 F           1.5546   -0.8820   20.7991 F       1  UNL1       -0.1659
     39 F           1.0229    0.5009   18.1905 F       1  UNL1       -0.1659
@<TRIPOS>BOND
     1    19    20    1
     2    20    13    1
     3    13    14   ar
     4    14    15   ar
     5    15    16   ar
     6    16    17   ar
     7    17     5    1
     8     5     6    1
     9     5     7    1
    10     7     8    1
    11     8     9    1
    12     9     1    1
    13     1     2    1
    14     2     3    1
    15     3    21    1
    16    21    22   am
    17    22    23    2
    18    22    25    1
    19    25    26    1
    20    26    27   am
    21    27    28    2
    22    27    30    1
    23    30    31   ar
    24    31    32   ar
    25    32    33   ar
    26    33    34   ar
    27    34    36    1
    28    36    37    1
    29    36    38    1
    30    36    39    1
    31    34    35   ar
    32     3     4    1
    33     9    10    1
    34    10    11    1
    35    17    18   ar
    36    18    13   ar
    37    11     5    1
    38     4     1    1
    39    35    30   ar
    40     6    12    1
    41    21    24    1
    42    26    29    1
@<TRIPOS>MOLECULE
*****
 39 42 0 0 0
SMALL
GASTEIGER

@<TRIPOS>ATOM
      1 N           1.3134    1.3422   29.2167 N.3     1  UNL1       -0.2711
      2 C           0.7484    2.2360   28.1528 C.3     1  UNL1        0.0933
      3 C           0.7252    1.0817   27.1953 C.3     1  UNL1        0.1035
      4 C           1.2901    0.1879   28.2593 C.3     1  UNL1        0.0933
      5 C           2.5610    1.8951   33.5048 C.3     1  UNL1        0.1232
      6 O           3.5176    1.3192   34.5066 O.3     1  UNL1       -0.3812
      7 C           1.4936    2.7689   32.9157 C.3     1  UNL1        0.0341
      8 C           1.0777    2.5846   31.4863 C.3     1  UNL1        0.0188
      9 C           1.7293    1.5265   30.6461 C.3     1  UNL1        0.0578
     10 C           2.7966    0.6527   31.2352 C.3     1  UNL1        0.0188
     11 C           3.2126    0.8369   32.6645 C.3     1  UNL1        0.0341
     12 H           3.4232    1.7883   35.3504 H       1  UNL1        0.2107
     13 C           2.0811    3.0614   37.2677 C.ar    1  UNL1        0.2247
     14 C           1.6032    4.4693   37.0693 C.ar    1  UNL1        0.0577
     15 C           1.4444    5.0191   35.6828 C.ar    1  UNL1        0.0061
     16 C           1.7637    4.1610   34.4946 C.ar    1  UNL1        0.0173
     17 C           2.2417    2.7532   34.6930 C.ar    1  UNL1        0.0861
     18 N           2.4004    2.2034   36.0795 N.ar    1  UNL1       -0.2137
     19 C           2.5417    1.0559   38.8538 C.3     1  UNL1        0.2542
     20 O           2.2399    2.5116   38.6542 O.3     1  UNL1       -0.4561
     21 N           0.3092    0.8974   25.7659 N.am    1  UNL1       -0.3018
     22 C           1.2707    1.2124   24.6585 C.2     1  UNL1        0.2426
     23 O           2.6480    1.7116   24.9804 O.2     1  UNL1       -0.2733
     24 H          -0.5948    0.5698   25.5547 H       1  UNL1        0.1495
     25 C           0.8547    1.0281   23.2291 C.3     1  UNL1        0.1759
     26 N           1.8447    0.5303   22.2182 N.am    1  UNL1       -0.2931
     27 C           1.3679    0.0113   20.8941 C.2     1  UNL1        0.2462
     28 O          -0.0990   -0.0099   20.5809 O.2     1  UNL1       -0.2701
     29 H           2.8074    0.5442   22.4237 H       1  UNL1        0.1502
     30 C           2.3578   -0.4866   19.8831 C.ar    1  UNL1        0.0533
     31 C           2.8974    0.4460   18.8394 C.ar    1  UNL1        0.0045
     32 C           3.8874   -0.0519   17.8285 C.ar    1  UNL1        0.0001
     33 C           4.3378   -1.4823   17.8612 C.ar    1  UNL1        0.0039
     34 C           3.7983   -2.4149   18.9049 C.ar    1  UNL1        0.0716
     35 C           2.8083   -1.9169   19.9158 C.ar    1  UNL1        0.0084
     36 C           4.2487   -3.8453   18.9376 C.3     1  UNL1        0.4186
     37 F           4.6992   -5.2756   18.9702 F       1  UNL1       -0.1659
     38 F           5.6733   -3.4000   18.7881 F       1  UNL1       -0.1659
     39 F           2.8241   -4.2905   19.0870 F       1  UNL1       -0.1659
@<TRIPOS>BOND
     1    19    20    1
     2    20    13    1
     3    13    14   ar
     4    14    15   ar
     5    15    16   ar
     6    16    17   ar
     7    17     5    1
     8     5     6    1
     9     5     7    1
    10     7     8    1
    11     8     9    1
    12     9     1    1
    13     1     2    1
    14     2     3    1
    15     3    21    1
    16    21    22   am
    17    22    23    2
    18    22    25    1
    19    25    26    1
    20    26    27   am
    21    27    28    2
    22    27    30    1
    23    30    31   ar
    24    31    32   ar
    25    32    33   ar
    26    33    34   ar
    27    34    36    1
    28    36    37    1
    29    36    38    1
    30    36    39    1
    31    34    35   ar
    32     3     4    1
    33     9    10    1
    34    10    11    1
    35    17    18   ar
    36    18    13   ar
    37    11     5    1
    38     4     1    1
    39    35    30   ar
    40     6    12    1
    41    21    24    1
    42    26    29    1
@<TRIPOS>MOLECULE
*****
 39 42 0 0 0
SMALL
GASTEIGER

@<TRIPOS>ATOM
      1 N           1.2916    1.2827   29.2187 N.3     1  UNL1       -0.2711
      2 C           1.0797    0.1402   28.2702 C.3     1  UNL1        0.0933
      3 C           0.7084    1.1085   27.1866 C.3     1  UNL1        0.1035
      4 C           0.9203    2.2511   28.1351 C.3     1  UNL1        0.0933
      5 C           2.5289    1.6523   33.5294 C.3     1  UNL1        0.1232
      6 O           2.1886    2.4414   34.7590 O.3     1  UNL1       -0.3812
      7 C           3.2067    0.6548   32.6375 C.3     1  UNL1        0.0341
      8 C           2.7943    0.5316   31.2006 C.3     1  UNL1        0.0188
      9 C           1.7040    1.4060   30.6556 C.3     1  UNL1        0.0578
     10 C           1.0262    2.4034   31.5475 C.3     1  UNL1        0.0188
     11 C           1.4386    2.5266   32.9845 C.3     1  UNL1        0.0341
     12 H           2.7537    2.1550   35.4936 H       1  UNL1        0.2107
     13 C           4.5466    0.9720   36.8785 C.ar    1  UNL1        0.2247
     14 C           5.4450   -0.1484   36.4455 C.ar    1  UNL1        0.0577
     15 C           5.3714   -0.6686   35.0405 C.ar    1  UNL1        0.0061
     16 C           4.3993   -0.0684   34.0685 C.ar    1  UNL1        0.0173
     17 C           3.5010    1.0520   34.5015 C.ar    1  UNL1        0.0861
     18 N           3.5746    1.5722   35.9064 N.ar    1  UNL1       -0.2137
     19 C           4.4720    2.9612   38.5480 C.3     1  UNL1        0.2542
     20 O           4.6203    1.4922   38.2834 O.3     1  UNL1       -0.4561
     21 N           0.2960    0.9853   25.7497 N.am    1  UNL1       -0.3018
     22 C           1.3154    1.1425   24.6607 C.2     1  UNL1        0.2426
     23 O           2.7473    1.4229   25.0085 O.2     1  UNL1       -0.2733
     24 H          -0.6438    0.8013   25.5213 H       1  UNL1        0.1495
     25 C           0.9030    1.0192   23.2237 C.3     1  UNL1        0.1759
     26 N           1.8860    0.5330   22.2004 N.am    1  UNL1       -0.2931
     27 C           1.4010    0.0413   20.8688 C.2     1  UNL1        0.2462
     28 O          -0.0671    0.0360   20.5606 O.2     1  UNL1       -0.2701
     29 H           2.8494    0.5365   22.4027 H       1  UNL1        0.1502
     30 C           2.3839   -0.4450   19.8455 C.ar    1  UNL1        0.0533
     31 C           2.9163    0.4994   18.8087 C.ar    1  UNL1        0.0045
     32 C           3.8993    0.0130   17.7854 C.ar    1  UNL1        0.0001
     33 C           4.3499   -1.4176   17.7988 C.ar    1  UNL1        0.0039
     34 C           3.8176   -2.3620   18.8356 C.ar    1  UNL1        0.0716
     35 C           2.8346   -1.8756   19.8589 C.ar    1  UNL1        0.0084
     36 C           4.2682   -3.7926   18.8489 C.3     1  UNL1        0.4186
     37 F           4.7189   -5.2232   18.8623 F       1  UNL1       -0.1659
     38 F           2.9101   -4.2160   19.3246 F       1  UNL1       -0.1659
     39 F           5.6263   -3.3692   18.3733 F       1  UNL1       -0.1659
@<TRIPOS>BOND
     1    19    20    1
     2    20    13    1
     3    13    14   ar
     4    14    15   ar
     5    15    16   ar
     6    16    17   ar
     7    17     5    1
     8     5     6    1
     9     5     7    1
    10     7     8    1
    11     8     9    1
    12     9     1    1
    13     1     2    1
    14     2     3    1
    15     3    21    1
    16    21    22   am
    17    22    23    2
    18    22    25    1
    19    25    26    1
    20    26    27   am
    21    27    28    2
    22    27    30    1
    23    30    31   ar
    24    31    32   ar
    25    32    33   ar
    26    33    34   ar
    27    34    36    1
    28    36    37    1
    29    36    38    1
    30    36    39    1
    31    34    35   ar
    32     3     4    1
    33     9    10    1
    34    10    11    1
    35    17    18   ar
    36    18    13   ar
    37    11     5    1
    38     4     1    1
    39    35    30   ar
    40     6    12    1
    41    21    24    1
    42    26    29    1
@<TRIPOS>MOLECULE
*****
 39 42 0 0 0
SMALL
GASTEIGER

@<TRIPOS>ATOM
      1 N           6.6919   -3.2153   26.3793 N.3     1  UNL1       -0.2711
      2 C           7.6781   -3.4032   27.4938 C.3     1  UNL1        0.0933
      3 C           6.6746   -2.8687   28.4721 C.3     1  UNL1        0.1035
      4 C           5.6884   -2.6808   27.3576 C.3     1  UNL1        0.0933
      5 C           6.7286   -3.9505   21.9400 C.3     1  UNL1        0.1232
      6 O           7.4619   -4.7656   20.9162 O.3     1  UNL1       -0.3812
      7 C           5.7472   -2.9828   22.5318 C.3     1  UNL1        0.0341
      8 C           5.7350   -2.7377   24.0116 C.3     1  UNL1        0.0188
      9 C           6.7042   -3.4604   24.8995 C.3     1  UNL1        0.0578
     10 C           7.6856   -4.4281   24.3077 C.3     1  UNL1        0.0188
     11 C           7.6978   -4.6732   22.8279 C.3     1  UNL1        0.0341
     12 H           7.0988   -4.5815   20.0358 H       1  UNL1        0.2107
     13 C           6.0314   -2.2852   18.4057 C.ar    1  UNL1        0.2247
     14 C           4.5852   -2.6317   18.2095 C.ar    1  UNL1        0.0577
     15 C           3.8535   -3.4179   19.2567 C.ar    1  UNL1        0.0061
     16 C           4.5680   -3.8575   20.5002 C.ar    1  UNL1        0.0173
     17 C           6.0141   -3.5109   20.6964 C.ar    1  UNL1        0.0861
     18 N           6.7458   -2.7248   19.6492 N.ar    1  UNL1       -0.2137
     19 C           6.3928   -0.0688   17.0992 C.3     1  UNL1        0.2542
     20 O           6.7630   -1.4991   17.3585 O.3     1  UNL1       -0.4561
     21 N           6.6623   -2.6236   29.9518 N.am    1  UNL1       -0.3018
     22 C           6.6226   -3.7822   30.9036 C.2     1  UNL1        0.2426
     23 O           6.5951   -5.1860   30.3758 O.2     1  UNL1       -0.2733
     24 H           6.6803   -1.7023   30.2984 H       1  UNL1        0.1495
     25 C           6.6103   -3.5371   32.3835 C.3     1  UNL1        0.1759
     26 N           6.1540   -2.2130   32.9206 N.am    1  UNL1       -0.2931
     27 C           4.7929   -2.0827   33.5375 C.2     1  UNL1        0.2462
     28 O           3.8882   -3.2765   33.6172 O.2     1  UNL1       -0.2701
     29 H           6.7478   -1.4295   32.8683 H       1  UNL1        0.1502
     30 C           4.3366   -0.7586   34.0746 C.ar    1  UNL1        0.0533
     31 C           3.5810    0.1891   33.1909 C.ar    1  UNL1        0.0045
     32 C           3.1248    1.5132   33.7281 C.ar    1  UNL1        0.0001
     33 C           3.4240    1.8896   35.1490 C.ar    1  UNL1        0.0039
     34 C           4.1796    0.9418   36.0327 C.ar    1  UNL1        0.0716
     35 C           4.6359   -0.3823   35.4955 C.ar    1  UNL1        0.0084
     36 C           4.4788    1.3182   37.4535 C.3     1  UNL1        0.4186
     37 F           4.7780    1.6946   38.8744 F       1  UNL1       -0.1659
     38 F           3.1335    1.9724   37.5636 F       1  UNL1       -0.1659
     39 F           5.8242    0.6640   37.3435 F       1  UNL1       -0.1659
@<TRIPOS>BOND
     1    19    20    1
     2    20    13    1
     3    13    14   ar
     4    14    15   ar
     5    15    16   ar
     6    16    17   ar
     7    17     5    1
     8     5     6    1
     9     5     7    1
    10     7     8    1
    11     8     9    1
    12     9     1    1
    13     1     2    1
    14     2     3    1
    15     3    21    1
    16    21    22   am
    17    22    23    2
    18    22    25    1
    19    25    26    1
    20    26    27   am
    21    27    28    2
    22    27    30    1
    23    30    31   ar
    24    31    32   ar
    25    32    33   ar
    26    33    34   ar
    27    34    36    1
    28    36    37    1
    29    36    38    1
    30    36    39    1
    31    34    35   ar
    32     3     4    1
    33     9    10    1
    34    10    11    1
    35    17    18   ar
    36    18    13   ar
    37    11     5    1
    38     4     1    1
    39    35    30   ar
    40     6    12    1
    41    21    24    1
    42    26    29    1
@<TRIPOS>MOLECULE
*****
 39 42 0 0 0
SMALL
GASTEIGER

@<TRIPOS>ATOM
      1 N           2.9681    0.1109   31.3096 N.3     1  UNL1       -0.2711
      2 C           3.3083   -0.6945   30.0907 C.3     1  UNL1        0.0933
      3 C           2.2517    0.0340   29.3144 C.3     1  UNL1        0.1035
      4 C           1.9115    0.8394   30.5333 C.3     1  UNL1        0.0933
      5 C           4.4879    0.2740   35.5420 C.3     1  UNL1        0.1232
      6 O           5.3000   -0.5420   36.5036 O.3     1  UNL1       -0.3812
      7 C           3.6633    1.4024   34.9972 C.3     1  UNL1        0.0341
      8 C           3.1567    1.3480   33.5864 C.3     1  UNL1        0.0188
      9 C           3.4747    0.1652   32.7204 C.3     1  UNL1        0.0578
     10 C           4.2993   -0.9631   33.2652 C.3     1  UNL1        0.0188
     11 C           4.8059   -0.9087   34.6760 C.3     1  UNL1        0.0341
     12 H           5.3655   -0.0734   37.3504 H       1  UNL1        0.2107
     13 C           3.1554    2.2022   38.7446 C.ar    1  UNL1        0.2247
     14 C           4.3799    2.9720   39.1419 C.ar    1  UNL1        0.0577
     15 C           5.6405    2.8425   38.3393 C.ar    1  UNL1        0.0061
     16 C           5.6765    1.9432   37.1393 C.ar    1  UNL1        0.0173
     17 C           4.4519    1.1734   36.7420 C.ar    1  UNL1        0.0861
     18 N           3.1914    1.3029   37.5447 N.ar    1  UNL1       -0.2137
     19 C           0.9835    1.1513   39.7082 C.3     1  UNL1        0.2542
     20 O           1.8949    2.3318   39.5473 O.3     1  UNL1       -0.4561
     21 N           1.7451   -0.0203   27.9036 N.am    1  UNL1       -0.3018
     22 C           2.5781    0.5332   26.7857 C.2     1  UNL1        0.2426
     23 O           3.9177    1.1412   27.0786 O.2     1  UNL1       -0.2733
     24 H           0.8658   -0.4193   27.7113 H       1  UNL1        0.1495
     25 C           2.0714    0.4789   25.3748 C.3     1  UNL1        0.1759
     26 N           2.7260   -0.4303   24.3774 N.am    1  UNL1       -0.2931
     27 C           2.5732   -0.1664   22.9088 C.2     1  UNL1        0.2462
     28 O           1.7658    1.0067   22.4375 O.2     1  UNL1       -0.2701
     29 H           3.2559   -1.2002   24.6867 H       1  UNL1        0.1502
     30 C           3.2278   -1.0755   21.9113 C.ar    1  UNL1        0.0533
     31 C           3.9260   -2.3194   22.3754 C.ar    1  UNL1        0.0045
     32 C           4.5806   -3.2285   21.3779 C.ar    1  UNL1        0.0001
     33 C           4.5370   -2.8939   19.9164 C.ar    1  UNL1        0.0039
     34 C           3.8388   -1.6500   19.4523 C.ar    1  UNL1        0.0716
     35 C           3.1842   -0.7409   20.4498 C.ar    1  UNL1        0.0084
     36 C           3.7952   -1.3153   17.9908 C.3     1  UNL1        0.4186
     37 F           3.7517   -0.9807   16.5292 F       1  UNL1       -0.1659
     38 F           2.7507   -0.2731   18.2605 F       1  UNL1       -0.1659
     39 F           4.8398   -2.3575   17.7210 F       1  UNL1       -0.1659
@<TRIPOS>BOND
     1    19    20    1
     2    20    13    1
     3    13    14   ar
     4    14    15   ar
     5    15    16   ar
     6    16    17   ar
     7    17     5    1
     8     5     6    1
     9     5     7    1
    10     7     8    1
    11     8     9    1
    12     9     1    1
    13     1     2    1
    14     2     3    1
    15     3    21    1
    16    21    22   am
    17    22    23    2
    18    22    25    1
    19    25    26    1
    20    26    27   am
    21    27    28    2
    22    27    30    1
    23    30    31   ar
    24    31    32   ar
    25    32    33   ar
    26    33    34   ar
    27    34    36    1
    28    36    37    1
    29    36    38    1
    30    36    39    1
    31    34    35   ar
    32     3     4    1
    33     9    10    1
    34    10    11    1
    35    17    18   ar
    36    18    13   ar
    37    11     5    1
    38     4     1    1
    39    35    30   ar
    40     6    12    1
    41    21    24    1
    42    26    29    1
@<TRIPOS>MOLECULE
*****
 39 42 0 0 0
SMALL
GASTEIGER

@<TRIPOS>ATOM
      1 N           2.7006    0.3579   30.5351 N.3     1  UNL1       -0.2711
      2 C           3.6667   -0.6114   29.9209 C.3     1  UNL1        0.0933
      3 C           2.8416   -0.6404   28.6686 C.3     1  UNL1        0.1035
      4 C           1.8755    0.3289   29.2828 C.3     1  UNL1        0.0933
      5 C           2.4016    2.4755   34.4944 C.3     1  UNL1        0.1232
      6 O           1.6329    3.5848   35.1490 O.3     1  UNL1       -0.3812
      7 C           3.3842    1.3565   34.3147 C.3     1  UNL1        0.0341
      8 C           3.4839    0.6507   32.9949 C.3     1  UNL1        0.0188
      9 C           2.6009    1.0638   31.8548 C.3     1  UNL1        0.0578
     10 C           1.6183    2.1827   32.0346 C.3     1  UNL1        0.0188
     11 C           1.5186    2.8886   33.3543 C.3     1  UNL1        0.0341
     12 H           1.9312    3.6874   36.0663 H       1  UNL1        0.2107
     13 C           2.7811    2.1347   38.4301 C.ar    1  UNL1        0.2247
     14 C           4.2495    2.3920   38.5966 C.ar    1  UNL1        0.0577
     15 C           5.1019    2.6771   37.3957 C.ar    1  UNL1        0.0061
     16 C           4.4859    2.7049   36.0284 C.ar    1  UNL1        0.0173
     17 C           3.0176    2.4477   35.8618 C.ar    1  UNL1        0.0861
     18 N           2.1652    2.1626   37.0627 N.ar    1  UNL1       -0.2137
     19 C           0.4810    2.2422   39.6334 C.3     1  UNL1        0.2542
     20 O           1.9287    1.8497   39.6310 O.3     1  UNL1       -0.4561
     21 N           2.9413   -1.3463   27.3489 N.am    1  UNL1       -0.3018
     22 C           3.8543   -0.8176   26.2827 C.2     1  UNL1        0.2426
     23 O           4.6676    0.4170   26.5361 O.2     1  UNL1       -0.2733
     24 H           2.4075   -2.1566   27.1825 H       1  UNL1        0.1495
     25 C           3.9539   -1.5235   24.9628 C.3     1  UNL1        0.1759
     26 N           3.4228   -0.8708   23.7212 N.am    1  UNL1       -0.2931
     27 C           3.5595   -1.5585   22.3951 C.2     1  UNL1        0.2462
     28 O           4.2276   -2.8989   22.3108 O.2     1  UNL1       -0.2701
     29 H           2.9843    0.0089   23.7766 H       1  UNL1        0.1502
     30 C           3.0284   -0.9057   21.1535 C.ar    1  UNL1        0.0533
     31 C           1.6363   -0.3472   21.1366 C.ar    1  UNL1        0.0045
     32 C           1.1052    0.3055   19.8949 C.ar    1  UNL1        0.0001
     33 C           1.9660    0.3997   18.6701 C.ar    1  UNL1        0.0039
     34 C           3.3581   -0.1588   18.6870 C.ar    1  UNL1        0.0716
     35 C           3.8892   -0.8115   19.9287 C.ar    1  UNL1        0.0084
     36 C           4.2189   -0.0646   17.4622 C.3     1  UNL1        0.4186
     37 F           5.0797    0.0296   16.2374 F       1  UNL1       -0.1659
     38 F           3.6079   -1.3292   16.9355 F       1  UNL1       -0.1659
     39 F           4.8299    1.2000   17.9890 F       1  UNL1       -0.1659
@<TRIPOS>BOND
     1    19    20    1
     2    20    13    1
     3    13    14   ar
     4    14    15   ar
     5    15    16   ar
     6    16    17   ar
     7    17     5    1
     8     5     6    1
     9     5     7    1
    10     7     8    1
    11     8     9    1
    12     9     1    1
    13     1     2    1
    14     2     3    1
    15     3    21    1
    16    21    22   am
    17    22    23    2
    18    22    25    1
    19    25    26    1
    20    26    27   am
    21    27    28    2
    22    27    30    1
    23    30    31   ar
    24    31    32   ar
    25    32    33   ar
    26    33    34   ar
    27    34    36    1
    28    36    37    1
    29    36    38    1
    30    36    39    1
    31    34    35   ar
    32     3     4    1
    33     9    10    1
    34    10    11    1
    35    17    18   ar
    36    18    13   ar
    37    11     5    1
    38     4     1    1
    39    35    30   ar
    40     6    12    1
    41    21    24    1
    42    26    29    1
@<TRIPOS>MOLECULE
*****
 39 42 0 0 0
SMALL
GASTEIGER

@<TRIPOS>ATOM
      1 N           1.4628    1.8592   30.3667 N.3     1  UNL1       -0.2711
      2 C           2.1627    2.1141   29.0648 C.3     1  UNL1        0.0933
      3 C           1.1199    1.3100   28.3466 C.3     1  UNL1        0.1035
      4 C           0.4200    1.0550   29.6486 C.3     1  UNL1        0.0933
      5 C           2.1902    3.0240   34.6520 C.3     1  UNL1        0.1232
      6 O           1.7676    4.0630   35.6480 O.3     1  UNL1       -0.3812
      7 C           2.8885    1.8307   34.0703 C.3     1  UNL1        0.0341
      8 C           2.6461    1.4424   32.6419 C.3     1  UNL1        0.0188
      9 C           1.7052    2.2475   31.7952 C.3     1  UNL1        0.0578
     10 C           1.0069    3.4407   32.3769 C.3     1  UNL1        0.0188
     11 C           1.2494    3.8290   33.8053 C.3     1  UNL1        0.0341
     12 H           2.2136    3.9003   36.4939 H       1  UNL1        0.2107
     13 C           3.0812    1.5281   38.2184 C.ar    1  UNL1        0.2247
     14 C           4.5722    1.6916   38.2298 C.ar    1  UNL1        0.0577
     15 C           5.2692    2.2991   37.0487 C.ar    1  UNL1        0.0061
     16 C           4.4753    2.7433   35.8561 C.ar    1  UNL1        0.0173
     17 C           2.9843    2.5798   35.8447 C.ar    1  UNL1        0.0861
     18 N           2.2873    1.9723   37.0258 N.ar    1  UNL1       -0.2137
     19 C           0.9942    0.3765   39.2518 C.3     1  UNL1        0.2542
     20 O           2.3842    0.9206   39.3995 O.3     1  UNL1       -0.4561
     21 N           0.8774    0.9217   26.9182 N.am    1  UNL1       -0.3018
     22 C           0.6365    1.9807   25.8836 C.2     1  UNL1        0.2426
     23 O           0.6379    3.4281   26.2774 O.2     1  UNL1       -0.2733
     24 H           0.8765   -0.0282   26.6597 H       1  UNL1        0.1495
     25 C           0.3940    1.5924   24.4551 C.3     1  UNL1        0.1759
     26 N           1.4070    0.7654   23.7205 N.am    1  UNL1       -0.2931
     27 C           1.2485    0.5175   22.2496 C.2     1  UNL1        0.2462
     28 O           0.0768    1.0967   21.5134 O.2     1  UNL1       -0.2701
     29 H           2.1760    0.3853   24.2036 H       1  UNL1        0.1502
     30 C           2.2615   -0.3095   21.5149 C.ar    1  UNL1        0.0533
     31 C           3.1659   -1.2355   22.2730 C.ar    1  UNL1        0.0045
     32 C           4.1789   -2.0625   21.5383 C.ar    1  UNL1        0.0001
     33 C           4.2875   -1.9635   20.0455 C.ar    1  UNL1        0.0039
     34 C           3.3831   -1.0376   19.2874 C.ar    1  UNL1        0.0716
     35 C           2.3701   -0.2106   20.0222 C.ar    1  UNL1        0.0084
     36 C           3.4918   -0.9386   17.7946 C.3     1  UNL1        0.4186
     37 F           3.6005   -0.8397   16.3018 F       1  UNL1       -0.1659
     38 F           2.5643    0.2402   17.8052 F       1  UNL1       -0.1659
     39 F           4.4193   -2.1175   17.7840 F       1  UNL1       -0.1659
@<TRIPOS>BOND
     1    19    20    1
     2    20    13    1
     3    13    14   ar
     4    14    15   ar
     5    15    16   ar
     6    16    17   ar
     7    17     5    1
     8     5     6    1
     9     5     7    1
    10     7     8    1
    11     8     9    1
    12     9     1    1
    13     1     2    1
    14     2     3    1
    15     3    21    1
    16    21    22   am
    17    22    23    2
    18    22    25    1
    19    25    26    1
    20    26    27   am
    21    27    28    2
    22    27    30    1
    23    30    31   ar
    24    31    32   ar
    25    32    33   ar
    26    33    34   ar
    27    34    36    1
    28    36    37    1
    29    36    38    1
    30    36    39    1
    31    34    35   ar
    32     3     4    1
    33     9    10    1
    34    10    11    1
    35    17    18   ar
    36    18    13   ar
    37    11     5    1
    38     4     1    1
    39    35    30   ar
    40     6    12    1
    41    21    24    1
    42    26    29    1
@<TRIPOS>MOLECULE
*****
 39 42 0 0 0
SMALL
GASTEIGER

@<TRIPOS>ATOM
      1 N           5.0158   -0.2409   31.1708 N.3     1  UNL1       -0.2711
      2 C           5.4286   -1.6509   30.8682 C.3     1  UNL1        0.0933
      3 C           5.8684   -1.2281   29.4979 C.3     1  UNL1        0.1035
      4 C           5.4557    0.1819   29.8006 C.3     1  UNL1        0.0933
      5 C           3.2075    1.8532   34.7197 C.3     1  UNL1        0.1232
      6 O           1.9762    2.6234   35.0948 O.3     1  UNL1       -0.3812
      7 C           4.5457    1.1870   34.8437 C.3     1  UNL1        0.0341
      8 C           5.1485    0.4890   33.6608 C.3     1  UNL1        0.0188
      9 C           4.4130    0.4572   32.3538 C.3     1  UNL1        0.0578
     10 C           3.0749    1.1234   32.2298 C.3     1  UNL1        0.0188
     11 C           2.4721    1.8214   33.4127 C.3     1  UNL1        0.0341
     12 H           2.0337    2.8919   36.0252 H       1  UNL1        0.2107
     13 C           2.8308    2.0997   38.6627 C.ar    1  UNL1        0.2247
     14 C           4.1307    2.7511   39.0315 C.ar    1  UNL1        0.0577
     15 C           5.1228    3.1033   37.9630 C.ar    1  UNL1        0.0061
     16 C           4.8151    2.8040   36.5257 C.ar    1  UNL1        0.0173
     17 C           3.5153    2.1525   36.1570 C.ar    1  UNL1        0.0861
     18 N           2.5231    1.8004   37.2255 N.ar    1  UNL1       -0.2137
     19 C           0.4163    2.2094   39.6156 C.3     1  UNL1        0.2542
     20 O           1.8387    1.7476   39.7312 O.3     1  UNL1       -0.4561
     21 N           6.4712   -1.9261   28.3150 N.am    1  UNL1       -0.3018
     22 C           5.6025   -2.3350   27.1626 C.2     1  UNL1        0.2426
     23 O           4.1309   -2.0460   27.1930 O.2     1  UNL1       -0.2733
     24 H           7.4370   -2.1158   28.2949 H       1  UNL1        0.1495
     25 C           6.2053   -3.0331   25.9796 C.3     1  UNL1        0.1759
     26 N           5.4383   -3.1288   24.6942 N.am    1  UNL1       -0.2931
     27 C           5.3157   -1.9287   23.8028 C.2     1  UNL1        0.2462
     28 O           5.9602   -0.6328   24.1969 O.2     1  UNL1       -0.2701
     29 H           5.0152   -3.9794   24.4355 H       1  UNL1        0.1502
     30 C           4.5486   -2.0244   22.5174 C.ar    1  UNL1        0.0533
     31 C           3.4724   -1.0256   22.2100 C.ar    1  UNL1        0.0045
     32 C           2.7054   -1.1214   20.9245 C.ar    1  UNL1        0.0001
     33 C           3.0145   -2.2158   19.9464 C.ar    1  UNL1        0.0039
     34 C           4.0907   -3.2145   20.2537 C.ar    1  UNL1        0.0716
     35 C           4.8577   -3.1188   21.5392 C.ar    1  UNL1        0.0084
     36 C           4.3997   -4.3089   19.2756 C.3     1  UNL1        0.4186
     37 F           4.7088   -5.4033   18.2975 F       1  UNL1       -0.1659
     38 F           2.9330   -4.5012   19.0273 F       1  UNL1       -0.1659
     39 F           5.8665   -4.1166   19.5239 F       1  UNL1       -0.1659
@<TRIPOS>BOND
     1    19    20    1
     2    20    13    1
     3    13    14   ar
     4    14    15   ar
     5    15    16   ar
     6    16    17   ar
     7    17     5    1
     8     5     6    1
     9     5     7    1
    10     7     8    1
    11     8     9    1
    12     9     1    1
    13     1     2    1
    14     2     3    1
    15     3    21    1
    16    21    22   am
    17    22    23    2
    18    22    25    1
    19    25    26    1
    20    26    27   am
    21    27    28    2
    22    27    30    1
    23    30    31   ar
    24    31    32   ar
    25    32    33   ar
    26    33    34   ar
    27    34    36    1
    28    36    37    1
    29    36    38    1
    30    36    39    1
    31    34    35   ar
    32     3     4    1
    33     9    10    1
    34    10    11    1
    35    17    18   ar
    36    18    13   ar
    37    11     5    1
    38     4     1    1
    39    35    30   ar
    40     6    12    1
    41    21    24    1
    42    26    29    1
@<TRIPOS>MOLECULE
*****
 39 42 0 0 0
SMALL
GASTEIGER

@<TRIPOS>ATOM
      1 N           2.9474    0.1544   29.4247 N.3     1  UNL1       -0.2711
      2 C           2.7890    0.0460   27.9370 C.3     1  UNL1        0.0933
      3 C           3.7301   -1.1218   27.9218 C.3     1  UNL1        0.1035
      4 C           3.8885   -1.0134   29.4095 C.3     1  UNL1        0.0933
      5 C           1.2871    2.8617   32.6127 C.3     1  UNL1        0.1232
      6 O           0.0866    3.7205   32.8802 O.3     1  UNL1       -0.3812
      7 C           2.6098    2.1849   32.8178 C.3     1  UNL1        0.0341
      8 C           3.1633    1.2824   31.7551 C.3     1  UNL1        0.0188
      9 C           2.3939    1.0569   30.4874 C.3     1  UNL1        0.0578
     10 C           1.0711    1.7337   30.2823 C.3     1  UNL1        0.0188
     11 C           0.5177    2.6361   31.3449 C.3     1  UNL1        0.0341
     12 H           0.1751    4.1376   33.7515 H       1  UNL1        0.2107
     13 C           2.5750    2.9883   36.3644 C.ar    1  UNL1        0.2247
     14 C           2.3444    4.4331   36.6947 C.ar    1  UNL1        0.0577
     15 C           1.7613    5.3542   35.6644 C.ar    1  UNL1        0.0061
     16 C           1.4089    4.8304   34.3037 C.ar    1  UNL1        0.0173
     17 C           1.6395    3.3856   33.9734 C.ar    1  UNL1        0.0861
     18 N           2.2226    2.4645   35.0038 N.ar    1  UNL1       -0.2137
     19 C           2.2534    1.2986   38.3116 C.3     1  UNL1        0.2542
     20 O           3.1581    2.0672   37.3948 O.3     1  UNL1       -0.4561
     21 N           4.2836   -2.0243   26.8592 N.am    1  UNL1       -0.3018
     22 C           5.7676   -2.1766   26.7028 C.2     1  UNL1        0.2426
     23 O           6.6982   -1.4265   27.6090 O.2     1  UNL1       -0.2733
     24 H           3.6728   -2.5166   26.2643 H       1  UNL1        0.1495
     25 C           6.3210   -3.0791   25.6400 C.3     1  UNL1        0.1759
     26 N           5.6078   -3.2179   24.3278 N.am    1  UNL1       -0.2931
     27 C           5.1590   -1.9945   23.5850 C.2     1  UNL1        0.2462
     28 O           5.4236   -0.6322   24.1545 O.2     1  UNL1       -0.2701
     29 H           5.4342   -4.1120   23.9541 H       1  UNL1        0.1502
     30 C           4.4458   -2.1333   22.2728 C.ar    1  UNL1        0.0533
     31 C           3.3953   -1.1367   21.8810 C.ar    1  UNL1        0.0045
     32 C           2.6821   -1.2756   20.5688 C.ar    1  UNL1        0.0001
     33 C           3.0192   -2.4110   19.6483 C.ar    1  UNL1        0.0039
     34 C           4.0697   -3.4075   20.0401 C.ar    1  UNL1        0.0716
     35 C           4.7829   -3.2686   21.3524 C.ar    1  UNL1        0.0084
     36 C           4.4069   -4.5429   19.1196 C.3     1  UNL1        0.4186
     37 F           4.7440   -5.6782   18.1991 F       1  UNL1       -0.1659
     38 F           3.3805   -5.3994   19.8001 F       1  UNL1       -0.1659
     39 F           5.4332   -3.6864   18.4391 F       1  UNL1       -0.1659
@<TRIPOS>BOND
     1    19    20    1
     2    20    13    1
     3    13    14   ar
     4    14    15   ar
     5    15    16   ar
     6    16    17   ar
     7    17     5    1
     8     5     6    1
     9     5     7    1
    10     7     8    1
    11     8     9    1
    12     9     1    1
    13     1     2    1
    14     2     3    1
    15     3    21    1
    16    21    22   am
    17    22    23    2
    18    22    25    1
    19    25    26    1
    20    26    27   am
    21    27    28    2
    22    27    30    1
    23    30    31   ar
    24    31    32   ar
    25    32    33   ar
    26    33    34   ar
    27    34    36    1
    28    36    37    1
    29    36    38    1
    30    36    39    1
    31    34    35   ar
    32     3     4    1
    33     9    10    1
    34    10    11    1
    35    17    18   ar
    36    18    13   ar
    37    11     5    1
    38     4     1    1
    39    35    30   ar
    40     6    12    1
    41    21    24    1
    42    26    29    1
