@<TRIPOS>MOLECULE
*****
 33 35 0 0 0
SMALL
GASTEIGER

@<TRIPOS>ATOM
      1 C           7.5700   -2.6366   26.6110 C.3     1  UNL1        0.0236
      2 C           6.4099   -2.1110   27.4037 C.3     1  UNL1        0.0998
      3 C           6.4995   -2.0277   28.8988 C.3     1  UNL1        0.1271
      4 N           5.3396   -1.5021   29.6914 N.ar    1  UNL1       -0.3092
      5 C           5.1380   -1.3045   31.1646 C.ar    1  UNL1        0.1785
      6 N           3.7639   -0.7401   31.3727 N.ar    1  UNL1       -0.2196
      7 C           3.1163   -0.5890   30.0282 C.ar    1  UNL1        0.1494
      8 C           4.0901   -1.0600   28.9891 C.ar    1  UNL1        0.0809
      9 C           4.0006   -1.1433   27.4941 C.3     1  UNL1        0.1405
     10 N           5.1605   -1.6689   26.7014 N.am    1  UNL1       -0.2580
     11 C           5.0709   -1.7522   25.2064 C.2     1  UNL1        0.3080
     12 O           6.2309   -2.2777   24.4137 O.2     1  UNL1       -0.2522
     13 N           3.8215   -1.3101   24.5041 N.am    1  UNL1       -0.2681
     14 H           3.0602   -0.9651   25.0244 H       1  UNL1        0.1564
     15 C           3.7319   -1.3934   23.0090 C.ar    1  UNL1        0.0524
     16 C           3.2614   -0.2084   22.2188 C.ar    1  UNL1        0.0171
     17 C           3.1718   -0.2917   20.7238 C.ar    1  UNL1        0.0316
     18 C           3.5527   -1.5599   20.0190 C.ar    1  UNL1        0.1497
     19 F           3.4630   -1.6432   18.5241 F       1  UNL1       -0.2035
     20 C           4.0231   -2.7449   20.8093 C.ar    1  UNL1        0.0970
     21 C           4.1127   -2.6615   22.3044 C.ar    1  UNL1        0.0273
     22 C           4.4040   -4.0131   20.1048 C.1     1  UNL1        0.1027
     23 N           4.7847   -5.2813   19.4001 N.1     1  UNL1       -0.1908
     24 C           1.7369   -0.0598   29.7684 C.2     1  UNL1        0.2650
     25 O           1.1285    0.9404   30.7061 O.2     1  UNL1       -0.2684
     26 N           0.9661   -0.5309   28.5710 N.am    1  UNL1       -0.2939
     27 H           1.3654   -1.1874   27.9555 H       1  UNL1        0.1500
     28 C          -0.4132   -0.0017   28.3113 C.3     1  UNL1        0.1676
     29 C          -1.5967   -0.6290   28.9865 C.3     1  UNL1        0.0303
     30 C          -0.6091    1.1549   27.3764 C.3     1  UNL1        0.4135
     31 F          -0.8051    2.3115   26.4416 F       1  UNL1       -0.1682
     32 F           0.7008    0.8426   26.7155 F       1  UNL1       -0.1682
     33 F          -1.9190    1.4672   28.0373 F       1  UNL1       -0.1682
@<TRIPOS>BOND
     1     2     1    1
     2     2     3    1
     3     3     4    1
     4     4     5   ar
     5     5     6   ar
     6     6     7   ar
     7     7    24    1
     8    24    25    2
     9    24    26   am
    10    26    28    1
    11    28    29    1
    12    28    30    1
    13    30    31    1
    14    30    32    1
    15    30    33    1
    16     7     8   ar
    17     8     9    1
    18     9    10    1
    19    10    11   am
    20    11    12    2
    21    11    13   am
    22    13    15    1
    23    15    16   ar
    24    16    17   ar
    25    17    18   ar
    26    18    19    1
    27    18    20   ar
    28    20    22    1
    29    22    23    3
    30    20    21   ar
    31    10     2    1
    32    21    15   ar
    33     8     4   ar
    34    26    27    1
    35    13    14    1
@<TRIPOS>MOLECULE
*****
 33 35 0 0 0
SMALL
GASTEIGER

@<TRIPOS>ATOM
      1 C           7.6693   -2.7484   27.3152 C.3     1  UNL1        0.0236
      2 C           6.4695   -2.1520   27.9896 C.3     1  UNL1        0.0998
      3 C           6.4975   -1.8765   29.4639 C.3     1  UNL1        0.1271
      4 N           5.2977   -1.2801   30.1383 N.ar    1  UNL1       -0.3092
      5 C           5.0336   -0.9005   31.5652 C.ar    1  UNL1        0.1785
      6 N           3.6427   -0.3450   31.6473 N.ar    1  UNL1       -0.2196
      7 C           3.0471   -0.3813   30.2711 C.ar    1  UNL1        0.1494
      8 C           4.0700   -0.9592   29.3384 C.ar    1  UNL1        0.0809
      9 C           4.0420   -1.2346   27.8642 C.3     1  UNL1        0.1405
     10 N           5.2418   -1.8310   27.1898 N.am    1  UNL1       -0.2580
     11 C           5.2138   -2.1065   25.7155 C.2     1  UNL1        0.3080
     12 O           6.4136   -2.7029   25.0412 O.2     1  UNL1       -0.2522
     13 N           3.9862   -1.7856   24.9158 N.am    1  UNL1       -0.2681
     14 H           3.1987   -1.3942   25.3584 H       1  UNL1        0.1564
     15 C           3.9582   -2.0611   23.4415 C.ar    1  UNL1        0.0524
     16 C           4.6373   -3.2811   22.8935 C.ar    1  UNL1        0.0171
     17 C           4.6093   -3.5567   21.4193 C.ar    1  UNL1        0.0316
     18 C           3.9023   -2.6121   20.4931 C.ar    1  UNL1        0.1497
     19 F           3.8743   -2.8876   19.0189 F       1  UNL1       -0.2035
     20 C           3.2232   -1.3920   21.0410 C.ar    1  UNL1        0.0970
     21 C           3.2512   -1.1166   22.5153 C.ar    1  UNL1        0.0273
     22 C           2.5161   -0.4475   20.1149 C.1     1  UNL1        0.1027
     23 N           1.8092    0.4972   19.1888 N.1     1  UNL1       -0.1908
     24 C           1.6704    0.0795   29.8938 C.2     1  UNL1        0.2650
     25 O           0.9683    1.1079   30.7301 O.2     1  UNL1       -0.2684
     26 N           0.9958   -0.4881   28.6802 N.am    1  UNL1       -0.2939
     27 H           1.4567   -1.1630   28.1312 H       1  UNL1        0.1500
     28 C          -0.3808   -0.0273   28.3029 C.3     1  UNL1        0.1676
     29 C          -1.5847   -0.6954   28.8981 C.3     1  UNL1        0.0303
     30 C          -0.5537    1.1018   27.3305 C.3     1  UNL1        0.4135
     31 F          -0.7266    2.2308   26.3582 F       1  UNL1       -0.1682
     32 F          -1.8574    1.4613   27.9797 F       1  UNL1       -0.1682
     33 F           0.7499    0.7423   26.6814 F       1  UNL1       -0.1682
@<TRIPOS>BOND
     1     2     1    1
     2     2     3    1
     3     3     4    1
     4     4     5   ar
     5     5     6   ar
     6     6     7   ar
     7     7    24    1
     8    24    25    2
     9    24    26   am
    10    26    28    1
    11    28    29    1
    12    28    30    1
    13    30    31    1
    14    30    32    1
    15    30    33    1
    16     7     8   ar
    17     8     9    1
    18     9    10    1
    19    10    11   am
    20    11    12    2
    21    11    13   am
    22    13    15    1
    23    15    16   ar
    24    16    17   ar
    25    17    18   ar
    26    18    19    1
    27    18    20   ar
    28    20    22    1
    29    22    23    3
    30    20    21   ar
    31    10     2    1
    32    21    15   ar
    33     8     4   ar
    34    26    27    1
    35    13    14    1
@<TRIPOS>MOLECULE
*****
 33 35 0 0 0
SMALL
GASTEIGER

@<TRIPOS>ATOM
      1 C           3.4164    0.1191   28.2703 C.3     1  UNL1        0.0236
      2 C           4.4160   -0.9719   28.5164 C.3     1  UNL1        0.0998
      3 C           4.9414   -1.2093   29.9013 C.3     1  UNL1        0.1271
      4 N           5.9409   -2.3003   30.1473 N.ar    1  UNL1       -0.3092
      5 C           6.6318   -2.7660   31.3947 C.ar    1  UNL1        0.1785
      6 N           7.5328   -3.9074   31.0269 N.ar    1  UNL1       -0.2196
      7 C           7.3989   -4.1471   29.5523 C.ar    1  UNL1        0.1494
      8 C           6.4151   -3.1539   29.0087 C.ar    1  UNL1        0.0809
      9 C           5.8896   -2.9165   27.6239 C.3     1  UNL1        0.1405
     10 N           4.8901   -1.8255   27.3778 N.am    1  UNL1       -0.2580
     11 C           4.3647   -1.5881   25.9930 C.2     1  UNL1        0.3080
     12 O           3.3651   -0.4971   25.7469 O.2     1  UNL1       -0.2522
     13 N           4.8388   -2.4417   24.8544 N.am    1  UNL1       -0.2681
     14 H           5.4948   -3.1577   25.0160 H       1  UNL1        0.1564
     15 C           4.3134   -2.2043   23.4696 C.ar    1  UNL1        0.0524
     16 C           3.5187   -0.9677   23.1707 C.ar    1  UNL1        0.0171
     17 C           2.9933   -0.7303   21.7860 C.ar    1  UNL1        0.0316
     18 C           3.2626   -1.7294   20.7001 C.ar    1  UNL1        0.1497
     19 F           2.7372   -1.4920   19.3153 F       1  UNL1       -0.2035
     20 C           4.0573   -2.9660   20.9989 C.ar    1  UNL1        0.0970
     21 C           4.5827   -3.2034   22.3837 C.ar    1  UNL1        0.0273
     22 C           4.3267   -3.9651   19.9131 C.1     1  UNL1        0.1027
     23 N           4.5959   -4.9643   18.8272 N.1     1  UNL1       -0.1908
     24 C           8.1219   -5.1960   28.7604 C.2     1  UNL1        0.2650
     25 O           9.5325   -4.9561   28.3100 O.2     1  UNL1       -0.2684
     26 N           7.4344   -6.4847   28.4188 N.am    1  UNL1       -0.2939
     27 H           6.5087   -6.6421   28.7144 H       1  UNL1        0.1500
     28 C           8.1575   -7.5334   27.6269 C.3     1  UNL1        0.1676
     29 C           9.1469   -8.4351   28.3038 C.3     1  UNL1        0.0303
     30 C           7.8913   -7.6806   26.1580 C.3     1  UNL1        0.4135
     31 F           7.6250   -7.8278   24.6892 F       1  UNL1       -0.1682
     32 F           9.2183   -8.3585   25.9854 F       1  UNL1       -0.1682
     33 F           6.5644   -7.0028   26.3306 F       1  UNL1       -0.1682
@<TRIPOS>BOND
     1     2     1    1
     2     2     3    1
     3     3     4    1
     4     4     5   ar
     5     5     6   ar
     6     6     7   ar
     7     7    24    1
     8    24    25    2
     9    24    26   am
    10    26    28    1
    11    28    29    1
    12    28    30    1
    13    30    31    1
    14    30    32    1
    15    30    33    1
    16     7     8   ar
    17     8     9    1
    18     9    10    1
    19    10    11   am
    20    11    12    2
    21    11    13   am
    22    13    15    1
    23    15    16   ar
    24    16    17   ar
    25    17    18   ar
    26    18    19    1
    27    18    20   ar
    28    20    22    1
    29    22    23    3
    30    20    21   ar
    31    10     2    1
    32    21    15   ar
    33     8     4   ar
    34    26    27    1
    35    13    14    1
@<TRIPOS>MOLECULE
*****
 33 35 0 0 0
SMALL
GASTEIGER

@<TRIPOS>ATOM
      1 C          -0.4391    3.3440   18.4992 C.3     1  UNL1        0.0236
      2 C          -0.5584    3.2017   19.9877 C.3     1  UNL1        0.0998
      3 C          -1.5529    4.0326   20.7432 C.3     1  UNL1        0.1271
      4 N          -1.6722    3.8903   22.2317 N.ar    1  UNL1       -0.3092
      5 C          -2.5541    4.5691   23.2373 C.ar    1  UNL1        0.1785
      6 N          -2.2241    4.0155   24.5918 N.ar    1  UNL1       -0.2196
      7 C          -1.1382    2.9944   24.4232 C.ar    1  UNL1        0.1494
      8 C          -0.7971    2.9171   22.9646 C.ar    1  UNL1        0.0809
      9 C           0.1972    2.0862   22.2090 C.3     1  UNL1        0.1405
     10 N           0.3166    2.2285   20.7206 N.am    1  UNL1       -0.2580
     11 C           1.3110    1.3975   19.9651 C.2     1  UNL1        0.3080
     12 O           1.4303    1.5399   18.4766 O.2     1  UNL1       -0.2522
     13 N           2.1860    0.4244   20.6979 N.am    1  UNL1       -0.2681
     14 H           2.1076    0.3310   21.6749 H       1  UNL1        0.1564
     15 C           3.1804   -0.4066   19.9424 C.ar    1  UNL1        0.0524
     16 C           4.2176    0.2586   19.0870 C.ar    1  UNL1        0.0171
     17 C           5.2120   -0.5722   18.3315 C.ar    1  UNL1        0.0316
     18 C           5.1692   -2.0683   18.4314 C.ar    1  UNL1        0.1497
     19 F           6.1636   -2.8992   17.6759 F       1  UNL1       -0.2035
     20 C           4.1320   -2.7335   19.2868 C.ar    1  UNL1        0.0970
     21 C           3.1376   -1.9025   20.0423 C.ar    1  UNL1        0.0273
     22 C           4.0891   -4.2295   19.3867 C.1     1  UNL1        0.1027
     23 N           4.0461   -5.7256   19.4866 N.1     1  UNL1       -0.1908
     24 C          -0.5047    2.1917   25.5206 C.2     1  UNL1        0.2650
     25 O           0.4102    1.0519   25.1838 O.2     1  UNL1       -0.2684
     26 N          -0.7862    2.5289   26.9549 N.am    1  UNL1       -0.2939
     27 H          -1.3868    3.2770   27.1760 H       1  UNL1        0.1500
     28 C          -0.1527    1.7261   28.0522 C.3     1  UNL1        0.1676
     29 C           1.0310    2.2727   28.7940 C.3     1  UNL1        0.0303
     30 C          -0.7028    0.3767   28.4080 C.3     1  UNL1        0.4135
     31 F          -1.2530   -0.9727   28.7637 F       1  UNL1       -0.1682
     32 F           0.6732   -0.2115   28.3046 F       1  UNL1       -0.1682
     33 F          -2.0788    0.9649   28.5114 F       1  UNL1       -0.1682
@<TRIPOS>BOND
     1     2     1    1
     2     2     3    1
     3     3     4    1
     4     4     5   ar
     5     5     6   ar
     6     6     7   ar
     7     7    24    1
     8    24    25    2
     9    24    26   am
    10    26    28    1
    11    28    29    1
    12    28    30    1
    13    30    31    1
    14    30    32    1
    15    30    33    1
    16     7     8   ar
    17     8     9    1
    18     9    10    1
    19    10    11   am
    20    11    12    2
    21    11    13   am
    22    13    15    1
    23    15    16   ar
    24    16    17   ar
    25    17    18   ar
    26    18    19    1
    27    18    20   ar
    28    20    22    1
    29    22    23    3
    30    20    21   ar
    31    10     2    1
    32    21    15   ar
    33     8     4   ar
    34    26    27    1
    35    13    14    1
@<TRIPOS>MOLECULE
*****
 33 35 0 0 0
SMALL
GASTEIGER

@<TRIPOS>ATOM
      1 C           7.5747   -3.5795   28.7869 C.3     1  UNL1        0.0236
      2 C           7.3049   -3.7146   27.3175 C.3     1  UNL1        0.0998
      3 C           8.1089   -4.6755   26.4926 C.3     1  UNL1        0.1271
      4 N           7.8390   -4.8106   25.0233 N.ar    1  UNL1       -0.3092
      5 C           8.4641   -5.6676   23.9627 C.ar    1  UNL1        0.1785
      6 N           7.7767   -5.3715   22.6628 N.ar    1  UNL1       -0.2196
      7 C           6.7269   -4.3314   22.9200 C.ar    1  UNL1        0.1494
      8 C           6.7654   -3.9848   24.3789 C.ar    1  UNL1        0.0809
      9 C           5.9615   -3.0239   25.2038 C.3     1  UNL1        0.1405
     10 N           6.2313   -2.8888   26.6731 N.am    1  UNL1       -0.2580
     11 C           5.4274   -1.9279   27.4980 C.2     1  UNL1        0.3080
     12 O           5.6972   -1.7928   28.9673 O.2     1  UNL1       -0.2522
     13 N           4.3538   -1.1021   26.8536 N.am    1  UNL1       -0.2681
     14 H           4.1767   -1.1908   25.8892 H       1  UNL1        0.1564
     15 C           3.5498   -0.1412   27.6785 C.ar    1  UNL1        0.0524
     16 C           4.1726    1.1345   28.1631 C.ar    1  UNL1        0.0171
     17 C           3.3688    2.0954   28.9879 C.ar    1  UNL1        0.0316
     18 C           1.9421    1.7807   29.3282 C.ar    1  UNL1        0.1497
     19 F           1.1383    2.7417   30.1530 F       1  UNL1       -0.2035
     20 C           1.3194    0.5051   28.8436 C.ar    1  UNL1        0.0970
     21 C           2.1233   -0.4559   28.0187 C.ar    1  UNL1        0.0273
     22 C          -0.1072    0.1903   29.1837 C.1     1  UNL1        0.1027
     23 N          -1.5337   -0.1247   29.5239 N.1     1  UNL1       -0.1908
     24 C           5.8010   -3.7416   21.8977 C.2     1  UNL1        0.2650
     25 O           4.5876   -2.9772   22.3373 O.2     1  UNL1       -0.2684
     26 N           6.0887   -3.9162   20.4360 N.am    1  UNL1       -0.2939
     27 H           6.8851   -4.4179   20.1474 H       1  UNL1        0.1500
     28 C           5.1628   -3.3264   19.4138 C.3     1  UNL1        0.1676
     29 C           5.5378   -2.0587   18.7051 C.3     1  UNL1        0.0303
     30 C           3.8619   -4.0042   19.1003 C.3     1  UNL1        0.4135
     31 F           2.5610   -4.6821   18.7868 F       1  UNL1       -0.1682
     32 F           3.1156   -2.7999   19.5931 F       1  UNL1       -0.1682
     33 F           4.6082   -5.2085   18.6075 F       1  UNL1       -0.1682
@<TRIPOS>BOND
     1     2     1    1
     2     2     3    1
     3     3     4    1
     4     4     5   ar
     5     5     6   ar
     6     6     7   ar
     7     7    24    1
     8    24    25    2
     9    24    26   am
    10    26    28    1
    11    28    29    1
    12    28    30    1
    13    30    31    1
    14    30    32    1
    15    30    33    1
    16     7     8   ar
    17     8     9    1
    18     9    10    1
    19    10    11   am
    20    11    12    2
    21    11    13   am
    22    13    15    1
    23    15    16   ar
    24    16    17   ar
    25    17    18   ar
    26    18    19    1
    27    18    20   ar
    28    20    22    1
    29    22    23    3
    30    20    21   ar
    31    10     2    1
    32    21    15   ar
    33     8     4   ar
    34    26    27    1
    35    13    14    1
@<TRIPOS>MOLECULE
*****
 33 35 0 0 0
SMALL
GASTEIGER

@<TRIPOS>ATOM
      1 C          -1.4801    4.0960   22.6147 C.3     1  UNL1        0.0236
      2 C          -0.6087    3.0230   22.0321 C.3     1  UNL1        0.0998
      3 C          -0.4535    2.9082   20.5445 C.3     1  UNL1        0.1271
      4 N           0.4179    1.8352   19.9620 N.ar    1  UNL1       -0.3092
      5 C           0.7602    1.4791   18.5457 C.ar    1  UNL1        0.1785
      6 N           1.6880    0.3008   18.5753 N.ar    1  UNL1       -0.2196
      7 C           1.9189   -0.0714   20.0100 C.ar    1  UNL1        0.1494
      8 C           1.1340    0.8770   20.8670 C.ar    1  UNL1        0.0809
      9 C           0.9787    0.9917   22.3545 C.3     1  UNL1        0.1405
     10 N           0.1073    2.0648   22.9370 N.am    1  UNL1       -0.2580
     11 C          -0.0479    2.1795   24.4246 C.2     1  UNL1        0.3080
     12 O          -0.9192    3.2525   25.0071 O.2     1  UNL1       -0.2522
     13 N           0.6682    1.2213   25.3295 N.am    1  UNL1       -0.2681
     14 H           1.2401    0.5171   24.9471 H       1  UNL1        0.1564
     15 C           0.5130    1.3360   26.8171 C.ar    1  UNL1        0.0524
     16 C          -0.5888    0.5955   27.5155 C.ar    1  UNL1        0.0171
     17 C          -0.7441    0.7102   29.0030 C.ar    1  UNL1        0.0316
     18 C           0.2024    1.5654   29.7921 C.ar    1  UNL1        0.1497
     19 F           0.0471    1.6801   31.2797 F       1  UNL1       -0.2035
     20 C           1.3042    2.3059   29.0938 C.ar    1  UNL1        0.0970
     21 C           1.4594    2.1912   27.6062 C.ar    1  UNL1        0.0273
     22 C           2.2507    3.1611   29.8828 C.1     1  UNL1        0.1027
     23 N           3.1973    4.0164   30.6718 N.1     1  UNL1       -0.1908
     24 C           2.7831   -1.1946   20.5013 C.2     1  UNL1        0.2650
     25 O           3.0292   -1.3638   21.9712 O.2     1  UNL1       -0.2684
     26 N           3.4013   -2.1487   19.5226 N.am    1  UNL1       -0.2939
     27 H           3.2398   -2.0376   18.5578 H       1  UNL1        0.1500
     28 C           4.2654   -3.2719   20.0140 C.3     1  UNL1        0.1676
     29 C           5.6822   -3.0029   20.4269 C.3     1  UNL1        0.0303
     30 C           3.7130   -4.6643   20.0925 C.3     1  UNL1        0.4135
     31 F           3.1606   -6.0566   20.1710 F       1  UNL1       -0.1682
     32 F           3.5045   -4.6653   18.6070 F       1  UNL1       -0.1682
     33 F           3.9215   -4.6632   21.5779 F       1  UNL1       -0.1682
@<TRIPOS>BOND
     1     2     1    1
     2     2     3    1
     3     3     4    1
     4     4     5   ar
     5     5     6   ar
     6     6     7   ar
     7     7    24    1
     8    24    25    2
     9    24    26   am
    10    26    28    1
    11    28    29    1
    12    28    30    1
    13    30    31    1
    14    30    32    1
    15    30    33    1
    16     7     8   ar
    17     8     9    1
    18     9    10    1
    19    10    11   am
    20    11    12    2
    21    11    13   am
    22    13    15    1
    23    15    16   ar
    24    16    17   ar
    25    17    18   ar
    26    18    19    1
    27    18    20   ar
    28    20    22    1
    29    22    23    3
    30    20    21   ar
    31    10     2    1
    32    21    15   ar
    33     8     4   ar
    34    26    27    1
    35    13    14    1
@<TRIPOS>MOLECULE
*****
 33 35 0 0 0
SMALL
GASTEIGER

@<TRIPOS>ATOM
      1 C           7.8290   -2.0323   32.8509 C.3     1  UNL1        0.0236
      2 C           6.7609   -1.6652   31.8636 C.3     1  UNL1        0.0998
      3 C           6.7809   -2.2533   30.4837 C.3     1  UNL1        0.1271
      4 N           5.7129   -1.8863   29.4966 N.ar    1  UNL1       -0.3092
      5 C           5.4737   -2.3028   28.0755 C.ar    1  UNL1        0.1785
      6 N           4.2378   -1.6052   27.5899 N.ar    1  UNL1       -0.2196
      7 C           3.7132   -0.7575   28.7107 C.ar    1  UNL1        0.1494
      8 C           4.6249   -0.9313   29.8891 C.ar    1  UNL1        0.0809
      9 C           4.6049   -0.3433   31.2689 C.3     1  UNL1        0.1405
     10 N           5.6729   -0.7103   32.2561 N.am    1  UNL1       -0.2580
     11 C           5.6529   -0.1222   33.6360 C.2     1  UNL1        0.3080
     12 O           6.7209   -0.4892   34.6232 O.2     1  UNL1       -0.2522
     13 N           4.5649    0.8328   34.0285 N.am    1  UNL1       -0.2681
     14 H           3.8639    1.0736   33.3805 H       1  UNL1        0.1564
     15 C           4.5448    1.4208   35.4083 C.ar    1  UNL1        0.0524
     16 C           5.4875    2.5322   35.7636 C.ar    1  UNL1        0.0171
     17 C           5.4675    3.1203   37.1434 C.ar    1  UNL1        0.0316
     18 C           4.5049    2.5970   38.1678 C.ar    1  UNL1        0.1497
     19 F           4.4849    3.1851   39.5476 F       1  UNL1       -0.2035
     20 C           3.5622    1.4856   37.8126 C.ar    1  UNL1        0.0970
     21 C           3.5823    0.8976   36.4327 C.ar    1  UNL1        0.0273
     22 C           2.5996    0.9623   38.8369 C.1     1  UNL1        0.1027
     23 N           1.6370    0.4388   39.8613 N.1     1  UNL1       -0.1908
     24 C           2.4914    0.1113   28.6618 C.2     1  UNL1        0.2650
     25 O           2.5262    1.4884   29.2553 O.2     1  UNL1       -0.2684
     26 N           1.2349   -0.3970   28.0193 N.am    1  UNL1       -0.2939
     27 H           1.2120   -1.3008   27.6297 H       1  UNL1        0.1500
     28 C           0.0132    0.4719   27.9703 C.3     1  UNL1        0.1676
     29 C          -0.1532    1.4704   26.8634 C.3     1  UNL1        0.0303
     30 C          -1.0423    0.3423   29.0283 C.3     1  UNL1        0.4135
     31 F          -2.0977    0.2127   30.0862 F       1  UNL1       -0.1682
     32 F          -1.5626   -0.8946   28.3577 F       1  UNL1       -0.1682
     33 F          -0.5221    1.5791   29.6988 F       1  UNL1       -0.1682
@<TRIPOS>BOND
     1     2     1    1
     2     2     3    1
     3     3     4    1
     4     4     5   ar
     5     5     6   ar
     6     6     7   ar
     7     7    24    1
     8    24    25    2
     9    24    26   am
    10    26    28    1
    11    28    29    1
    12    28    30    1
    13    30    31    1
    14    30    32    1
    15    30    33    1
    16     7     8   ar
    17     8     9    1
    18     9    10    1
    19    10    11   am
    20    11    12    2
    21    11    13   am
    22    13    15    1
    23    15    16   ar
    24    16    17   ar
    25    17    18   ar
    26    18    19    1
    27    18    20   ar
    28    20    22    1
    29    22    23    3
    30    20    21   ar
    31    10     2    1
    32    21    15   ar
    33     8     4   ar
    34    26    27    1
    35    13    14    1
@<TRIPOS>MOLECULE
*****
 33 35 0 0 0
SMALL
GASTEIGER

@<TRIPOS>ATOM
      1 C          -3.7179    5.1669   22.6138 C.3     1  UNL1        0.0236
      2 C          -2.7237    4.5544   21.6722 C.3     1  UNL1        0.0998
      3 C          -2.9140    4.6869   20.1902 C.3     1  UNL1        0.1271
      4 N          -1.9198    4.0744   19.2487 N.ar    1  UNL1       -0.3092
      5 C          -1.8445    4.0411   17.7509 C.ar    1  UNL1        0.1785
      6 N          -0.6134    3.2755   17.3658 N.ar    1  UNL1       -0.2196
      7 C           0.0721    2.8358   18.6254 C.ar    1  UNL1        0.1494
      8 C          -0.7353    3.3295   19.7891 C.ar    1  UNL1        0.0809
      9 C          -0.5450    3.1971   21.2711 C.3     1  UNL1        0.1405
     10 N          -1.5392    3.8096   22.2126 N.am    1  UNL1       -0.2580
     11 C          -1.3488    3.6771   23.6946 C.2     1  UNL1        0.3080
     12 O          -2.3430    4.2896   24.6361 O.2     1  UNL1       -0.2522
     13 N          -0.1644    2.9323   24.2350 N.am    1  UNL1       -0.2681
     14 H           0.4881    2.5303   23.6171 H       1  UNL1        0.1564
     15 C           0.0260    2.7998   25.7171 C.ar    1  UNL1        0.0524
     16 C           0.7885    3.8480   26.4718 C.ar    1  UNL1        0.0171
     17 C           0.9789    3.7156   27.9538 C.ar    1  UNL1        0.0316
     18 C           0.4068    2.5350   28.6810 C.ar    1  UNL1        0.1497
     19 F           0.5972    2.4026   30.1629 F       1  UNL1       -0.2035
     20 C          -0.3558    1.4868   27.9262 C.ar    1  UNL1        0.0970
     21 C          -0.5462    1.6193   26.4442 C.ar    1  UNL1        0.0273
     22 C          -0.9280    0.3062   28.6532 C.1     1  UNL1        0.1027
     23 N          -1.5002   -0.8745   29.3802 N.1     1  UNL1       -0.1908
     24 C           1.3420    2.0417   18.7070 C.2     1  UNL1        0.2650
     25 O           2.6371    2.7288   19.0244 O.2     1  UNL1       -0.2684
     26 N           1.3170    0.5606   18.4711 N.am    1  UNL1       -0.2939
     27 H           0.4670    0.1096   18.2628 H       1  UNL1        0.1500
     28 C           2.5869   -0.2334   18.5527 C.3     1  UNL1        0.1676
     29 C           3.5474   -0.2324   17.4006 C.3     1  UNL1        0.0303
     30 C           2.8965   -1.0285   19.7865 C.3     1  UNL1        0.4135
     31 F           3.2060   -1.8236   21.0202 F       1  UNL1       -0.1682
     32 F           4.3638   -0.8305   19.5459 F       1  UNL1       -0.1682
     33 F           1.4292   -1.2265   20.0270 F       1  UNL1       -0.1682
@<TRIPOS>BOND
     1     2     1    1
     2     2     3    1
     3     3     4    1
     4     4     5   ar
     5     5     6   ar
     6     6     7   ar
     7     7    24    1
     8    24    25    2
     9    24    26   am
    10    26    28    1
    11    28    29    1
    12    28    30    1
    13    30    31    1
    14    30    32    1
    15    30    33    1
    16     7     8   ar
    17     8     9    1
    18     9    10    1
    19    10    11   am
    20    11    12    2
    21    11    13   am
    22    13    15    1
    23    15    16   ar
    24    16    17   ar
    25    17    18   ar
    26    18    19    1
    27    18    20   ar
    28    20    22    1
    29    22    23    3
    30    20    21   ar
    31    10     2    1
    32    21    15   ar
    33     8     4   ar
    34    26    27    1
    35    13    14    1
@<TRIPOS>MOLECULE
*****
 33 35 0 0 0
SMALL
GASTEIGER

@<TRIPOS>ATOM
      1 C           0.5425    1.5851   19.0331 C.3     1  UNL1        0.0236
      2 C           0.2663    1.8759   20.4785 C.3     1  UNL1        0.0998
      3 C          -0.7818    2.8811   20.8544 C.3     1  UNL1        0.1271
      4 N          -1.0579    3.1719   22.2998 N.ar    1  UNL1       -0.3092
      5 C          -2.0236    4.1042   22.9693 C.ar    1  UNL1        0.1785
      6 N          -1.8484    3.9661   24.4526 N.ar    1  UNL1       -0.2196
      7 C          -0.7745    2.9485   24.6998 C.ar    1  UNL1        0.1494
      8 C          -0.2859    2.4576   23.3693 C.ar    1  UNL1        0.0809
      9 C           0.7622    1.4525   22.9934 C.3     1  UNL1        0.1405
     10 N           1.0383    1.1617   21.5480 N.am    1  UNL1       -0.2580
     11 C           2.0864    0.1566   21.1722 C.2     1  UNL1        0.3080
     12 O           2.3625   -0.1342   19.7268 O.2     1  UNL1       -0.2522
     13 N           2.8583   -0.5576   22.2417 N.am    1  UNL1       -0.2681
     14 H           2.6771   -0.3667   23.1903 H       1  UNL1        0.1564
     15 C           3.9065   -1.5628   21.8658 C.ar    1  UNL1        0.0524
     16 C           4.2484   -2.6780   22.8088 C.ar    1  UNL1        0.0171
     17 C           5.2965   -3.6832   22.4331 C.ar    1  UNL1        0.0316
     18 C           6.0027   -3.5730   21.1143 C.ar    1  UNL1        0.1497
     19 F           7.0508   -4.5781   20.7386 F       1  UNL1       -0.2035
     20 C           5.6609   -2.4577   20.1713 C.ar    1  UNL1        0.0970
     21 C           4.6127   -1.4526   20.5472 C.ar    1  UNL1        0.0273
     22 C           6.3670   -2.3475   18.8526 C.1     1  UNL1        0.1027
     23 N           7.0732   -2.2373   17.5339 N.1     1  UNL1       -0.1908
     24 C          -0.2766    2.5004   26.0419 C.2     1  UNL1        0.2650
     25 O           0.3108    3.4984   26.9954 O.2     1  UNL1       -0.2684
     26 N          -0.3661    1.0544   26.4307 N.am    1  UNL1       -0.2939
     27 H          -0.7516    0.3994   25.8049 H       1  UNL1        0.1500
     28 C           0.1318    0.6065   27.7727 C.3     1  UNL1        0.1676
     29 C           1.5976    0.3729   27.9892 C.3     1  UNL1        0.0303
     30 C          -0.8360    0.3920   28.8986 C.3     1  UNL1        0.4135
     31 F          -1.8039    0.1775   30.0243 F       1  UNL1       -0.1682
     32 F          -0.3502    1.6498   29.5559 F       1  UNL1       -0.1682
     33 F          -1.3219   -0.8657   28.2412 F       1  UNL1       -0.1682
@<TRIPOS>BOND
     1     2     1    1
     2     2     3    1
     3     3     4    1
     4     4     5   ar
     5     5     6   ar
     6     6     7   ar
     7     7    24    1
     8    24    25    2
     9    24    26   am
    10    26    28    1
    11    28    29    1
    12    28    30    1
    13    30    31    1
    14    30    32    1
    15    30    33    1
    16     7     8   ar
    17     8     9    1
    18     9    10    1
    19    10    11   am
    20    11    12    2
    21    11    13   am
    22    13    15    1
    23    15    16   ar
    24    16    17   ar
    25    17    18   ar
    26    18    19    1
    27    18    20   ar
    28    20    22    1
    29    22    23    3
    30    20    21   ar
    31    10     2    1
    32    21    15   ar
    33     8     4   ar
    34    26    27    1
    35    13    14    1
