@<TRIPOS>MOLECULE
*****
 46 49 0 0 0
SMALL
GASTEIGER

@<TRIPOS>ATOM
      1 C           3.8248    0.4634   30.8118 C.2     1  UNL1        0.2491
      2 O           5.3105    0.3920   30.6182 O.2     1  UNL1       -0.2727
      3 N           2.9649    1.1286   29.7782 N.am    1  UNL1       -0.2724
      4 C           3.1990   -0.1302   32.0389 C.3     1  UNL1        0.1934
      5 C           4.1622    1.5801   35.4881 C.ar    1  UNL1        0.0529
      6 C           3.5365    1.3553   34.1436 C.ar    1  UNL1        0.0782
      7 N           3.8247    0.0946   33.3836 N.ar    1  UNL1       -0.2979
      8 C           4.7385   -0.9413   33.9682 C.ar    1  UNL1        0.1750
      9 N           5.3641   -0.7165   35.3127 N.ar    1  UNL1       -0.1847
     10 C           5.0760    0.5442   36.0727 C.ar    1  UNL1        0.2783
     11 O           5.7017    0.7689   37.4174 O.2     1  UNL1       -0.2654
     12 C           4.2437    4.1710   35.6619 C.3     1  UNL1        0.0052
     13 C           3.8740    2.8408   36.2481 C.3     1  UNL1        0.0328
     14 S           5.0266   -2.2020   33.2082 S.3     1  UNL1       -0.0724
     15 C           6.3773   -2.4137   32.5910 C.3     1  UNL1        0.0913
     16 C           6.5307   -3.3406   31.4217 C.ar    1  UNL1       -0.0108
     17 C           6.8690   -4.7843   31.6485 C.ar    1  UNL1       -0.0011
     18 C           7.0224   -5.7112   30.4792 C.ar    1  UNL1        0.0293
     19 C           6.8376   -5.1945   29.0831 C.ar    1  UNL1        0.1401
     20 F           6.9910   -6.1214   27.9138 F       1  UNL1       -0.2042
     21 C           6.4993   -3.7508   28.8565 C.ar    1  UNL1        0.0293
     22 C           6.3459   -2.8239   30.0258 C.ar    1  UNL1       -0.0011
     23 C           1.4791    1.2000   29.9718 C.3     1  UNL1        0.1111
     24 C           0.6406    2.0265   29.0425 C.3     1  UNL1        0.0939
     25 N          -0.0631    1.3761   27.8884 N.3     1  UNL1       -0.2712
     26 C          -0.1700    2.0926   26.5750 C.3     1  UNL1        0.0722
     27 C          -0.0360    1.3289   25.2909 C.3     1  UNL1        0.0188
     28 C          -0.6599    0.0092   28.0478 C.3     1  UNL1        0.0722
     29 C          -1.7599   -0.2176   29.0421 C.3     1  UNL1        0.0188
     30 C           3.5907    1.7222   28.5511 C.3     1  UNL1        0.1202
     31 C           3.6915    0.9111   27.2934 C.ar    1  UNL1       -0.0023
     32 C           3.6412    1.5902   25.9568 C.ar    1  UNL1       -0.0026
     33 C           3.7420    0.7790   24.6991 C.ar    1  UNL1       -0.0003
     34 C           3.8930   -0.7113   24.7779 C.ar    1  UNL1       -0.0000
     35 C           3.9433   -1.3904   26.1144 C.ar    1  UNL1       -0.0003
     36 C           3.8425   -0.5793   27.3721 C.ar    1  UNL1       -0.0026
     37 C           3.9938   -1.5224   23.5202 C.ar    1  UNL1       -0.0000
     38 C           3.3505   -1.0312   22.2573 C.ar    1  UNL1       -0.0001
     39 C           3.4513   -1.8424   20.9996 C.ar    1  UNL1        0.0039
     40 C           4.1954   -3.1447   21.0047 C.ar    1  UNL1        0.0714
     41 C           4.8387   -3.6360   22.2676 C.ar    1  UNL1        0.0039
     42 C           4.7379   -2.8249   23.5253 C.ar    1  UNL1       -0.0001
     43 C           4.2962   -3.9560   19.7470 C.3     1  UNL1        0.4186
     44 F           4.3969   -4.7671   18.4893 F       1  UNL1       -0.1659
     45 F           2.9164   -3.5181   19.3540 F       1  UNL1       -0.1659
     46 F           5.6760   -4.3938   20.1399 F       1  UNL1       -0.1659
@<TRIPOS>BOND
     1    12    13    1
     2    13     5    1
     3     5     6   ar
     4     6     7   ar
     5     7     4    1
     6     4     1    1
     7     1     2    2
     8     1     3   am
     9     3    23    1
    10    23    24    1
    11    24    25    1
    12    25    26    1
    13    26    27    1
    14    25    28    1
    15    28    29    1
    16     3    30    1
    17    30    31    1
    18    31    32   ar
    19    32    33   ar
    20    33    34   ar
    21    34    37    1
    22    37    38   ar
    23    38    39   ar
    24    39    40   ar
    25    40    43    1
    26    43    44    1
    27    43    45    1
    28    43    46    1
    29    40    41   ar
    30    41    42   ar
    31    34    35   ar
    32    35    36   ar
    33     7     8   ar
    34     8    14    1
    35    14    15    1
    36    15    16    1
    37    16    17   ar
    38    17    18   ar
    39    18    19   ar
    40    19    20    1
    41    19    21   ar
    42    21    22   ar
    43     8     9   ar
    44     9    10   ar
    45    10    11    2
    46    10     5   ar
    47    36    31   ar
    48    22    16   ar
    49    42    37   ar
@<TRIPOS>MOLECULE
*****
 46 49 0 0 0
SMALL
GASTEIGER

@<TRIPOS>ATOM
      1 C           4.9205    1.8268   29.3777 C.2     1  UNL1        0.2491
      2 O           6.1243    2.2062   28.5672 O.2     1  UNL1       -0.2727
      3 N           3.5504    1.9193   28.7740 N.am    1  UNL1       -0.2724
      4 C           5.0867    1.3549   30.7917 C.3     1  UNL1        0.1934
      5 C           6.1986   -2.4087   30.2007 C.ar    1  UNL1        0.0529
      6 C           5.7803   -0.9947   29.9263 C.ar    1  UNL1        0.0782
      7 N           5.5050   -0.0593   31.0662 N.ar    1  UNL1       -0.2979
      8 C           5.6481   -0.5380   32.4805 C.ar    1  UNL1        0.1750
      9 N           6.0664   -1.9521   32.7549 N.ar    1  UNL1       -0.1847
     10 C           6.3416   -2.8875   31.6150 C.ar    1  UNL1        0.2783
     11 O           6.7599   -4.3016   31.8895 O.2     1  UNL1       -0.2654
     12 C           6.7317   -2.7978   27.6879 C.3     1  UNL1        0.0052
     13 C           6.4738   -3.3441   29.0608 C.3     1  UNL1        0.0328
     14 S           5.3728    0.3973   33.6204 S.3     1  UNL1       -0.0724
     15 C           3.9777    0.5414   34.1523 C.3     1  UNL1        0.0913
     16 C           3.7465    1.1881   35.4858 C.ar    1  UNL1       -0.0108
     17 C           4.3742    0.6092   36.7191 C.ar    1  UNL1       -0.0011
     18 C           4.1429    1.2560   38.0526 C.ar    1  UNL1        0.0293
     19 C           3.2840    2.4817   38.1528 C.ar    1  UNL1        0.1401
     20 F           3.0528    3.1285   39.4863 F       1  UNL1       -0.2042
     21 C           2.6564    3.0605   36.9195 C.ar    1  UNL1        0.0293
     22 C           2.8876    2.4138   35.5860 C.ar    1  UNL1       -0.0011
     23 C           2.3466    1.5399   29.5845 C.3     1  UNL1        0.1111
     24 C           0.9928    2.0644   29.2073 C.3     1  UNL1        0.0939
     25 N           0.0422    1.1995   28.4339 N.3     1  UNL1       -0.2712
     26 C          -0.6454    1.7430   27.2167 C.3     1  UNL1        0.0722
     27 C          -0.1582    1.3663   25.8489 C.3     1  UNL1        0.0188
     28 C          -0.2208   -0.2090   28.8777 C.3     1  UNL1        0.0722
     29 C          -1.6175   -0.7555   28.8505 C.3     1  UNL1        0.0188
     30 C           3.3842    2.3912   27.3600 C.3     1  UNL1        0.1202
     31 C           3.5197    1.4205   26.2245 C.ar    1  UNL1       -0.0023
     32 C           3.5495   -0.0541   26.4980 C.ar    1  UNL1       -0.0026
     33 C           3.6850   -1.0249   25.3625 C.ar    1  UNL1       -0.0003
     34 C           3.7906   -0.5211   23.9536 C.ar    1  UNL1       -0.0000
     35 C           3.7608    0.9535   23.6801 C.ar    1  UNL1       -0.0003
     36 C           3.6253    1.9243   24.8156 C.ar    1  UNL1       -0.0026
     37 C           3.9261   -1.4918   22.8182 C.ar    1  UNL1       -0.0000
     38 C           4.6108   -2.8087   23.0350 C.ar    1  UNL1       -0.0001
     39 C           4.7463   -3.7795   21.8995 C.ar    1  UNL1        0.0039
     40 C           4.1970   -3.4334   20.5473 C.ar    1  UNL1        0.0714
     41 C           3.5123   -2.1165   20.3305 C.ar    1  UNL1        0.0039
     42 C           3.3768   -1.1457   21.4659 C.ar    1  UNL1       -0.0001
     43 C           4.3325   -4.4042   19.4118 C.3     1  UNL1        0.4186
     44 F           4.4680   -5.3749   18.2763 F       1  UNL1       -0.1659
     45 F           5.7898   -4.5688   19.7264 F       1  UNL1       -0.1659
     46 F           2.8751   -4.2395   19.0971 F       1  UNL1       -0.1659
@<TRIPOS>BOND
     1    12    13    1
     2    13     5    1
     3     5     6   ar
     4     6     7   ar
     5     7     4    1
     6     4     1    1
     7     1     2    2
     8     1     3   am
     9     3    23    1
    10    23    24    1
    11    24    25    1
    12    25    26    1
    13    26    27    1
    14    25    28    1
    15    28    29    1
    16     3    30    1
    17    30    31    1
    18    31    32   ar
    19    32    33   ar
    20    33    34   ar
    21    34    37    1
    22    37    38   ar
    23    38    39   ar
    24    39    40   ar
    25    40    43    1
    26    43    44    1
    27    43    45    1
    28    43    46    1
    29    40    41   ar
    30    41    42   ar
    31    34    35   ar
    32    35    36   ar
    33     7     8   ar
    34     8    14    1
    35    14    15    1
    36    15    16    1
    37    16    17   ar
    38    17    18   ar
    39    18    19   ar
    40    19    20    1
    41    19    21   ar
    42    21    22   ar
    43     8     9   ar
    44     9    10   ar
    45    10    11    2
    46    10     5   ar
    47    36    31   ar
    48    22    16   ar
    49    42    37   ar
@<TRIPOS>MOLECULE
*****
 46 49 0 0 0
SMALL
GASTEIGER

@<TRIPOS>ATOM
      1 C           4.0209   -0.2012   25.4414 C.2     1  UNL1        0.2491
      2 O           4.1980    0.5528   24.1568 O.2     1  UNL1       -0.2727
      3 N           3.4768    0.4975   26.6522 N.am    1  UNL1       -0.2724
      4 C           4.3880   -1.6536   25.5153 C.3     1  UNL1        0.1934
      5 C           4.6753   -2.9882   21.7888 C.ar    1  UNL1        0.0529
      6 C           4.1529   -2.2838   23.0057 C.ar    1  UNL1        0.0782
      7 N           4.9104   -2.3581   24.2983 N.ar    1  UNL1       -0.2979
      8 C           6.1902   -3.1367   24.3740 C.ar    1  UNL1        0.1750
      9 N           6.7126   -3.8411   23.1571 N.ar    1  UNL1       -0.1847
     10 C           5.9551   -3.7669   21.8645 C.ar    1  UNL1        0.2783
     11 O           6.4775   -4.4713   20.6475 O.2     1  UNL1       -0.2654
     12 C           3.5181   -1.5809   19.9367 C.3     1  UNL1        0.0052
     13 C           3.9178   -2.9140   20.4963 C.3     1  UNL1        0.0328
     14 S           6.9477   -3.2110   25.6666 S.3     1  UNL1       -0.0724
     15 C           6.8949   -4.4595   26.4961 C.3     1  UNL1        0.0913
     16 C           6.8264   -4.3641   27.9915 C.ar    1  UNL1       -0.0108
     17 C           6.9898   -5.5972   28.8300 C.ar    1  UNL1       -0.0011
     18 C           6.9213   -5.5018   30.3253 C.ar    1  UNL1        0.0293
     19 C           6.6895   -4.1733   30.9823 C.ar    1  UNL1        0.1401
     20 F           6.6210   -4.0779   32.4777 F       1  UNL1       -0.2042
     21 C           6.5261   -2.9404   30.1438 C.ar    1  UNL1        0.0293
     22 C           6.5946   -3.0358   28.6484 C.ar    1  UNL1       -0.0011
     23 C           3.2997   -0.2564   27.9368 C.3     1  UNL1        0.1111
     24 C           1.9215   -0.5789   28.4333 C.3     1  UNL1        0.0939
     25 N           1.1226    0.4632   29.1583 N.3     1  UNL1       -0.2712
     26 C           1.7827    1.3338   30.1860 C.3     1  UNL1        0.0722
     27 C           1.1730    2.6539   30.5540 C.3     1  UNL1        0.0188
     28 C          -0.3365    0.6347   28.8557 C.3     1  UNL1        0.0722
     29 C          -1.2399   -0.5621   28.8158 C.3     1  UNL1        0.0188
     30 C           3.1097    1.9500   26.5783 C.3     1  UNL1        0.1202
     31 C           1.6925    2.3519   26.2956 C.ar    1  UNL1       -0.0023
     32 C           1.1484    3.6301   26.8614 C.ar    1  UNL1       -0.0026
     33 C          -0.2689    4.0320   26.5788 C.ar    1  UNL1       -0.0003
     34 C          -1.1420    3.1558   25.7303 C.ar    1  UNL1       -0.0000
     35 C          -0.5978    1.8776   25.1645 C.ar    1  UNL1       -0.0003
     36 C           0.8194    1.4756   25.4472 C.ar    1  UNL1       -0.0026
     37 C          -2.5592    3.5577   25.4477 C.ar    1  UNL1       -0.0000
     38 C          -3.0630    3.5871   24.0351 C.ar    1  UNL1       -0.0001
     39 C          -4.4803    3.9890   23.7525 C.ar    1  UNL1        0.0039
     40 C          -5.3937    4.3616   24.8825 C.ar    1  UNL1        0.0714
     41 C          -4.8899    4.3323   26.2950 C.ar    1  UNL1        0.0039
     42 C          -3.4727    3.9304   26.5777 C.ar    1  UNL1       -0.0001
     43 C          -6.8110    4.7636   24.5999 C.3     1  UNL1        0.4186
     44 F          -8.2282    5.1656   24.3173 F       1  UNL1       -0.1659
     45 F          -6.8544    5.5204   25.8942 F       1  UNL1       -0.1659
     46 F          -6.7676    4.0069   23.3055 F       1  UNL1       -0.1659
@<TRIPOS>BOND
     1    12    13    1
     2    13     5    1
     3     5     6   ar
     4     6     7   ar
     5     7     4    1
     6     4     1    1
     7     1     2    2
     8     1     3   am
     9     3    23    1
    10    23    24    1
    11    24    25    1
    12    25    26    1
    13    26    27    1
    14    25    28    1
    15    28    29    1
    16     3    30    1
    17    30    31    1
    18    31    32   ar
    19    32    33   ar
    20    33    34   ar
    21    34    37    1
    22    37    38   ar
    23    38    39   ar
    24    39    40   ar
    25    40    43    1
    26    43    44    1
    27    43    45    1
    28    43    46    1
    29    40    41   ar
    30    41    42   ar
    31    34    35   ar
    32    35    36   ar
    33     7     8   ar
    34     8    14    1
    35    14    15    1
    36    15    16    1
    37    16    17   ar
    38    17    18   ar
    39    18    19   ar
    40    19    20    1
    41    19    21   ar
    42    21    22   ar
    43     8     9   ar
    44     9    10   ar
    45    10    11    2
    46    10     5   ar
    47    36    31   ar
    48    22    16   ar
    49    42    37   ar
@<TRIPOS>MOLECULE
*****
 46 49 0 0 0
SMALL
GASTEIGER

@<TRIPOS>ATOM
      1 C           4.1358   -0.9631   28.3640 C.2     1  UNL1        0.2491
      2 O           3.0335   -1.6574   27.6203 O.2     1  UNL1       -0.2727
      3 N           3.8127   -0.0884   29.5390 N.am    1  UNL1       -0.2724
      4 C           5.5610   -1.1435   27.9327 C.3     1  UNL1        0.1934
      5 C           6.8889   -4.8834   27.9329 C.ar    1  UNL1        0.0529
      6 C           6.4173   -3.5468   28.4238 C.ar    1  UNL1        0.0782
      7 N           6.0326   -2.4802   27.4417 N.ar    1  UNL1       -0.2979
      8 C           6.1196   -2.7502   25.9688 C.ar    1  UNL1        0.1750
      9 N           6.5912   -4.0868   25.4780 N.ar    1  UNL1       -0.1847
     10 C           6.9758   -5.1534   26.4600 C.ar    1  UNL1        0.2783
     11 O           7.4474   -6.4901   25.9691 O.2     1  UNL1       -0.2654
     12 C           7.0916   -5.7165   30.3854 C.3     1  UNL1        0.0052
     13 C           7.2735   -5.9500   28.9150 C.3     1  UNL1        0.0328
     14 S           5.7349   -1.6836   24.9868 S.3     1  UNL1       -0.0724
     15 C           4.3604   -1.6774   24.3863 C.3     1  UNL1        0.0913
     16 C           4.1615   -2.1102   22.9639 C.ar    1  UNL1       -0.0108
     17 C           3.4797   -1.1955   21.9900 C.ar    1  UNL1       -0.0011
     18 C           3.2807   -1.6282   20.5676 C.ar    1  UNL1        0.0293
     19 C           3.7636   -2.9758   20.1192 C.ar    1  UNL1        0.1401
     20 F           3.5646   -3.4086   18.6968 F       1  UNL1       -0.2042
     21 C           4.4454   -3.8905   21.0930 C.ar    1  UNL1        0.0293
     22 C           4.6443   -3.4577   22.5154 C.ar    1  UNL1       -0.0011
     23 C           4.9149    0.6059   30.2826 C.3     1  UNL1        0.1111
     24 C           4.8473    0.7346   31.7755 C.3     1  UNL1        0.0939
     25 N           5.0900   -0.4645   32.6435 N.3     1  UNL1       -0.2712
     26 C           6.0555   -1.5251   32.2044 C.3     1  UNL1        0.0722
     27 C           5.7466   -2.9712   32.4562 C.3     1  UNL1        0.0188
     28 C           4.3672   -0.6029   33.9505 C.3     1  UNL1        0.0722
     29 C           5.1385   -0.6099   35.2370 C.3     1  UNL1        0.0188
     30 C           2.3874    0.0920   29.9703 C.3     1  UNL1        0.1202
     31 C           1.4076    0.7682   29.0577 C.ar    1  UNL1       -0.0023
     32 C           0.0325    0.1965   28.8778 C.ar    1  UNL1       -0.0026
     33 C          -0.9473    0.8728   27.9652 C.ar    1  UNL1       -0.0003
     34 C          -0.5520    2.1205   27.2326 C.ar    1  UNL1       -0.0000
     35 C           0.8231    2.6922   27.4126 C.ar    1  UNL1       -0.0003
     36 C           1.8029    2.0160   28.3251 C.ar    1  UNL1       -0.0026
     37 C          -1.5318    2.7967   26.3201 C.ar    1  UNL1       -0.0000
     38 C          -2.8307    3.3131   26.8645 C.ar    1  UNL1       -0.0001
     39 C          -3.8105    3.9892   25.9519 C.ar    1  UNL1        0.0039
     40 C          -3.4915    4.1490   24.4950 C.ar    1  UNL1        0.0714
     41 C          -2.1926    3.6326   23.9506 C.ar    1  UNL1        0.0039
     42 C          -1.2128    2.9565   24.8631 C.ar    1  UNL1       -0.0001
     43 C          -4.4713    4.8252   23.5824 C.3     1  UNL1        0.4186
     44 F          -5.4511    5.5013   22.6698 F       1  UNL1       -0.1659
     45 F          -3.4202    5.8215   23.1921 F       1  UNL1       -0.1659
     46 F          -5.5225    3.8288   23.9726 F       1  UNL1       -0.1659
@<TRIPOS>BOND
     1    12    13    1
     2    13     5    1
     3     5     6   ar
     4     6     7   ar
     5     7     4    1
     6     4     1    1
     7     1     2    2
     8     1     3   am
     9     3    23    1
    10    23    24    1
    11    24    25    1
    12    25    26    1
    13    26    27    1
    14    25    28    1
    15    28    29    1
    16     3    30    1
    17    30    31    1
    18    31    32   ar
    19    32    33   ar
    20    33    34   ar
    21    34    37    1
    22    37    38   ar
    23    38    39   ar
    24    39    40   ar
    25    40    43    1
    26    43    44    1
    27    43    45    1
    28    43    46    1
    29    40    41   ar
    30    41    42   ar
    31    34    35   ar
    32    35    36   ar
    33     7     8   ar
    34     8    14    1
    35    14    15    1
    36    15    16    1
    37    16    17   ar
    38    17    18   ar
    39    18    19   ar
    40    19    20    1
    41    19    21   ar
    42    21    22   ar
    43     8     9   ar
    44     9    10   ar
    45    10    11    2
    46    10     5   ar
    47    36    31   ar
    48    22    16   ar
    49    42    37   ar
@<TRIPOS>MOLECULE
*****
 46 49 0 0 0
SMALL
GASTEIGER

@<TRIPOS>ATOM
      1 C           3.8522    0.5605   25.2043 C.2     1  UNL1        0.2491
      2 O           3.8790    1.5959   24.1193 O.2     1  UNL1       -0.2727
      3 N           3.3078    0.9070   26.5585 N.am    1  UNL1       -0.2724
      4 C           4.3698   -0.8214   24.9352 C.3     1  UNL1        0.1934
      5 C           3.3070   -1.5650   21.1845 C.ar    1  UNL1        0.0529
      6 C           3.2777   -1.0351   22.5875 C.ar    1  UNL1        0.0782
      7 N           4.3991   -1.3513   23.5322 N.ar    1  UNL1       -0.2979
      8 C           5.5497   -2.1975   23.0740 C.ar    1  UNL1        0.1750
      9 N           5.5790   -2.7274   21.6710 N.ar    1  UNL1       -0.1847
     10 C           4.4576   -2.4111   20.7263 C.ar    1  UNL1        0.2783
     11 O           4.4869   -2.9411   19.3233 O.2     1  UNL1       -0.2654
     12 C           1.1922   -0.1795   20.5860 C.3     1  UNL1        0.0052
     13 C           2.1856   -1.2487   20.2398 C.3     1  UNL1        0.0328
     14 S           6.6711   -2.5137   24.0187 S.3     1  UNL1       -0.0724
     15 C           7.6319   -3.6202   23.6986 C.3     1  UNL1        0.0913
     16 C           7.5731   -4.9093   24.4634 C.ar    1  UNL1       -0.0108
     17 C           6.8522   -4.9695   25.7775 C.ar    1  UNL1       -0.0011
     18 C           6.7934   -6.2585   26.5422 C.ar    1  UNL1        0.0293
     19 C           7.4554   -7.4874   25.9929 C.ar    1  UNL1        0.1401
     20 F           7.3966   -8.7765   26.7576 F       1  UNL1       -0.2042
     21 C           8.1763   -7.4271   24.6789 C.ar    1  UNL1        0.0293
     22 C           8.2351   -6.1381   23.9141 C.ar    1  UNL1       -0.0011
     23 C           3.2810   -0.1284   27.6434 C.3     1  UNL1        0.1111
     24 C           1.9710   -0.5765   28.2204 C.3     1  UNL1        0.0939
     25 N           1.1735    0.3558   29.0835 N.3     1  UNL1       -0.2712
     26 C          -0.2873    0.5630   28.8134 C.3     1  UNL1        0.0722
     27 C          -1.2305   -0.6026   28.8551 C.3     1  UNL1        0.0188
     28 C           1.8369    1.0807   30.2168 C.3     1  UNL1        0.0722
     29 C           1.0184    1.9237   31.1493 C.3     1  UNL1        0.0188
     30 C           2.7903    2.2889   26.8275 C.3     1  UNL1        0.1202
     31 C           1.3755    2.6416   26.4756 C.ar    1  UNL1       -0.0023
     32 C           0.6339    1.8347   25.4514 C.ar    1  UNL1       -0.0026
     33 C          -0.7809    2.1874   25.0994 C.ar    1  UNL1       -0.0003
     34 C          -1.4542    3.3470   25.7716 C.ar    1  UNL1       -0.0000
     35 C          -0.7126    4.1540   26.7958 C.ar    1  UNL1       -0.0003
     36 C           0.7021    3.8013   27.1478 C.ar    1  UNL1       -0.0026
     37 C          -2.8690    3.6997   25.4197 C.ar    1  UNL1       -0.0000
     38 C          -3.8078    4.1855   26.4839 C.ar    1  UNL1       -0.0001
     39 C          -5.2227    4.5382   26.1319 C.ar    1  UNL1        0.0039
     40 C          -5.6986    4.4051   24.7156 C.ar    1  UNL1        0.0714
     41 C          -4.7598    3.9193   23.6514 C.ar    1  UNL1        0.0039
     42 C          -3.3450    3.5666   24.0034 C.ar    1  UNL1       -0.0001
     43 C          -7.1135    4.7578   24.3636 C.3     1  UNL1        0.4186
     44 F          -8.5283    5.1105   24.0116 F       1  UNL1       -0.1659
     45 F          -7.1812    5.6715   25.5513 F       1  UNL1       -0.1659
     46 F          -7.0458    3.8441   23.1759 F       1  UNL1       -0.1659
@<TRIPOS>BOND
     1    12    13    1
     2    13     5    1
     3     5     6   ar
     4     6     7   ar
     5     7     4    1
     6     4     1    1
     7     1     2    2
     8     1     3   am
     9     3    23    1
    10    23    24    1
    11    24    25    1
    12    25    26    1
    13    26    27    1
    14    25    28    1
    15    28    29    1
    16     3    30    1
    17    30    31    1
    18    31    32   ar
    19    32    33   ar
    20    33    34   ar
    21    34    37    1
    22    37    38   ar
    23    38    39   ar
    24    39    40   ar
    25    40    43    1
    26    43    44    1
    27    43    45    1
    28    43    46    1
    29    40    41   ar
    30    41    42   ar
    31    34    35   ar
    32    35    36   ar
    33     7     8   ar
    34     8    14    1
    35    14    15    1
    36    15    16    1
    37    16    17   ar
    38    17    18   ar
    39    18    19   ar
    40    19    20    1
    41    19    21   ar
    42    21    22   ar
    43     8     9   ar
    44     9    10   ar
    45    10    11    2
    46    10     5   ar
    47    36    31   ar
    48    22    16   ar
    49    42    37   ar
@<TRIPOS>MOLECULE
*****
 46 49 0 0 0
SMALL
GASTEIGER

@<TRIPOS>ATOM
      1 C           2.9446    0.2039   30.1112 C.2     1  UNL1        0.2491
      2 O           1.6834   -0.5320   29.7681 O.2     1  UNL1       -0.2727
      3 N           3.4765    1.2544   29.1819 N.am    1  UNL1       -0.2724
      4 C           3.6740   -0.1107   31.3836 C.3     1  UNL1        0.1934
      5 C           6.3527   -2.7825   30.1851 C.ar    1  UNL1        0.0529
      6 C           5.3498   -1.6676   30.1516 C.ar    1  UNL1        0.0782
      7 N           4.6769   -1.2257   31.4172 N.ar    1  UNL1       -0.2979
      8 C           5.0069   -1.8988   32.7165 C.ar    1  UNL1        0.1750
      9 N           6.0097   -3.0137   32.7500 N.ar    1  UNL1       -0.1847
     10 C           6.6827   -3.4555   31.4843 C.ar    1  UNL1        0.2783
     11 O           7.6856   -4.5705   31.5180 O.2     1  UNL1       -0.2654
     12 C           7.1889   -2.2612   27.7812 C.3     1  UNL1        0.0052
     13 C           7.0256   -3.2243   28.9194 C.3     1  UNL1        0.0328
     14 S           4.3339   -1.4569   33.9821 S.3     1  UNL1       -0.0724
     15 C           5.0559   -0.5571   34.9407 C.3     1  UNL1        0.0913
     16 C           4.2953    0.4773   35.7162 C.ar    1  UNL1       -0.0108
     17 C           4.2839    0.4325   37.2156 C.ar    1  UNL1       -0.0011
     18 C           3.5233    1.4670   37.9910 C.ar    1  UNL1        0.0293
     19 C           2.7740    2.5462   37.2672 C.ar    1  UNL1        0.1401
     20 F           2.0134    3.5807   38.0426 F       1  UNL1       -0.2042
     21 C           2.7855    2.5910   35.7679 C.ar    1  UNL1        0.0293
     22 C           3.5461    1.5566   34.9924 C.ar    1  UNL1       -0.0011
     23 C           4.7378    1.9902   29.5250 C.3     1  UNL1        0.1111
     24 C           4.6655    3.3338   30.1879 C.3     1  UNL1        0.0939
     25 N           3.3437    3.8726   30.6489 N.3     1  UNL1       -0.2712
     26 C           2.8118    3.4990   32.0007 C.3     1  UNL1        0.0722
     27 C           1.3548    3.1873   32.1735 C.3     1  UNL1        0.0188
     28 C           2.5538    4.7849   29.7581 C.3     1  UNL1        0.0722
     29 C           3.2501    5.5860   28.6982 C.3     1  UNL1        0.0188
     30 C           2.7471    1.5689   27.9095 C.3     1  UNL1        0.1202
     31 C           2.9889    0.7413   26.6822 C.ar    1  UNL1       -0.0023
     32 C           4.0335   -0.3352   26.6972 C.ar    1  UNL1       -0.0026
     33 C           4.2753   -1.1629   25.4698 C.ar    1  UNL1       -0.0003
     34 C           3.4725   -0.9141   24.2274 C.ar    1  UNL1       -0.0000
     35 C           2.4279    0.1623   24.2123 C.ar    1  UNL1       -0.0003
     36 C           2.1861    0.9900   25.4396 C.ar    1  UNL1       -0.0026
     37 C           3.7143   -1.7418   23.0000 C.ar    1  UNL1       -0.0000
     38 C           3.1619   -1.3006   21.6771 C.ar    1  UNL1       -0.0001
     39 C           3.4038   -2.1284   20.4497 C.ar    1  UNL1        0.0039
     40 C           4.1979   -3.3973   20.5453 C.ar    1  UNL1        0.0714
     41 C           4.7503   -3.8385   21.8683 C.ar    1  UNL1        0.0039
     42 C           4.5085   -3.0108   23.0956 C.ar    1  UNL1       -0.0001
     43 C           4.4398   -4.2250   19.3179 C.3     1  UNL1        0.4186
     44 F           4.6816   -5.0527   18.0906 F       1  UNL1       -0.1659
     45 F           5.5661   -3.3151   18.9262 F       1  UNL1       -0.1659
     46 F           3.3135   -5.1350   19.7096 F       1  UNL1       -0.1659
@<TRIPOS>BOND
     1    12    13    1
     2    13     5    1
     3     5     6   ar
     4     6     7   ar
     5     7     4    1
     6     4     1    1
     7     1     2    2
     8     1     3   am
     9     3    23    1
    10    23    24    1
    11    24    25    1
    12    25    26    1
    13    26    27    1
    14    25    28    1
    15    28    29    1
    16     3    30    1
    17    30    31    1
    18    31    32   ar
    19    32    33   ar
    20    33    34   ar
    21    34    37    1
    22    37    38   ar
    23    38    39   ar
    24    39    40   ar
    25    40    43    1
    26    43    44    1
    27    43    45    1
    28    43    46    1
    29    40    41   ar
    30    41    42   ar
    31    34    35   ar
    32    35    36   ar
    33     7     8   ar
    34     8    14    1
    35    14    15    1
    36    15    16    1
    37    16    17   ar
    38    17    18   ar
    39    18    19   ar
    40    19    20    1
    41    19    21   ar
    42    21    22   ar
    43     8     9   ar
    44     9    10   ar
    45    10    11    2
    46    10     5   ar
    47    36    31   ar
    48    22    16   ar
    49    42    37   ar
@<TRIPOS>MOLECULE
*****
 46 49 0 0 0
SMALL
GASTEIGER

@<TRIPOS>ATOM
      1 C           4.0444   -0.2237   26.3537 C.2     1  UNL1        0.2491
      2 O           4.5679    0.5933   25.2099 O.2     1  UNL1       -0.2727
      3 N           3.1649    0.4125   27.3891 N.am    1  UNL1       -0.2724
      4 C           4.4004   -1.6767   26.4623 C.3     1  UNL1        0.1934
      5 C           7.0805   -2.4889   29.2743 C.ar    1  UNL1        0.0529
      6 C           5.7967   -2.0784   28.6162 C.ar    1  UNL1        0.0782
      7 N           5.6843   -2.0873   27.1204 N.ar    1  UNL1       -0.2979
      8 C           6.8558   -2.5066   26.2828 C.ar    1  UNL1        0.1750
      9 N           8.1397   -2.9171   26.9409 N.ar    1  UNL1       -0.1847
     10 C           8.2520   -2.9083   28.4366 C.ar    1  UNL1        0.2783
     11 O           9.5360   -3.3188   29.0947 O.2     1  UNL1       -0.2654
     12 C           6.8487   -3.7109   31.5553 C.3     1  UNL1        0.0052
     13 C           7.1929   -2.4801   30.7700 C.3     1  UNL1        0.0328
     14 S           6.7435   -2.5155   24.7870 S.3     1  UNL1       -0.0724
     15 C           6.4242   -3.7917   24.0664 C.3     1  UNL1        0.0913
     16 C           6.0680   -3.7616   22.6096 C.ar    1  UNL1       -0.0108
     17 C           7.1484   -3.6441   21.5756 C.ar    1  UNL1       -0.0011
     18 C           6.7922   -3.6140   20.1189 C.ar    1  UNL1        0.0293
     19 C           5.3556   -3.7013   19.6961 C.ar    1  UNL1        0.1401
     20 F           4.9994   -3.6712   18.2393 F       1  UNL1       -0.2042
     21 C           4.2753   -3.8187   20.7300 C.ar    1  UNL1        0.0293
     22 C           4.6315   -3.8489   22.1868 C.ar    1  UNL1       -0.0011
     23 C           2.6414   -0.4045   28.5330 C.3     1  UNL1        0.1111
     24 C           2.1872    0.2724   29.7921 C.3     1  UNL1        0.0939
     25 N           0.7370    0.6045   29.9838 N.3     1  UNL1       -0.2712
     26 C           0.3314    1.6390   30.9915 C.3     1  UNL1        0.0722
     27 C           0.8080    3.0539   30.8472 C.3     1  UNL1        0.0188
     28 C          -0.3075   -0.0977   29.1679 C.3     1  UNL1        0.0722
     29 C          -1.5890    0.6032   28.8263 C.3     1  UNL1        0.0188
     30 C           2.8089    1.8655   27.2805 C.3     1  UNL1        0.1202
     31 C           1.4294    2.2697   26.8521 C.ar    1  UNL1       -0.0023
     32 C           0.8164    3.5293   27.3885 C.ar    1  UNL1       -0.0026
     33 C          -0.5632    3.9335   26.9601 C.ar    1  UNL1       -0.0003
     34 C          -1.3296    3.0781   25.9953 C.ar    1  UNL1       -0.0000
     35 C          -0.7166    1.8186   25.4589 C.ar    1  UNL1       -0.0003
     36 C           0.6629    1.4144   25.8873 C.ar    1  UNL1       -0.0026
     37 C          -2.7091    3.4823   25.5669 C.ar    1  UNL1       -0.0000
     38 C          -3.7066    3.9435   26.5879 C.ar    1  UNL1       -0.0001
     39 C          -5.0861    4.3477   26.1594 C.ar    1  UNL1        0.0039
     40 C          -5.4682    4.2908   24.7100 C.ar    1  UNL1        0.0714
     41 C          -4.4707    3.8296   23.6890 C.ar    1  UNL1        0.0039
     42 C          -3.0912    3.4254   24.1174 C.ar    1  UNL1       -0.0001
     43 C          -6.8477    4.6950   24.2815 C.3     1  UNL1        0.4186
     44 F          -8.2272    5.0992   23.8531 F       1  UNL1       -0.1659
     45 F          -6.9671    5.5714   25.4929 F       1  UNL1       -0.1659
     46 F          -6.7284    3.8185   23.0702 F       1  UNL1       -0.1659
@<TRIPOS>BOND
     1    12    13    1
     2    13     5    1
     3     5     6   ar
     4     6     7   ar
     5     7     4    1
     6     4     1    1
     7     1     2    2
     8     1     3   am
     9     3    23    1
    10    23    24    1
    11    24    25    1
    12    25    26    1
    13    26    27    1
    14    25    28    1
    15    28    29    1
    16     3    30    1
    17    30    31    1
    18    31    32   ar
    19    32    33   ar
    20    33    34   ar
    21    34    37    1
    22    37    38   ar
    23    38    39   ar
    24    39    40   ar
    25    40    43    1
    26    43    44    1
    27    43    45    1
    28    43    46    1
    29    40    41   ar
    30    41    42   ar
    31    34    35   ar
    32    35    36   ar
    33     7     8   ar
    34     8    14    1
    35    14    15    1
    36    15    16    1
    37    16    17   ar
    38    17    18   ar
    39    18    19   ar
    40    19    20    1
    41    19    21   ar
    42    21    22   ar
    43     8     9   ar
    44     9    10   ar
    45    10    11    2
    46    10     5   ar
    47    36    31   ar
    48    22    16   ar
    49    42    37   ar
@<TRIPOS>MOLECULE
*****
 46 49 0 0 0
SMALL
GASTEIGER

@<TRIPOS>ATOM
      1 C           4.2224   -1.1554   28.4943 C.2     1  UNL1        0.2491
      2 O           3.1526   -1.7105   27.6012 O.2     1  UNL1       -0.2727
      3 N           3.8466   -0.4056   29.7380 N.am    1  UNL1       -0.2724
      4 C           5.6677   -1.3502   28.1437 C.3     1  UNL1        0.1934
      5 C           7.0513   -5.0692   28.2085 C.ar    1  UNL1        0.0529
      6 C           6.5670   -3.7288   28.6761 C.ar    1  UNL1        0.0782
      7 N           6.1521   -2.6906   27.6761 N.ar    1  UNL1       -0.2979
      8 C           6.2215   -2.9928   26.2085 C.ar    1  UNL1        0.1750
      9 N           6.7058   -4.3333   25.7410 N.ar    1  UNL1       -0.1847
     10 C           7.1208   -5.3715   26.7409 C.ar    1  UNL1        0.2783
     11 O           7.6051   -6.7119   26.2733 O.2     1  UNL1       -0.2654
     12 C           8.9162   -6.2820   29.5507 C.3     1  UNL1        0.0052
     13 C           7.4663   -6.1074   29.2085 C.3     1  UNL1        0.0328
     14 S           5.8066   -1.9547   25.2085 S.3     1  UNL1       -0.0724
     15 C           4.8888   -2.3239   24.0810 C.3     1  UNL1        0.0913
     16 C           3.8546   -1.3471   23.6052 C.ar    1  UNL1       -0.0108
     17 C           3.4469   -1.3301   22.1617 C.ar    1  UNL1       -0.0011
     18 C           2.4127   -0.3533   21.6859 C.ar    1  UNL1        0.0293
     19 C           1.7863    0.6065   22.6536 C.ar    1  UNL1        0.1401
     20 F           0.7521    1.5833   22.1778 F       1  UNL1       -0.2042
     21 C           2.1940    0.5895   24.0970 C.ar    1  UNL1        0.0293
     22 C           3.2282   -0.3873   24.5728 C.ar    1  UNL1       -0.0011
     23 C           4.9164    0.1495   30.6310 C.3     1  UNL1        0.1111
     24 C           4.6327    0.3832   32.0853 C.3     1  UNL1        0.0939
     25 N           4.9869   -0.6663   33.0967 N.3     1  UNL1       -0.2712
     26 C           4.7211   -2.1126   32.8013 C.3     1  UNL1        0.0722
     27 C           5.8475   -3.0132   32.3886 C.3     1  UNL1        0.0188
     28 C           5.6070   -0.2694   34.4036 C.3     1  UNL1        0.0722
     29 C           4.8698   -0.5108   35.6875 C.3     1  UNL1        0.0188
     30 C           2.4013   -0.2109   30.0885 C.3     1  UNL1        0.1202
     31 C           1.4857    0.4932   29.1315 C.ar    1  UNL1       -0.0023
     32 C           1.9749    1.6871   28.3664 C.ar    1  UNL1       -0.0026
     33 C           1.0592    2.3912   27.4094 C.ar    1  UNL1       -0.0003
     34 C          -0.3454    1.9014   27.2174 C.ar    1  UNL1       -0.0000
     35 C          -0.8346    0.7075   27.9824 C.ar    1  UNL1       -0.0003
     36 C           0.0810    0.0034   28.9395 C.ar    1  UNL1       -0.0026
     37 C          -1.2610    2.6055   26.2603 C.ar    1  UNL1       -0.0000
     38 C          -2.5694    3.1579   26.7429 C.ar    1  UNL1       -0.0001
     39 C          -3.4850    3.8620   25.7858 C.ar    1  UNL1        0.0039
     40 C          -3.0921    4.0137   24.3462 C.ar    1  UNL1        0.0714
     41 C          -1.7836    3.4614   23.8636 C.ar    1  UNL1        0.0039
     42 C          -0.8681    2.7573   24.8206 C.ar    1  UNL1       -0.0001
     43 C          -4.0077    4.7179   23.3890 C.3     1  UNL1        0.4186
     44 F          -4.9231    5.4220   22.4320 F       1  UNL1       -0.1659
     45 F          -3.3127    6.0152   23.6788 F       1  UNL1       -0.1659
     46 F          -4.7026    3.4206   23.0993 F       1  UNL1       -0.1659
@<TRIPOS>BOND
     1    12    13    1
     2    13     5    1
     3     5     6   ar
     4     6     7   ar
     5     7     4    1
     6     4     1    1
     7     1     2    2
     8     1     3   am
     9     3    23    1
    10    23    24    1
    11    24    25    1
    12    25    26    1
    13    26    27    1
    14    25    28    1
    15    28    29    1
    16     3    30    1
    17    30    31    1
    18    31    32   ar
    19    32    33   ar
    20    33    34   ar
    21    34    37    1
    22    37    38   ar
    23    38    39   ar
    24    39    40   ar
    25    40    43    1
    26    43    44    1
    27    43    45    1
    28    43    46    1
    29    40    41   ar
    30    41    42   ar
    31    34    35   ar
    32    35    36   ar
    33     7     8   ar
    34     8    14    1
    35    14    15    1
    36    15    16    1
    37    16    17   ar
    38    17    18   ar
    39    18    19   ar
    40    19    20    1
    41    19    21   ar
    42    21    22   ar
    43     8     9   ar
    44     9    10   ar
    45    10    11    2
    46    10     5   ar
    47    36    31   ar
    48    22    16   ar
    49    42    37   ar
@<TRIPOS>MOLECULE
*****
 46 49 0 0 0
SMALL
GASTEIGER

@<TRIPOS>ATOM
      1 C          -1.5397    3.2310   25.7881 C.2     1  UNL1        0.2491
      2 O          -2.5237    3.9363   26.6737 O.2     1  UNL1       -0.2727
      3 N          -0.8575    1.9844   26.2685 N.am    1  UNL1       -0.2724
      4 C          -1.2378    3.7723   24.4221 C.3     1  UNL1        0.1934
      5 C          -4.6807    3.6797   22.4502 C.ar    1  UNL1        0.0529
      6 C          -3.6879    3.8519   23.5614 C.ar    1  UNL1        0.0782
      7 N          -2.2306    3.6000   23.3109 N.ar    1  UNL1       -0.2979
      8 C          -1.7660    3.1757   21.9492 C.ar    1  UNL1        0.1750
      9 N          -2.7588    3.0035   20.8380 N.ar    1  UNL1       -0.1847
     10 C          -4.2161    3.2554   21.0885 C.ar    1  UNL1        0.2783
     11 O          -5.2089    3.0831   19.9773 O.2     1  UNL1       -0.2654
     12 C          -6.5820    4.5381   23.9988 C.3     1  UNL1        0.0052
     13 C          -6.1380    3.9316   22.7007 C.3     1  UNL1        0.0328
     14 S          -0.3087    2.9237   21.6987 S.3     1  UNL1       -0.0724
     15 C           0.1957    2.7726   20.2942 C.3     1  UNL1        0.0913
     16 C           1.0246    1.5800   19.9193 C.ar    1  UNL1       -0.0108
     17 C           1.0177    0.3583   20.7896 C.ar    1  UNL1       -0.0011
     18 C           1.8467   -0.8343   20.4146 C.ar    1  UNL1        0.0293
     19 C           2.6826   -0.8051   19.1694 C.ar    1  UNL1        0.1401
     20 F           3.5115   -1.9977   18.7944 F       1  UNL1       -0.2042
     21 C           2.6894    0.4166   18.2992 C.ar    1  UNL1        0.0293
     22 C           1.8605    1.6092   18.6741 C.ar    1  UNL1       -0.0011
     23 C           0.1265    1.2791   25.3829 C.3     1  UNL1        0.1111
     24 C           1.5698    1.6875   25.3910 C.3     1  UNL1        0.0939
     25 N           2.6448    0.6446   25.3090 N.3     1  UNL1       -0.2712
     26 C           3.5267    0.3819   26.4936 C.3     1  UNL1        0.0722
     27 C           3.8931    1.5038   27.4194 C.3     1  UNL1        0.0188
     28 C           2.8380   -0.1355   24.0426 C.3     1  UNL1        0.0722
     29 C           3.7720   -1.3090   24.0196 C.3     1  UNL1        0.0188
     30 C          -1.1593    1.4432   27.6345 C.3     1  UNL1        0.1202
     31 C          -0.0449    1.2041   28.6095 C.ar    1  UNL1       -0.0023
     32 C           0.4932    2.3408   29.4271 C.ar    1  UNL1       -0.0026
     33 C           1.6077    2.1016   30.4022 C.ar    1  UNL1       -0.0003
     34 C           2.1841    0.7257   30.5596 C.ar    1  UNL1       -0.0000
     35 C           1.6461   -0.4109   29.7420 C.ar    1  UNL1       -0.0003
     36 C           0.5316   -0.1718   28.7670 C.ar    1  UNL1       -0.0026
     37 C           3.2986    0.4866   31.5347 C.ar    1  UNL1       -0.0000
     38 C           3.1705    0.9623   32.9515 C.ar    1  UNL1       -0.0001
     39 C           4.2851    0.7231   33.9265 C.ar    1  UNL1        0.0039
     40 C           5.5276    0.0083   33.4847 C.ar    1  UNL1        0.0714
     41 C           5.6556   -0.4673   32.0679 C.ar    1  UNL1        0.0039
     42 C           4.5412   -0.2282   31.0929 C.ar    1  UNL1       -0.0001
     43 C           6.6422   -0.2309   34.4598 C.3     1  UNL1        0.4186
     44 F           7.7567   -0.4700   35.4348 F       1  UNL1       -0.1659
     45 F           7.6174    0.3723   33.4929 F       1  UNL1       -0.1659
     46 F           5.6669   -0.8341   35.4267 F       1  UNL1       -0.1659
@<TRIPOS>BOND
     1    12    13    1
     2    13     5    1
     3     5     6   ar
     4     6     7   ar
     5     7     4    1
     6     4     1    1
     7     1     2    2
     8     1     3   am
     9     3    23    1
    10    23    24    1
    11    24    25    1
    12    25    26    1
    13    26    27    1
    14    25    28    1
    15    28    29    1
    16     3    30    1
    17    30    31    1
    18    31    32   ar
    19    32    33   ar
    20    33    34   ar
    21    34    37    1
    22    37    38   ar
    23    38    39   ar
    24    39    40   ar
    25    40    43    1
    26    43    44    1
    27    43    45    1
    28    43    46    1
    29    40    41   ar
    30    41    42   ar
    31    34    35   ar
    32    35    36   ar
    33     7     8   ar
    34     8    14    1
    35    14    15    1
    36    15    16    1
    37    16    17   ar
    38    17    18   ar
    39    18    19   ar
    40    19    20    1
    41    19    21   ar
    42    21    22   ar
    43     8     9   ar
    44     9    10   ar
    45    10    11    2
    46    10     5   ar
    47    36    31   ar
    48    22    16   ar
    49    42    37   ar
