@<TRIPOS>MOLECULE
*****
 30 32 0 0 0
SMALL
GASTEIGER

@<TRIPOS>ATOM
      1 C          -9.8993  -18.3426   22.7187 C.3     1  UNL1        0.0378
      2 C         -10.6222  -19.0540   21.6137 C.3     1  UNL1        0.0075
      3 C          -9.8605  -19.5677   20.4280 C.3     1  UNL1        0.0219
      4 C          -8.3758  -19.3699   20.3473 C.3     1  UNL1        0.0950
      5 N          -7.6528  -18.6585   21.4524 N.am    1  UNL1       -0.2637
      6 C          -6.1680  -18.4608   21.3717 C.2     1  UNL1        0.3077
      7 O          -5.4451  -17.7494   22.4768 O.2     1  UNL1       -0.2522
      8 N          -5.4063  -18.9744   20.1860 N.am    1  UNL1       -0.2681
      9 C          -8.4145  -18.1449   22.6381 C.3     1  UNL1        0.0989
     10 H          -5.8809  -19.4413   19.4607 H       1  UNL1        0.1564
     11 C          -3.9217  -18.7766   20.1054 C.ar    1  UNL1        0.0516
     12 C          -3.3376  -17.9123   19.0274 C.ar    1  UNL1        0.0156
     13 C          -1.8530  -17.7145   18.9468 C.ar    1  UNL1        0.0127
     14 C          -0.9522  -18.3809   19.9441 C.ar    1  UNL1        0.0578
     15 CL          0.5325  -18.1831   19.8635 Cl      1  UNL1       -0.0822
     16 C          -1.5362  -19.2452   21.0221 C.ar    1  UNL1        0.0127
     17 C          -3.0210  -19.4430   21.1027 C.ar    1  UNL1        0.0156
     18 C         -11.3021  -18.2865   23.2469 C.ar    1  UNL1       -0.0212
     19 C         -11.6164  -18.8480   24.6019 C.ar    1  UNL1       -0.0042
     20 C         -13.0192  -18.7919   25.1300 C.ar    1  UNL1       -0.0003
     21 C         -14.1077  -18.1743   24.3031 C.ar    1  UNL1       -0.0000
     22 C         -13.7935  -17.6128   22.9482 C.ar    1  UNL1       -0.0003
     23 C         -12.3907  -17.6689   22.4201 C.ar    1  UNL1       -0.0042
     24 C          -9.6634  -17.6118   24.0073 C.3     1  UNL1        0.0152
     25 C          -9.5795  -16.1142   24.0156 C.3     1  UNL1        0.0852
     26 N          -7.6530  -14.3894   24.2683 N.am    1  UNL1       -0.3288
     27 C          -8.5565  -15.4250   24.8693 C.2     1  UNL1        0.2194
     28 O          -8.4372  -15.7716   26.3238 O.2     1  UNL1       -0.2753
     29 H          -6.9816  -13.9371   24.8286 H       1  UNL1        0.1449
     30 H          -7.7314  -14.1620   23.3137 H       1  UNL1        0.1449
@<TRIPOS>BOND
     1    26    27   am
     2    27    28    2
     3    27    25    1
     4    25    24    1
     5    24     1    1
     6     1    18    1
     7    18    19   ar
     8    19    20   ar
     9    20    21   ar
    10    21    22   ar
    11    22    23   ar
    12     1     2    1
    13     2     3    1
    14     3     4    1
    15     4     5    1
    16     5     6   am
    17     6     7    2
    18     6     8   am
    19     8    11    1
    20    11    12   ar
    21    12    13   ar
    22    13    14   ar
    23    14    15    1
    24    14    16   ar
    25    16    17   ar
    26     5     9    1
    27     9     1    1
    28    23    18   ar
    29    17    11   ar
    30    26    29    1
    31    26    30    1
    32     8    10    1
@<TRIPOS>MOLECULE
*****
 30 32 0 0 0
SMALL
GASTEIGER

@<TRIPOS>ATOM
      1 C         -10.7610  -18.5490   23.2229 C.3     1  UNL1        0.0378
      2 C         -10.8600  -19.8245   24.0059 C.3     1  UNL1        0.0075
      3 C          -9.6675  -20.7269   24.1235 C.3     1  UNL1        0.0219
      4 C          -8.3760  -20.3536   23.4580 C.3     1  UNL1        0.0950
      5 N          -8.2770  -19.0780   22.6750 N.am    1  UNL1       -0.2637
      6 C          -6.9855  -18.7048   22.0096 C.2     1  UNL1        0.3077
      7 O          -6.8866  -17.4292   21.2266 O.2     1  UNL1       -0.2522
      8 N          -5.7931  -19.6071   22.1272 N.am    1  UNL1       -0.2681
      9 C          -9.4695  -18.1757   22.5574 C.3     1  UNL1        0.0989
     10 H          -5.8580  -20.4443   22.6411 H       1  UNL1        0.1564
     11 C          -4.5016  -19.2338   21.4618 C.ar    1  UNL1        0.0516
     12 C          -4.3606  -19.3607   19.9737 C.ar    1  UNL1        0.0156
     13 C          -3.0693  -18.9874   19.3083 C.ar    1  UNL1        0.0127
     14 C          -1.9189  -18.4872   20.1307 C.ar    1  UNL1        0.0578
     15 CL         -0.6274  -18.1138   19.4651 Cl      1  UNL1       -0.0822
     16 C          -2.0599  -18.3602   21.6186 C.ar    1  UNL1        0.0127
     17 C          -3.3513  -18.7335   22.2842 C.ar    1  UNL1        0.0156
     18 C         -12.1905  -18.4696   23.6703 C.ar    1  UNL1       -0.0212
     19 C         -13.2750  -18.1948   22.6712 C.ar    1  UNL1       -0.0042
     20 C         -14.7044  -18.1155   23.1187 C.ar    1  UNL1       -0.0003
     21 C         -15.0494  -18.3110   24.5653 C.ar    1  UNL1       -0.0000
     22 C         -13.9650  -18.5858   25.5645 C.ar    1  UNL1       -0.0003
     23 C         -12.5355  -18.6651   25.1170 C.ar    1  UNL1       -0.0042
     24 C         -11.1584  -17.2458   22.5953 C.3     1  UNL1        0.0152
     25 C         -10.4263  -16.7410   21.3873 C.3     1  UNL1        0.0852
     26 N         -12.6346  -16.2359   20.1151 N.am    1  UNL1       -0.3288
     27 C         -11.1681  -15.9946   20.3184 C.2     1  UNL1        0.2194
     28 O         -10.4434  -15.0069   19.4527 O.2     1  UNL1       -0.2753
     29 H         -13.1214  -15.7460   19.4135 H       1  UNL1        0.1449
     30 H         -13.1102  -16.8841   20.6833 H       1  UNL1        0.1449
@<TRIPOS>BOND
     1    26    27   am
     2    27    28    2
     3    27    25    1
     4    25    24    1
     5    24     1    1
     6     1    18    1
     7    18    19   ar
     8    19    20   ar
     9    20    21   ar
    10    21    22   ar
    11    22    23   ar
    12     1     2    1
    13     2     3    1
    14     3     4    1
    15     4     5    1
    16     5     6   am
    17     6     7    2
    18     6     8   am
    19     8    11    1
    20    11    12   ar
    21    12    13   ar
    22    13    14   ar
    23    14    15    1
    24    14    16   ar
    25    16    17   ar
    26     5     9    1
    27     9     1    1
    28    23    18   ar
    29    17    11   ar
    30    26    29    1
    31    26    30    1
    32     8    10    1
@<TRIPOS>MOLECULE
*****
 30 32 0 0 0
SMALL
GASTEIGER

@<TRIPOS>ATOM
      1 C         -10.4369  -18.5336   23.1849 C.3     1  UNL1        0.0378
      2 C         -10.5972  -19.8814   23.8235 C.3     1  UNL1        0.0075
      3 C          -9.4487  -20.8461   23.8373 C.3     1  UNL1        0.0219
      4 C          -8.1399  -20.4631   23.2126 C.3     1  UNL1        0.0950
      5 N          -7.9796  -19.1153   22.5740 N.am    1  UNL1       -0.2637
      6 C          -6.6708  -18.7323   21.9492 C.2     1  UNL1        0.3077
      7 O          -6.5106  -17.3845   21.3107 O.2     1  UNL1       -0.2522
      8 N          -5.5223  -19.6970   21.9630 N.am    1  UNL1       -0.2681
      9 C          -9.1281  -18.1506   22.5602 C.3     1  UNL1        0.0989
     10 H          -5.6275  -20.5816   22.3822 H       1  UNL1        0.1564
     11 C          -4.2136  -19.3139   21.3383 C.ar    1  UNL1        0.0516
     12 C          -3.0295  -19.0067   22.2065 C.ar    1  UNL1        0.0156
     13 C          -1.7208  -18.6236   21.5818 C.ar    1  UNL1        0.0127
     14 C          -1.5960  -18.5477   20.0889 C.ar    1  UNL1        0.0578
     15 CL         -0.2871  -18.1645   19.4642 Cl      1  UNL1       -0.0822
     16 C          -2.7800  -18.8548   19.2207 C.ar    1  UNL1        0.0127
     17 C          -4.0888  -19.2380   19.8454 C.ar    1  UNL1        0.0156
     18 C         -11.8620  -18.4369   23.6432 C.ar    1  UNL1       -0.0212
     19 C         -12.9325  -18.0161   22.6805 C.ar    1  UNL1       -0.0042
     20 C         -14.3575  -17.9194   23.1388 C.ar    1  UNL1       -0.0003
     21 C         -14.7119  -18.2435   24.5598 C.ar    1  UNL1       -0.0000
     22 C         -13.6414  -18.6643   25.5225 C.ar    1  UNL1       -0.0003
     23 C         -12.2165  -18.7610   25.0642 C.ar    1  UNL1       -0.0042
     24 C         -10.7716  -17.1522   22.7055 C.3     1  UNL1        0.0152
     25 C          -9.6781  -16.2287   22.2569 C.3     1  UNL1        0.0852
     26 N          -7.5339  -14.8925   22.8626 N.am    1  UNL1       -0.3288
     27 C          -8.8360  -15.5144   23.2722 C.2     1  UNL1        0.2194
     28 O          -9.2961  -15.4220   24.6969 O.2     1  UNL1       -0.2753
     29 H          -6.9812  -14.4237   23.5290 H       1  UNL1        0.1449
     30 H          -7.2320  -14.9531   21.9276 H       1  UNL1        0.1449
@<TRIPOS>BOND
     1    26    27   am
     2    27    28    2
     3    27    25    1
     4    25    24    1
     5    24     1    1
     6     1    18    1
     7    18    19   ar
     8    19    20   ar
     9    20    21   ar
    10    21    22   ar
    11    22    23   ar
    12     1     2    1
    13     2     3    1
    14     3     4    1
    15     4     5    1
    16     5     6   am
    17     6     7    2
    18     6     8   am
    19     8    11    1
    20    11    12   ar
    21    12    13   ar
    22    13    14   ar
    23    14    15    1
    24    14    16   ar
    25    16    17   ar
    26     5     9    1
    27     9     1    1
    28    23    18   ar
    29    17    11   ar
    30    26    29    1
    31    26    30    1
    32     8    10    1
@<TRIPOS>MOLECULE
*****
 30 32 0 0 0
SMALL
GASTEIGER

@<TRIPOS>ATOM
      1 C           3.9350   -1.5420   21.9124 C.3     1  UNL1        0.0378
      2 C           3.0962   -0.5162   22.6153 C.3     1  UNL1        0.0075
      3 C           3.1665   -0.3848   24.1079 C.3     1  UNL1        0.0219
      4 C           4.0757   -1.2793   24.8975 C.3     1  UNL1        0.0950
      5 N           4.9145   -2.3050   24.1946 N.am    1  UNL1       -0.2637
      6 C           5.8236   -3.1995   24.9842 C.2     1  UNL1        0.3077
      7 O           6.6624   -4.2252   24.2811 O.2     1  UNL1       -0.2522
      8 N           5.8940   -3.0681   26.4767 N.am    1  UNL1       -0.2681
      9 C           4.8442   -2.4364   22.7020 C.3     1  UNL1        0.0989
     10 H           5.3434   -2.3949   26.9381 H       1  UNL1        0.1564
     11 C           6.8031   -3.9626   27.2663 C.ar    1  UNL1        0.0516
     12 C           8.2760   -3.6823   27.3125 C.ar    1  UNL1        0.0156
     13 C           9.1852   -4.5767   28.1019 C.ar    1  UNL1        0.0127
     14 C           8.6216   -5.7514   28.8453 C.ar    1  UNL1        0.0578
     15 CL          9.5308   -6.6458   29.6348 Cl      1  UNL1       -0.0822
     16 C           7.1487   -6.0316   28.7990 C.ar    1  UNL1        0.0127
     17 C           6.2395   -5.1372   28.0095 C.ar    1  UNL1        0.0156
     18 C           3.2324   -0.9300   20.7368 C.ar    1  UNL1       -0.0212
     19 C           1.7441   -0.7454   20.7653 C.ar    1  UNL1       -0.0042
     20 C           1.0417   -0.1334   19.5898 C.ar    1  UNL1       -0.0003
     21 C           1.8275    0.2940   18.3857 C.ar    1  UNL1       -0.0000
     22 C           3.3158    0.1094   18.3571 C.ar    1  UNL1       -0.0003
     23 C           4.0182   -0.5026   19.5327 C.ar    1  UNL1       -0.0042
     24 C           4.5298   -2.3552   20.8011 C.3     1  UNL1        0.0152
     25 C           4.5430   -3.8524   20.8915 C.3     1  UNL1        0.0852
     26 N           3.6049   -4.0691   18.4784 N.am    1  UNL1       -0.3288
     27 C           3.8871   -4.6742   19.8216 C.2     1  UNL1        0.2194
     28 O           3.5134   -6.1009   20.0951 O.2     1  UNL1       -0.2753
     29 H           3.1744   -4.6084   17.7762 H       1  UNL1        0.1449
     30 H           3.8502   -3.1327   18.2990 H       1  UNL1        0.1449
@<TRIPOS>BOND
     1    26    27   am
     2    27    28    2
     3    27    25    1
     4    25    24    1
     5    24     1    1
     6     1    18    1
     7    18    19   ar
     8    19    20   ar
     9    20    21   ar
    10    21    22   ar
    11    22    23   ar
    12     1     2    1
    13     2     3    1
    14     3     4    1
    15     4     5    1
    16     5     6   am
    17     6     7    2
    18     6     8   am
    19     8    11    1
    20    11    12   ar
    21    12    13   ar
    22    13    14   ar
    23    14    15    1
    24    14    16   ar
    25    16    17   ar
    26     5     9    1
    27     9     1    1
    28    23    18   ar
    29    17    11   ar
    30    26    29    1
    31    26    30    1
    32     8    10    1
