@<TRIPOS>MOLECULE
*****
 31 35 0 0 0
SMALL
GASTEIGER

@<TRIPOS>ATOM
      1 C          -9.9988  -17.0910   22.8793 C.ar    1  UNL1        0.0436
      2 C         -11.4203  -16.8186   23.2729 C.ar    1  UNL1        0.0142
      3 C         -12.5456  -17.3671   22.4466 C.ar    1  UNL1        0.0010
      4 C         -12.2494  -18.1879   21.2265 C.ar    1  UNL1       -0.0032
      5 C         -10.8279  -18.4603   20.8329 C.ar    1  UNL1       -0.0091
      6 C          -9.7026  -17.9119   21.6592 C.ar    1  UNL1       -0.0101
      7 C          -8.2810  -18.1842   21.2655 C.3     1  UNL1        0.0444
      8 C          -7.9847  -19.0051   20.0455 C.3     1  UNL1        0.0749
      9 N          -9.1101  -19.5535   19.2191 N.3     1  UNL1       -0.2934
     10 C         -10.5316  -19.2811   19.6128 C.3     1  UNL1        0.0954
     11 H          -8.9978  -20.5672   19.2044 H       1  UNL1        0.1236
     12 C          -5.4974  -14.8974   26.1847 C.3     1  UNL1        0.0897
     13 N          -6.6227  -15.4458   25.3584 N.3     1  UNL1       -0.2686
     14 C          -6.5960  -15.3025   23.8655 C.3     1  UNL1        0.0938
     15 C          -7.7214  -15.8509   23.0391 C.3     1  UNL1        0.1081
     16 N          -8.8734  -16.5426   23.7056 N.pl3   1  UNL1       -0.3049
     17 C          -8.9001  -16.6860   25.1985 C.3     1  UNL1        0.1081
     18 C          -7.7748  -16.1376   26.0249 C.3     1  UNL1        0.0938
     19 C          -6.5632  -19.2775   19.6518 C.3     1  UNL1        0.0886
     20 N          -5.6207  -19.9079   20.6337 N.3     1  UNL1       -0.2667
     21 C          -5.6557  -21.3902   20.8612 C.3     1  UNL1        0.0899
     22 C          -4.6432  -19.0562   21.3881 C.3     1  UNL1        0.0978
     23 C          -4.8927  -18.7260   22.8299 C.3     1  UNL1        0.0224
     24 C          -3.9152  -17.8743   23.5842 C.3     1  UNL1        0.0065
     25 C          -2.6883  -17.3527   22.8968 C.3     1  UNL1        0.0277
     26 C          -2.4388  -17.6829   21.4551 C.ar    1  UNL1       -0.0073
     27 C          -1.2118  -17.1613   20.7677 C.ar    1  UNL1       -0.0015
     28 C          -0.9623  -17.4915   19.3258 C.ar    1  UNL1        0.0203
     29 C          -1.9398  -18.3432   18.5715 C.ar    1  UNL1        0.0985
     30 N          -3.1668  -18.8648   19.2589 N.ar    1  UNL1       -0.2471
     31 C          -3.4163  -18.5346   20.7007 C.ar    1  UNL1        0.0695
@<TRIPOS>BOND
     1    12    13    1
     2    13    14    1
     3    14    15    1
     4    15    16    1
     5    16     1    1
     6     1     2   ar
     7     2     3   ar
     8     3     4   ar
     9     4     5   ar
    10     5     6   ar
    11     6     7    1
    12     7     8    1
    13     8    19    1
    14    19    20    1
    15    20    21    1
    16    22    20    1
    17    22    23    1
    18    23    24    1
    19    24    25    1
    20    25    26    1
    21    26    27   ar
    22    27    28   ar
    23    28    29   ar
    24    29    30   ar
    25    30    31   ar
    26     8     9    1
    27     9    10    1
    28    16    17    1
    29    17    18    1
    30    18    13    1
    31     6     1   ar
    32    31    22    1
    33    10     5    1
    34    31    26   ar
    35     9    11    1
@<TRIPOS>MOLECULE
*****
 31 35 0 0 0
SMALL
GASTEIGER

@<TRIPOS>ATOM
      1 C          -3.4114  -17.0071   22.5200 C.ar    1  UNL1        0.0436
      2 C          -2.1060  -16.3472   22.1881 C.ar    1  UNL1        0.0142
      3 C          -1.3095  -16.8129   21.0055 C.ar    1  UNL1        0.0010
      4 C          -1.8184  -17.9386   20.1548 C.ar    1  UNL1       -0.0032
      5 C          -3.1239  -18.5986   20.4866 C.ar    1  UNL1       -0.0091
      6 C          -3.9204  -18.1328   21.6692 C.ar    1  UNL1       -0.0101
      7 C          -5.2259  -18.7928   22.0011 C.3     1  UNL1        0.0444
      8 C          -5.7349  -19.9185   21.1504 C.3     1  UNL1        0.0749
      9 N          -4.9383  -20.3842   19.9677 N.3     1  UNL1       -0.2934
     10 C          -3.6328  -19.7242   19.6359 C.3     1  UNL1        0.0954
     11 H          -5.5377  -20.2793   19.1492 H       1  UNL1        0.1236
     12 C          -6.5977  -15.1444   27.2506 C.3     1  UNL1        0.0897
     13 N          -5.8012  -15.6100   26.0680 N.3     1  UNL1       -0.2686
     14 C          -6.0180  -14.9817   24.7233 C.3     1  UNL1        0.0938
     15 C          -5.2214  -15.4475   23.5406 C.3     1  UNL1        0.1081
     16 N          -4.2080  -16.5414   23.7027 N.pl3   1  UNL1       -0.3049
     17 C          -3.9912  -17.1697   25.0474 C.3     1  UNL1        0.1081
     18 C          -4.7877  -16.7041   26.2300 C.3     1  UNL1        0.0938
     19 C          -7.0403  -20.5785   21.4822 C.3     1  UNL1        0.0886
     20 N          -8.3327  -19.9087   21.1201 N.3     1  UNL1       -0.2667
     21 C          -8.6392  -19.5961   19.6853 C.3     1  UNL1        0.0899
     22 C          -9.3187  -19.5516   22.1926 C.3     1  UNL1        0.0978
     23 C          -9.3018  -20.2847   23.5012 C.3     1  UNL1        0.0224
     24 C         -10.2877  -19.9276   24.5737 C.3     1  UNL1        0.0065
     25 C         -11.2906  -18.8374   24.3377 C.3     1  UNL1        0.0277
     26 C         -11.3076  -18.1044   23.0292 C.ar    1  UNL1       -0.0073
     27 C         -12.3105  -17.0142   22.7932 C.ar    1  UNL1       -0.0015
     28 C         -12.3274  -16.2811   21.4846 C.ar    1  UNL1        0.0203
     29 C         -11.3415  -16.6382   20.4121 C.ar    1  UNL1        0.0985
     30 N         -10.3386  -17.7284   20.6481 N.ar    1  UNL1       -0.2471
     31 C         -10.3216  -18.4615   21.9566 C.ar    1  UNL1        0.0695
@<TRIPOS>BOND
     1    12    13    1
     2    13    14    1
     3    14    15    1
     4    15    16    1
     5    16     1    1
     6     1     2   ar
     7     2     3   ar
     8     3     4   ar
     9     4     5   ar
    10     5     6   ar
    11     6     7    1
    12     7     8    1
    13     8    19    1
    14    19    20    1
    15    20    21    1
    16    22    20    1
    17    22    23    1
    18    23    24    1
    19    24    25    1
    20    25    26    1
    21    26    27   ar
    22    27    28   ar
    23    28    29   ar
    24    29    30   ar
    25    30    31   ar
    26     8     9    1
    27     9    10    1
    28    16    17    1
    29    17    18    1
    30    18    13    1
    31     6     1   ar
    32    31    22    1
    33    10     5    1
    34    31    26   ar
    35     9    11    1
@<TRIPOS>MOLECULE
*****
 31 35 0 0 0
SMALL
GASTEIGER

@<TRIPOS>ATOM
      1 C          -5.2531  -16.4934   24.3814 C.ar    1  UNL1        0.0436
      2 C          -4.6502  -16.3945   25.7513 C.ar    1  UNL1        0.0142
      3 C          -5.4812  -15.9130   26.9034 C.ar    1  UNL1        0.0010
      4 C          -6.9152  -15.5304   26.6856 C.ar    1  UNL1       -0.0032
      5 C          -7.5180  -15.6293   25.3157 C.ar    1  UNL1       -0.0091
      6 C          -6.6870  -16.1108   24.1636 C.ar    1  UNL1       -0.0101
      7 C          -7.2898  -16.2098   22.7935 C.3     1  UNL1        0.0444
      8 C          -8.7238  -15.8271   22.5757 C.3     1  UNL1        0.0749
      9 N          -9.5548  -15.3456   23.7280 N.3     1  UNL1       -0.2934
     10 C          -8.9520  -15.2466   25.0979 C.3     1  UNL1        0.0954
     11 H         -10.3510  -15.9788   23.8017 H       1  UNL1        0.1236
     12 C          -1.9288  -18.4196   19.7727 C.3     1  UNL1        0.0897
     13 N          -2.7599  -17.9381   20.9248 N.3     1  UNL1       -0.2686
     14 C          -3.8644  -18.7979   21.4639 C.3     1  UNL1        0.0938
     15 C          -4.6955  -18.3164   22.6161 C.3     1  UNL1        0.1081
     16 N          -4.4220  -16.9750   23.2291 N.pl3   1  UNL1       -0.3049
     17 C          -3.3174  -16.1152   22.6901 C.3     1  UNL1        0.1081
     18 C          -2.4864  -16.5966   21.5379 C.3     1  UNL1        0.0938
     19 C          -9.3267  -15.9260   21.2058 C.3     1  UNL1        0.0886
     20 N         -10.5506  -16.7643   20.9838 N.3     1  UNL1       -0.2667
     21 C         -11.0897  -16.9518   19.5965 C.3     1  UNL1        0.0899
     22 C         -11.2354  -17.4150   22.1488 C.3     1  UNL1        0.0978
     23 C         -12.5713  -16.9121   22.6102 C.3     1  UNL1        0.0224
     24 C         -13.2561  -17.5629   23.7752 C.3     1  UNL1        0.0065
     25 C         -12.6052  -18.7166   24.4790 C.3     1  UNL1        0.0277
     26 C         -11.2695  -19.2195   24.0178 C.ar    1  UNL1       -0.0073
     27 C         -10.6186  -20.3732   24.7216 C.ar    1  UNL1       -0.0015
     28 C          -9.2828  -20.8761   24.2603 C.ar    1  UNL1        0.0203
     29 C          -8.5979  -20.2253   23.0952 C.ar    1  UNL1        0.0985
     30 N          -9.2488  -19.0717   22.3914 N.ar    1  UNL1       -0.2471
     31 C         -10.5846  -18.5687   22.8527 C.ar    1  UNL1        0.0695
@<TRIPOS>BOND
     1    12    13    1
     2    13    14    1
     3    14    15    1
     4    15    16    1
     5    16     1    1
     6     1     2   ar
     7     2     3   ar
     8     3     4   ar
     9     4     5   ar
    10     5     6   ar
    11     6     7    1
    12     7     8    1
    13     8    19    1
    14    19    20    1
    15    20    21    1
    16    22    20    1
    17    22    23    1
    18    23    24    1
    19    24    25    1
    20    25    26    1
    21    26    27   ar
    22    27    28   ar
    23    28    29   ar
    24    29    30   ar
    25    30    31   ar
    26     8     9    1
    27     9    10    1
    28    16    17    1
    29    17    18    1
    30    18    13    1
    31     6     1   ar
    32    31    22    1
    33    10     5    1
    34    31    26   ar
    35     9    11    1
@<TRIPOS>MOLECULE
*****
 31 35 0 0 0
SMALL
GASTEIGER

@<TRIPOS>ATOM
      1 C         -10.4111  -16.6096   22.8953 C.ar    1  UNL1        0.0436
      2 C         -11.7500  -16.0194   23.2252 C.ar    1  UNL1        0.0142
      3 C         -12.9583  -16.4077   22.4257 C.ar    1  UNL1        0.0010
      4 C         -12.8277  -17.3862   21.2964 C.ar    1  UNL1       -0.0032
      5 C         -11.4888  -17.9764   20.9665 C.ar    1  UNL1       -0.0091
      6 C         -10.2805  -17.5881   21.7659 C.ar    1  UNL1       -0.0101
      7 C          -8.9415  -18.1784   21.4360 C.3     1  UNL1        0.0444
      8 C          -8.8109  -19.1569   20.3066 C.3     1  UNL1        0.0749
      9 N         -10.0193  -19.5451   19.5072 N.3     1  UNL1       -0.2934
     10 C         -11.3582  -18.9549   19.8371 C.3     1  UNL1        0.0954
     11 H         -10.1150  -20.5572   19.5908 H       1  UNL1        0.1236
     12 C          -5.5776  -15.0566   26.0931 C.3     1  UNL1        0.0897
     13 N          -6.7859  -15.4448   25.2936 N.3     1  UNL1       -0.2686
     14 C          -6.8992  -15.0305   23.8565 C.3     1  UNL1        0.0938
     15 C          -8.1076  -15.4188   23.0570 C.3     1  UNL1        0.1081
     16 N          -9.2027  -16.2213   23.6947 N.pl3   1  UNL1       -0.3049
     17 C          -9.0894  -16.6357   25.1319 C.3     1  UNL1        0.1081
     18 C          -7.8811  -16.2474   25.9314 C.3     1  UNL1        0.0938
     19 C          -7.4720  -19.7471   19.9767 C.3     1  UNL1        0.0886
     20 N          -6.5098  -20.0853   21.0766 N.3     1  UNL1       -0.2667
     21 C          -7.0223  -20.5945   22.3912 C.3     1  UNL1        0.0899
     22 C          -5.0352  -19.9142   20.8620 C.3     1  UNL1        0.0978
     23 C          -4.3201  -20.7655   19.8550 C.3     1  UNL1        0.0224
     24 C          -2.8454  -20.5944   19.6404 C.3     1  UNL1        0.0065
     25 C          -2.0858  -19.5721   20.4328 C.3     1  UNL1        0.0277
     26 C          -2.8008  -18.7209   21.4398 C.ar    1  UNL1       -0.0073
     27 C          -2.0412  -17.6986   22.2322 C.ar    1  UNL1       -0.0015
     28 C          -2.7563  -16.8474   23.2393 C.ar    1  UNL1        0.0203
     29 C          -4.2309  -17.0185   23.4539 C.ar    1  UNL1        0.0985
     30 N          -4.9906  -18.0407   22.6615 N.ar    1  UNL1       -0.2471
     31 C          -4.2755  -18.8920   21.6545 C.ar    1  UNL1        0.0695
@<TRIPOS>BOND
     1    12    13    1
     2    13    14    1
     3    14    15    1
     4    15    16    1
     5    16     1    1
     6     1     2   ar
     7     2     3   ar
     8     3     4   ar
     9     4     5   ar
    10     5     6   ar
    11     6     7    1
    12     7     8    1
    13     8    19    1
    14    19    20    1
    15    20    21    1
    16    22    20    1
    17    22    23    1
    18    23    24    1
    19    24    25    1
    20    25    26    1
    21    26    27   ar
    22    27    28   ar
    23    28    29   ar
    24    29    30   ar
    25    30    31   ar
    26     8     9    1
    27     9    10    1
    28    16    17    1
    29    17    18    1
    30    18    13    1
    31     6     1   ar
    32    31    22    1
    33    10     5    1
    34    31    26   ar
    35     9    11    1
@<TRIPOS>MOLECULE
*****
 31 35 0 0 0
SMALL
GASTEIGER

@<TRIPOS>ATOM
      1 C          -7.5095  -16.0014   24.0381 C.ar    1  UNL1        0.0436
      2 C          -7.4167  -15.1656   25.2802 C.ar    1  UNL1        0.0142
      3 C          -6.1282  -15.0996   26.0452 C.ar    1  UNL1        0.0010
      4 C          -4.9324  -15.8695   25.5681 C.ar    1  UNL1       -0.0032
      5 C          -5.0252  -16.7052   24.3261 C.ar    1  UNL1       -0.0091
      6 C          -6.3137  -16.7712   23.5610 C.ar    1  UNL1       -0.0101
      7 C          -6.4066  -17.6070   22.3189 C.3     1  UNL1        0.0444
      8 C          -5.2108  -18.3769   21.8418 C.3     1  UNL1        0.0749
      9 N          -3.9223  -18.3109   22.6069 N.3     1  UNL1       -0.2934
     10 C          -3.8295  -17.4751   23.8490 C.3     1  UNL1        0.0954
     11 H          -3.2145  -17.9594   21.9620 H       1  UNL1        0.1236
     12 C         -12.6636  -16.2652   20.9777 C.3     1  UNL1        0.0897
     13 N         -11.3751  -16.1993   21.7428 N.3     1  UNL1       -0.2686
     14 C         -11.3496  -16.5517   23.2005 C.3     1  UNL1        0.0938
     15 C         -10.0610  -16.4857   23.9657 C.3     1  UNL1        0.1081
     16 N          -8.7980  -16.0673   23.2730 N.pl3   1  UNL1       -0.3049
     17 C          -8.8236  -15.7149   21.8152 C.3     1  UNL1        0.1081
     18 C         -10.1120  -15.7809   21.0501 C.3     1  UNL1        0.0938
     19 C          -5.3036  -19.2126   20.5998 C.3     1  UNL1        0.0886
     20 N          -6.3148  -20.3172   20.5128 N.3     1  UNL1       -0.2667
     21 C          -5.8730  -21.7476   20.6072 C.3     1  UNL1        0.0899
     22 C          -7.7677  -19.9913   20.3314 C.3     1  UNL1        0.0978
     23 C          -8.2884  -19.6152   18.9759 C.3     1  UNL1        0.0224
     24 C          -9.7413  -19.2894   18.7945 C.3     1  UNL1        0.0065
     25 C         -10.6735  -19.3397   19.9686 C.3     1  UNL1        0.0277
     26 C         -10.1528  -19.7158   21.3241 C.ar    1  UNL1       -0.0073
     27 C         -11.0850  -19.7661   22.4982 C.ar    1  UNL1       -0.0015
     28 C         -10.5642  -20.1422   23.8537 C.ar    1  UNL1        0.0203
     29 C          -9.1113  -20.4680   24.0351 C.ar    1  UNL1        0.0985
     30 N          -8.1791  -20.4177   22.8610 N.ar    1  UNL1       -0.2471
     31 C          -8.6998  -20.0416   21.5055 C.ar    1  UNL1        0.0695
@<TRIPOS>BOND
     1    12    13    1
     2    13    14    1
     3    14    15    1
     4    15    16    1
     5    16     1    1
     6     1     2   ar
     7     2     3   ar
     8     3     4   ar
     9     4     5   ar
    10     5     6   ar
    11     6     7    1
    12     7     8    1
    13     8    19    1
    14    19    20    1
    15    20    21    1
    16    22    20    1
    17    22    23    1
    18    23    24    1
    19    24    25    1
    20    25    26    1
    21    26    27   ar
    22    27    28   ar
    23    28    29   ar
    24    29    30   ar
    25    30    31   ar
    26     8     9    1
    27     9    10    1
    28    16    17    1
    29    17    18    1
    30    18    13    1
    31     6     1   ar
    32    31    22    1
    33    10     5    1
    34    31    26   ar
    35     9    11    1
@<TRIPOS>MOLECULE
*****
 31 35 0 0 0
SMALL
GASTEIGER

@<TRIPOS>ATOM
      1 C          -4.9112  -16.2410   24.2046 C.ar    1  UNL1        0.0436
      2 C          -4.3558  -15.7351   25.5029 C.ar    1  UNL1        0.0142
      3 C          -5.2584  -15.0594   26.4922 C.ar    1  UNL1        0.0010
      4 C          -6.7164  -14.8896   26.1832 C.ar    1  UNL1       -0.0032
      5 C          -7.2718  -15.3955   24.8849 C.ar    1  UNL1       -0.0091
      6 C          -6.3692  -16.0712   23.8956 C.ar    1  UNL1       -0.0101
      7 C          -6.9245  -16.5772   22.5973 C.3     1  UNL1        0.0444
      8 C          -8.3825  -16.4074   22.2882 C.3     1  UNL1        0.0749
      9 N          -9.2851  -15.7317   23.2776 N.3     1  UNL1       -0.2934
     10 C          -8.7298  -15.2258   24.5759 C.3     1  UNL1        0.0954
     11 H         -10.0186  -16.4007   23.5119 H       1  UNL1        0.1236
     12 C          -1.3009  -18.9440   20.2474 C.3     1  UNL1        0.0897
     13 N          -2.2034  -18.2683   21.2367 N.3     1  UNL1       -0.2686
     14 C          -2.1409  -16.7802   21.4144 C.3     1  UNL1        0.0938
     15 C          -3.0435  -16.1044   22.4038 C.3     1  UNL1        0.1081
     16 N          -4.0086  -16.9168   23.2153 N.pl3   1  UNL1       -0.3049
     17 C          -4.0712  -18.4049   23.0375 C.3     1  UNL1        0.1081
     18 C          -3.1686  -19.0806   22.0482 C.3     1  UNL1        0.0938
     19 C          -8.9379  -16.9133   20.9900 C.3     1  UNL1        0.0886
     20 N          -9.5997  -18.2581   20.9306 N.3     1  UNL1       -0.2667
     21 C          -9.8808  -18.8977   19.6032 C.3     1  UNL1        0.0899
     22 C          -9.9805  -18.9632   22.1985 C.3     1  UNL1        0.0978
     23 C          -9.0842  -20.0243   22.7649 C.3     1  UNL1        0.0224
     24 C          -9.4650  -20.7294   24.0329 C.3     1  UNL1        0.0065
     25 C         -10.7421  -20.3736   24.7345 C.3     1  UNL1        0.0277
     26 C         -11.6385  -19.3126   24.1682 C.ar    1  UNL1       -0.0073
     27 C         -12.9156  -18.9567   24.8698 C.ar    1  UNL1       -0.0015
     28 C         -13.8120  -17.8956   24.3034 C.ar    1  UNL1        0.0203
     29 C         -13.4312  -17.1905   23.0354 C.ar    1  UNL1        0.0985
     30 N         -12.1540  -17.5464   22.3338 N.ar    1  UNL1       -0.2471
     31 C         -11.2577  -18.6074   22.9001 C.ar    1  UNL1        0.0695
@<TRIPOS>BOND
     1    12    13    1
     2    13    14    1
     3    14    15    1
     4    15    16    1
     5    16     1    1
     6     1     2   ar
     7     2     3   ar
     8     3     4   ar
     9     4     5   ar
    10     5     6   ar
    11     6     7    1
    12     7     8    1
    13     8    19    1
    14    19    20    1
    15    20    21    1
    16    22    20    1
    17    22    23    1
    18    23    24    1
    19    24    25    1
    20    25    26    1
    21    26    27   ar
    22    27    28   ar
    23    28    29   ar
    24    29    30   ar
    25    30    31   ar
    26     8     9    1
    27     9    10    1
    28    16    17    1
    29    17    18    1
    30    18    13    1
    31     6     1   ar
    32    31    22    1
    33    10     5    1
    34    31    26   ar
    35     9    11    1
@<TRIPOS>MOLECULE
*****
 31 35 0 0 0
SMALL
GASTEIGER

@<TRIPOS>ATOM
      1 C          -5.6891  -15.9381   24.8911 C.ar    1  UNL1        0.0436
      2 C          -5.2359  -15.6461   26.2908 C.ar    1  UNL1        0.0142
      3 C          -6.2369  -15.2535   27.3367 C.ar    1  UNL1        0.0010
      4 C          -7.6911  -15.1529   26.9828 C.ar    1  UNL1       -0.0032
      5 C          -8.1443  -15.4448   25.5830 C.ar    1  UNL1       -0.0091
      6 C          -7.1433  -15.8374   24.5372 C.ar    1  UNL1       -0.0101
      7 C          -7.5964  -16.1294   23.1373 C.3     1  UNL1        0.0444
      8 C          -9.0506  -16.0287   22.7834 C.3     1  UNL1        0.0749
      9 N         -10.0516  -15.6361   23.8293 N.3     1  UNL1       -0.2934
     10 C          -9.5984  -15.3441   25.2291 C.3     1  UNL1        0.0954
     11 H         -10.7269  -16.3980   23.8914 H       1  UNL1        0.1236
     12 C          -1.6852  -17.5086   20.7075 C.3     1  UNL1        0.0897
     13 N          -2.6861  -17.1160   21.7533 N.3     1  UNL1       -0.2686
     14 C          -3.0172  -15.6689   21.9689 C.3     1  UNL1        0.0938
     15 C          -4.0182  -15.2763   23.0148 C.3     1  UNL1        0.1081
     16 N          -4.6881  -16.3307   23.8451 N.pl3   1  UNL1       -0.3049
     17 C          -4.3571  -17.7777   23.6295 C.3     1  UNL1        0.1081
     18 C          -3.3561  -18.1704   22.5837 C.3     1  UNL1        0.0938
     19 C          -9.5038  -16.3206   21.3837 C.3     1  UNL1        0.0886
     20 N          -9.7106  -17.7394   20.9428 N.3     1  UNL1       -0.2667
     21 C         -10.5907  -18.0382   19.7654 C.3     1  UNL1        0.0899
     22 C          -9.0373  -18.8593   21.6792 C.3     1  UNL1        0.0978
     23 C          -9.7312  -19.5232   22.8316 C.3     1  UNL1        0.0224
     24 C          -9.0579  -20.6432   23.5680 C.3     1  UNL1        0.0065
     25 C          -7.6907  -21.0992   23.1522 C.3     1  UNL1        0.0277
     26 C          -6.9969  -20.4354   22.0000 C.ar    1  UNL1       -0.0073
     27 C          -5.6297  -20.8914   21.5842 C.ar    1  UNL1       -0.0015
     28 C          -4.9358  -20.2275   20.4318 C.ar    1  UNL1        0.0203
     29 C          -5.6091  -19.1075   19.6954 C.ar    1  UNL1        0.0985
     30 N          -6.9763  -18.6515   20.1112 N.ar    1  UNL1       -0.2471
     31 C          -7.6701  -19.3154   21.2634 C.ar    1  UNL1        0.0695
@<TRIPOS>BOND
     1    12    13    1
     2    13    14    1
     3    14    15    1
     4    15    16    1
     5    16     1    1
     6     1     2   ar
     7     2     3   ar
     8     3     4   ar
     9     4     5   ar
    10     5     6   ar
    11     6     7    1
    12     7     8    1
    13     8    19    1
    14    19    20    1
    15    20    21    1
    16    22    20    1
    17    22    23    1
    18    23    24    1
    19    24    25    1
    20    25    26    1
    21    26    27   ar
    22    27    28   ar
    23    28    29   ar
    24    29    30   ar
    25    30    31   ar
    26     8     9    1
    27     9    10    1
    28    16    17    1
    29    17    18    1
    30    18    13    1
    31     6     1   ar
    32    31    22    1
    33    10     5    1
    34    31    26   ar
    35     9    11    1
@<TRIPOS>MOLECULE
*****
 31 35 0 0 0
SMALL
GASTEIGER

@<TRIPOS>ATOM
      1 C           3.3574   -1.5573   20.3255 C.ar    1  UNL1        0.0436
      2 C           3.6685   -2.2981   19.0589 C.ar    1  UNL1        0.0142
      3 C           4.5444   -3.5152   19.0976 C.ar    1  UNL1        0.0010
      4 C           5.1091   -3.9915   20.4031 C.ar    1  UNL1       -0.0032
      5 C           4.7981   -3.2507   21.6697 C.ar    1  UNL1       -0.0091
      6 C           3.9222   -2.0336   21.6309 C.ar    1  UNL1       -0.0101
      7 C           3.6111   -1.2927   22.8976 C.3     1  UNL1        0.0444
      8 C           4.1759   -1.7690   24.2031 C.3     1  UNL1        0.0749
      9 N           5.0518   -2.9862   24.2418 N.3     1  UNL1       -0.2934
     10 C           5.3629   -3.7270   22.9752 C.3     1  UNL1        0.0954
     11 H           4.6023   -3.6525   24.8698 H       1  UNL1        0.1236
     12 C          -0.1461    3.3111   20.1705 C.3     1  UNL1        0.0897
     13 N           0.7298    2.0941   20.2093 N.3     1  UNL1       -0.2686
     14 C           2.2147    2.2332   20.0488 C.3     1  UNL1        0.0938
     15 C           3.0906    1.0161   20.0875 C.3     1  UNL1        0.1081
     16 N           2.4816   -0.3401   20.2867 N.pl3   1  UNL1       -0.3049
     17 C           0.9967   -0.4793   20.4472 C.3     1  UNL1        0.1081
     18 C           0.1208    0.7378   20.4085 C.3     1  UNL1        0.0938
     19 C           3.8648   -1.0283   25.4697 C.3     1  UNL1        0.0886
     20 N           3.6055    0.4486   25.4304 N.3     1  UNL1       -0.2667
     21 C           4.7551    1.4123   25.4350 C.3     1  UNL1        0.0899
     22 C           2.1968    0.9619   25.3866 C.3     1  UNL1        0.0978
     23 C           1.6469    1.5360   24.1146 C.3     1  UNL1        0.0224
     24 C           0.2382    2.0493   24.0707 C.3     1  UNL1        0.0065
     25 C          -0.6208    1.9884   25.2989 C.3     1  UNL1        0.0277
     26 C          -0.0710    1.4143   26.5710 C.ar    1  UNL1       -0.0073
     27 C          -0.9300    1.3534   27.7992 C.ar    1  UNL1       -0.0015
     28 C          -0.3801    0.7792   29.0712 C.ar    1  UNL1        0.0203
     29 C           1.0286    0.2660   29.1150 C.ar    1  UNL1        0.0985
     30 N           1.8876    0.3269   27.8868 N.ar    1  UNL1       -0.2471
     31 C           1.3378    0.9010   26.6148 C.ar    1  UNL1        0.0695
@<TRIPOS>BOND
     1    12    13    1
     2    13    14    1
     3    14    15    1
     4    15    16    1
     5    16     1    1
     6     1     2   ar
     7     2     3   ar
     8     3     4   ar
     9     4     5   ar
    10     5     6   ar
    11     6     7    1
    12     7     8    1
    13     8    19    1
    14    19    20    1
    15    20    21    1
    16    22    20    1
    17    22    23    1
    18    23    24    1
    19    24    25    1
    20    25    26    1
    21    26    27   ar
    22    27    28   ar
    23    28    29   ar
    24    29    30   ar
    25    30    31   ar
    26     8     9    1
    27     9    10    1
    28    16    17    1
    29    17    18    1
    30    18    13    1
    31     6     1   ar
    32    31    22    1
    33    10     5    1
    34    31    26   ar
    35     9    11    1
@<TRIPOS>MOLECULE
*****
 31 35 0 0 0
SMALL
GASTEIGER

@<TRIPOS>ATOM
      1 C          -4.7456  -16.4943   23.8282 C.ar    1  UNL1        0.0436
      2 C          -4.4225  -15.7534   25.0917 C.ar    1  UNL1        0.0142
      3 C          -5.5285  -15.2841   25.9897 C.ar    1  UNL1        0.0010
      4 C          -6.9577  -15.5557   25.6241 C.ar    1  UNL1       -0.0032
      5 C          -7.2809  -16.2967   24.3606 C.ar    1  UNL1       -0.0091
      6 C          -6.1748  -16.7660   23.4627 C.ar    1  UNL1       -0.0101
      7 C          -6.4979  -17.5070   22.1991 C.3     1  UNL1        0.0444
      8 C          -7.9271  -17.7787   21.8335 C.3     1  UNL1        0.0749
      9 N          -9.0332  -17.3093   22.7316 N.3     1  UNL1       -0.2934
     10 C          -8.7100  -16.5683   23.9951 C.3     1  UNL1        0.0954
     11 H          -9.5633  -18.1373   23.0032 H       1  UNL1        0.1236
     12 C          -0.3215  -18.3719   20.2363 C.3     1  UNL1        0.0897
     13 N          -1.4275  -17.9025   21.1342 N.3     1  UNL1       -0.2686
     14 C          -1.7247  -16.4372   21.2550 C.3     1  UNL1        0.0938
     15 C          -2.8308  -15.9678   22.1531 C.3     1  UNL1        0.1081
     16 N          -3.6395  -16.9637   22.9302 N.pl3   1  UNL1       -0.3049
     17 C          -3.3423  -18.4290   22.8094 C.3     1  UNL1        0.1081
     18 C          -2.2363  -18.8984   21.9114 C.3     1  UNL1        0.0938
     19 C          -8.2502  -18.5197   20.5700 C.3     1  UNL1        0.0886
     20 N          -9.6595  -18.9534   20.2944 N.3     1  UNL1       -0.2667
     21 C          -9.9222  -20.2762   19.6377 C.3     1  UNL1        0.0899
     22 C         -10.8059  -18.0644   20.6755 C.3     1  UNL1        0.0978
     23 C         -11.2478  -16.9713   19.7481 C.3     1  UNL1        0.0224
     24 C         -12.3943  -16.0823   20.1291 C.3     1  UNL1        0.0065
     25 C         -13.0989  -16.2863   21.4375 C.3     1  UNL1        0.0277
     26 C         -12.6571  -17.3793   22.3649 C.ar    1  UNL1       -0.0073
     27 C         -13.3617  -17.5833   23.6733 C.ar    1  UNL1       -0.0015
     28 C         -12.9198  -18.6764   24.6006 C.ar    1  UNL1        0.0203
     29 C         -11.7733  -19.5654   24.2196 C.ar    1  UNL1        0.0985
     30 N         -11.0687  -19.3614   22.9112 N.ar    1  UNL1       -0.2471
     31 C         -11.5105  -18.2684   21.9839 C.ar    1  UNL1        0.0695
@<TRIPOS>BOND
     1    12    13    1
     2    13    14    1
     3    14    15    1
     4    15    16    1
     5    16     1    1
     6     1     2   ar
     7     2     3   ar
     8     3     4   ar
     9     4     5   ar
    10     5     6   ar
    11     6     7    1
    12     7     8    1
    13     8    19    1
    14    19    20    1
    15    20    21    1
    16    22    20    1
    17    22    23    1
    18    23    24    1
    19    24    25    1
    20    25    26    1
    21    26    27   ar
    22    27    28   ar
    23    28    29   ar
    24    29    30   ar
    25    30    31   ar
    26     8     9    1
    27     9    10    1
    28    16    17    1
    29    17    18    1
    30    18    13    1
    31     6     1   ar
    32    31    22    1
    33    10     5    1
    34    31    26   ar
    35     9    11    1
