@<TRIPOS>MOLECULE
*****
 25 28 0 0 0
SMALL
GASTEIGER

@<TRIPOS>ATOM
      1 C           6.7814   -4.1521   23.2479 C.ar    1  UNL1        0.1845
      2 N           7.6599   -4.9665   22.3452 N.ar    1  UNL1       -0.1274
      3 N           7.2860   -4.6516   20.9271 N.ar    1  UNL1       -0.1316
      4 C           6.1765   -3.6425   20.9534 C.ar    1  UNL1        0.1615
      5 N           5.8646   -3.3338   22.3878 N.ar    1  UNL1       -0.2944
      6 C           4.7862   -2.3474   22.7253 C.3     1  UNL1        0.1302
      7 C           4.0195   -1.6697   21.6284 C.3     1  UNL1        0.1186
      8 N           4.3314   -1.9784   20.1941 N.am    1  UNL1       -0.2688
      9 C           3.5648   -1.3008   19.0972 C.2     1  UNL1        0.2494
     10 O           3.8767   -1.6095   17.6629 O.2     1  UNL1       -0.2699
     11 C           5.4099   -2.9648   19.8566 C.3     1  UNL1        0.1343
     12 C           5.7218   -3.2735   18.4222 C.3     1  UNL1        0.0298
     13 C           2.4863   -0.3144   19.4348 C.ar    1  UNL1        0.0537
     14 C           2.6543    1.1324   19.0765 C.ar    1  UNL1        0.0068
     15 C           1.5758    2.1188   19.4141 C.ar    1  UNL1        0.0298
     16 C           0.3293    1.6583   20.1099 C.ar    1  UNL1        0.1401
     17 F          -0.7492    2.6447   20.4475 F       1  UNL1       -0.2042
     18 C           0.1613    0.2114   20.4682 C.ar    1  UNL1        0.0298
     19 C           1.2398   -0.7749   20.1306 C.ar    1  UNL1        0.0068
     20 C           7.0005   -5.7909   28.2626 C.3     1  UNL1        0.0594
     21 C           6.9147   -4.9086   27.0526 C.ar    1  UNL1        0.0887
     22 N           6.9150   -5.3680   25.6246 N.ar    1  UNL1       -0.2396
     23 C           6.8140   -4.1554   24.7476 C.ar    1  UNL1        0.1237
     24 C           6.7512   -2.9465   25.6334 C.ar    1  UNL1        0.0588
     25 S           6.8134   -3.4120   27.0580 S.2     1  UNL1       -0.0701
@<TRIPOS>BOND
     1    20    21    1
     2    21    22   ar
     3    22    23   ar
     4    23     1    1
     5     1     2   ar
     6     2     3   ar
     7     3     4   ar
     8     4     5   ar
     9     5     6    1
    10     6     7    1
    11     7     8    1
    12     8     9   am
    13     9    10    2
    14     9    13    1
    15    13    14   ar
    16    14    15   ar
    17    15    16   ar
    18    16    17    1
    19    16    18   ar
    20    18    19   ar
    21     8    11    1
    22    11    12    1
    23    23    24   ar
    24    24    25   ar
    25    25    21   ar
    26     5     1   ar
    27    19    13   ar
    28    11     4    1
@<TRIPOS>MOLECULE
*****
 25 28 0 0 0
SMALL
GASTEIGER

@<TRIPOS>ATOM
      1 C         -18.5503   -3.7979   19.6175 C.ar    1  UNL1        0.1845
      2 N         -19.4712   -4.9392   19.9329 N.ar    1  UNL1       -0.1274
      3 N         -18.7008   -6.2156   19.7678 N.ar    1  UNL1       -0.1316
      4 C         -17.3038   -5.8631   19.3503 C.ar    1  UNL1        0.1615
      5 N         -17.2108   -4.3689   19.2574 N.ar    1  UNL1       -0.2944
      6 C         -15.9185   -3.7213   18.8570 C.3     1  UNL1        0.1302
      7 C         -14.7190   -4.5680   18.5494 C.3     1  UNL1        0.1186
      8 N         -14.8119   -6.0622   18.6423 N.am    1  UNL1       -0.2688
      9 C         -13.6126   -6.9088   18.3348 C.2     1  UNL1        0.2494
     10 O         -13.7055   -8.4031   18.4277 O.2     1  UNL1       -0.2699
     11 C         -16.1044   -6.7098   19.0428 C.3     1  UNL1        0.1343
     12 C         -16.1974   -8.2040   19.1357 C.3     1  UNL1        0.0298
     13 C         -12.3202   -6.2612   17.9344 C.ar    1  UNL1        0.0537
     14 C         -11.3208   -5.8704   18.9824 C.ar    1  UNL1        0.0068
     15 C         -10.0284   -5.2228   18.5819 C.ar    1  UNL1        0.0298
     16 C          -9.7354   -4.9660   17.1334 C.ar    1  UNL1        0.1401
     17 F          -8.4430   -4.3184   16.7329 F       1  UNL1       -0.2042
     18 C         -10.7348   -5.3569   16.0854 C.ar    1  UNL1        0.0298
     19 C         -12.0272   -6.0045   16.4858 C.ar    1  UNL1        0.0068
     20 C         -20.0541    0.9609   21.3418 C.3     1  UNL1        0.0594
     21 C         -19.5977   -0.1539   20.4480 C.ar    1  UNL1        0.0887
     22 N         -19.3475   -1.5727   20.8657 N.ar    1  UNL1       -0.2396
     23 C         -18.9065   -2.3413   19.6555 C.ar    1  UNL1        0.1237
     24 C         -18.8841   -1.3975   18.4897 C.ar    1  UNL1        0.0588
     25 S         -19.3113   -0.0457   18.9796 S.2     1  UNL1       -0.0701
@<TRIPOS>BOND
     1    20    21    1
     2    21    22   ar
     3    22    23   ar
     4    23     1    1
     5     1     2   ar
     6     2     3   ar
     7     3     4   ar
     8     4     5   ar
     9     5     6    1
    10     6     7    1
    11     7     8    1
    12     8     9   am
    13     9    10    2
    14     9    13    1
    15    13    14   ar
    16    14    15   ar
    17    15    16   ar
    18    16    17    1
    19    16    18   ar
    20    18    19   ar
    21     8    11    1
    22    11    12    1
    23    23    24   ar
    24    24    25   ar
    25    25    21   ar
    26     5     1   ar
    27    19    13   ar
    28    11     4    1
@<TRIPOS>MOLECULE
*****
 25 28 0 0 0
SMALL
GASTEIGER

@<TRIPOS>ATOM
      1 C           5.6345   -1.2203   33.2039 C.ar    1  UNL1        0.1845
      2 N           5.6935   -0.6909   34.6061 N.ar    1  UNL1       -0.1274
      3 N           4.6225    0.3489   34.7543 N.ar    1  UNL1       -0.1316
      4 C           3.9018    0.4622   33.4437 C.ar    1  UNL1        0.1615
      5 N           4.5272   -0.5077   32.4855 N.ar    1  UNL1       -0.2944
      6 C           4.0076   -0.6166   31.0826 C.3     1  UNL1        0.1302
      7 C           2.8626    0.2443   30.6379 C.3     1  UNL1        0.1186
      8 N           2.2371    1.2141   31.5961 N.am    1  UNL1       -0.2688
      9 C           1.0921    2.0750   31.1515 C.2     1  UNL1        0.2494
     10 O           0.4666    3.0449   32.1097 O.2     1  UNL1       -0.2699
     11 C           2.7567    1.3230   32.9991 C.3     1  UNL1        0.1343
     12 C           2.1313    2.2929   33.9573 C.3     1  UNL1        0.0298
     13 C           0.5725    1.9661   29.7486 C.ar    1  UNL1        0.0537
     14 C          -0.4393    0.9140   29.4031 C.ar    1  UNL1        0.0068
     15 C          -0.9588    0.8051   28.0001 C.ar    1  UNL1        0.0298
     16 C          -0.4666    1.7482   26.9427 C.ar    1  UNL1        0.1401
     17 F          -0.9862    1.6393   25.5398 F       1  UNL1       -0.2042
     18 C           0.5452    2.8003   27.2882 C.ar    1  UNL1        0.0298
     19 C           1.0647    2.9093   28.6911 C.ar    1  UNL1        0.0068
     20 C           7.3561   -5.7867   31.1878 C.3     1  UNL1        0.0594
     21 C           7.3177   -4.3758   31.6954 C.ar    1  UNL1        0.0887
     22 N           6.1103   -3.6634   32.2292 N.ar    1  UNL1       -0.2396
     23 C           6.5263   -2.2768   32.6221 C.ar    1  UNL1        0.1237
     24 C           7.9907   -2.1322   32.3311 C.ar    1  UNL1        0.0588
     25 S           8.4798   -3.4294   31.7584 S.2     1  UNL1       -0.0701
@<TRIPOS>BOND
     1    20    21    1
     2    21    22   ar
     3    22    23   ar
     4    23     1    1
     5     1     2   ar
     6     2     3   ar
     7     3     4   ar
     8     4     5   ar
     9     5     6    1
    10     6     7    1
    11     7     8    1
    12     8     9   am
    13     9    10    2
    14     9    13    1
    15    13    14   ar
    16    14    15   ar
    17    15    16   ar
    18    16    17    1
    19    16    18   ar
    20    18    19   ar
    21     8    11    1
    22    11    12    1
    23    23    24   ar
    24    24    25   ar
    25    25    21   ar
    26     5     1   ar
    27    19    13   ar
    28    11     4    1
@<TRIPOS>MOLECULE
*****
 25 28 0 0 0
SMALL
GASTEIGER

@<TRIPOS>ATOM
      1 C           2.1816    1.7600   25.7365 C.ar    1  UNL1        0.1845
      2 N           2.4285    3.2328   25.5955 N.ar    1  UNL1       -0.1274
      3 N           3.1134    3.4641   24.2812 N.ar    1  UNL1       -0.1316
      4 C           3.2898    2.1344   23.6099 C.ar    1  UNL1        0.1615
      5 N           2.7138    1.0811   24.5093 N.ar    1  UNL1       -0.2944
      6 C           2.7485   -0.3600   24.0948 C.3     1  UNL1        0.1302
      7 C           3.3591   -0.7480   22.7807 C.3     1  UNL1        0.1186
      8 N           3.9350    0.3053   21.8812 N.am    1  UNL1       -0.2688
      9 C           4.5456   -0.0826   20.5672 C.2     1  UNL1        0.2494
     10 O           5.1215    0.9706   19.6678 O.2     1  UNL1       -0.2699
     11 C           3.9003    1.7465   22.2959 C.3     1  UNL1        0.1343
     12 C           4.4763    2.7997   21.3964 C.3     1  UNL1        0.0298
     13 C           4.5802   -1.5237   20.1526 C.ar    1  UNL1        0.0537
     14 C           3.3698   -2.1545   19.5307 C.ar    1  UNL1        0.0068
     15 C           3.4045   -3.5958   19.1161 C.ar    1  UNL1        0.0298
     16 C           4.6496   -4.4060   19.3235 C.ar    1  UNL1        0.1401
     17 F           4.6843   -5.8473   18.9089 F       1  UNL1       -0.2042
     18 C           5.8601   -3.7752   19.9454 C.ar    1  UNL1        0.0298
     19 C           5.8254   -2.3341   20.3600 C.ar    1  UNL1        0.0068
     20 C          -1.5009   -0.1110   29.0258 C.3     1  UNL1        0.0594
     21 C          -0.1740    0.2246   28.4123 C.ar    1  UNL1        0.0887
     22 N           0.0407    0.9778   27.1329 N.ar    1  UNL1       -0.2396
     23 C           1.5187    1.0846   26.9003 C.ar    1  UNL1        0.1237
     24 C           2.2176    0.3975   28.0358 C.ar    1  UNL1        0.0588
     25 S           1.1714   -0.1340   28.9703 S.2     1  UNL1       -0.0701
@<TRIPOS>BOND
     1    20    21    1
     2    21    22   ar
     3    22    23   ar
     4    23     1    1
     5     1     2   ar
     6     2     3   ar
     7     3     4   ar
     8     4     5   ar
     9     5     6    1
    10     6     7    1
    11     7     8    1
    12     8     9   am
    13     9    10    2
    14     9    13    1
    15    13    14   ar
    16    14    15   ar
    17    15    16   ar
    18    16    17    1
    19    16    18   ar
    20    18    19   ar
    21     8    11    1
    22    11    12    1
    23    23    24   ar
    24    24    25   ar
    25    25    21   ar
    26     5     1   ar
    27    19    13   ar
    28    11     4    1
@<TRIPOS>MOLECULE
*****
 25 28 0 0 0
SMALL
GASTEIGER

@<TRIPOS>ATOM
      1 C         -13.3803   -6.1602   18.8129 C.ar    1  UNL1        0.1845
      2 N         -11.8924   -6.2304   18.9897 N.ar    1  UNL1       -0.1274
      3 N         -11.3606   -4.8279   19.0032 N.ar    1  UNL1       -0.1316
      4 C         -12.5198   -3.8910   18.8346 C.ar    1  UNL1        0.1615
      5 N         -13.7681   -4.7144   18.7170 N.ar    1  UNL1       -0.2944
      6 C         -15.0965   -4.0413   18.5379 C.3     1  UNL1        0.1302
      7 C         -15.1767   -2.5446   18.4763 C.3     1  UNL1        0.1186
      8 N         -13.9285   -1.7212   18.5939 N.am    1  UNL1       -0.2688
      9 C         -14.0087   -0.2246   18.5324 C.2     1  UNL1        0.2494
     10 O         -12.7604    0.5988   18.6500 O.2     1  UNL1       -0.2699
     11 C         -12.6000   -2.3944   18.7731 C.3     1  UNL1        0.1343
     12 C         -11.3518   -1.5710   18.8907 C.3     1  UNL1        0.0298
     13 C         -15.3371    0.4485   18.3532 C.ar    1  UNL1        0.0537
     14 C         -15.8465    0.7475   16.9744 C.ar    1  UNL1        0.0068
     15 C         -17.1750    1.4207   16.7953 C.ar    1  UNL1        0.0298
     16 C         -17.9940    1.7948   17.9949 C.ar    1  UNL1        0.1401
     17 F         -19.3225    2.4679   17.8158 F       1  UNL1       -0.2042
     18 C         -17.4846    1.4957   19.3737 C.ar    1  UNL1        0.0298
     19 C         -16.1562    0.8226   19.5529 C.ar    1  UNL1        0.0068
     20 C         -17.5143   -9.3398   19.6382 C.3     1  UNL1        0.0594
     21 C         -16.2164   -8.7920   19.1233 C.ar    1  UNL1        0.0887
     22 N         -15.6107   -7.4692   19.4889 N.ar    1  UNL1       -0.2396
     23 C         -14.3162   -7.3305   18.7439 C.ar    1  UNL1        0.1237
     24 C         -14.1218   -8.5674   17.9179 C.ar    1  UNL1        0.0588
     25 S         -15.2962   -9.4706   18.1524 S.2     1  UNL1       -0.0701
@<TRIPOS>BOND
     1    20    21    1
     2    21    22   ar
     3    22    23   ar
     4    23     1    1
     5     1     2   ar
     6     2     3   ar
     7     3     4   ar
     8     4     5   ar
     9     5     6    1
    10     6     7    1
    11     7     8    1
    12     8     9   am
    13     9    10    2
    14     9    13    1
    15    13    14   ar
    16    14    15   ar
    17    15    16   ar
    18    16    17    1
    19    16    18   ar
    20    18    19   ar
    21     8    11    1
    22    11    12    1
    23    23    24   ar
    24    24    25   ar
    25    25    21   ar
    26     5     1   ar
    27    19    13   ar
    28    11     4    1
@<TRIPOS>MOLECULE
*****
 25 28 0 0 0
SMALL
GASTEIGER

@<TRIPOS>ATOM
      1 C         -13.1538   -7.0863   18.1280 C.ar    1  UNL1        0.1845
      2 N         -11.7796   -7.6634   17.9586 N.ar    1  UNL1       -0.1274
      3 N         -10.8372   -6.5357   17.6585 N.ar    1  UNL1       -0.1316
      4 C         -11.6288   -5.2617   17.6425 C.ar    1  UNL1        0.1615
      5 N         -13.0606   -5.6020   17.9327 N.ar    1  UNL1       -0.2944
      6 C         -14.0945   -4.5164   17.9815 C.3     1  UNL1        0.1302
      7 C         -13.6967   -3.0904   17.7402 C.3     1  UNL1        0.1186
      8 N         -12.2649   -2.7500   17.4500 N.am    1  UNL1       -0.2688
      9 C         -11.8670   -1.3240   17.2087 C.2     1  UNL1        0.2494
     10 O         -10.4353   -0.9837   16.9185 O.2     1  UNL1       -0.2699
     11 C         -11.2310   -3.8357   17.4011 C.3     1  UNL1        0.1343
     12 C          -9.7992   -3.4954   17.1109 C.3     1  UNL1        0.0298
     13 C         -12.9009   -0.2384   17.2575 C.ar    1  UNL1        0.0537
     14 C         -13.2797    0.3780   18.5715 C.ar    1  UNL1        0.0068
     15 C         -14.3137    1.4636   18.6204 C.ar    1  UNL1        0.0298
     16 C         -14.9688    1.9329   17.3552 C.ar    1  UNL1        0.1401
     17 F         -16.0028    3.0185   17.4041 F       1  UNL1       -0.2042
     18 C         -14.5900    1.3165   16.0412 C.ar    1  UNL1        0.0298
     19 C         -13.5561    0.2309   15.9924 C.ar    1  UNL1        0.0068
     20 C         -17.8118   -8.4867   20.1829 C.3     1  UNL1        0.0594
     21 C         -16.5431   -8.5018   19.3829 C.ar    1  UNL1        0.0887
     22 N         -15.4920   -7.4316   19.3764 N.ar    1  UNL1       -0.2396
     23 C         -14.4020   -7.8581   18.4384 C.ar    1  UNL1        0.1237
     24 C         -14.7793   -9.1919   17.8651 C.ar    1  UNL1        0.0588
     25 S         -16.1025   -9.5898   18.4489 S.2     1  UNL1       -0.0701
@<TRIPOS>BOND
     1    20    21    1
     2    21    22   ar
     3    22    23   ar
     4    23     1    1
     5     1     2   ar
     6     2     3   ar
     7     3     4   ar
     8     4     5   ar
     9     5     6    1
    10     6     7    1
    11     7     8    1
    12     8     9   am
    13     9    10    2
    14     9    13    1
    15    13    14   ar
    16    14    15   ar
    17    15    16   ar
    18    16    17    1
    19    16    18   ar
    20    18    19   ar
    21     8    11    1
    22    11    12    1
    23    23    24   ar
    24    24    25   ar
    25    25    21   ar
    26     5     1   ar
    27    19    13   ar
    28    11     4    1
@<TRIPOS>MOLECULE
*****
 25 28 0 0 0
SMALL
GASTEIGER

@<TRIPOS>ATOM
      1 C           5.7343   -2.6294   27.1079 C.ar    1  UNL1        0.1845
      2 N           6.7049   -3.5809   27.7424 N.ar    1  UNL1       -0.1274
      3 N           7.3922   -4.3409   26.6469 N.ar    1  UNL1       -0.1316
      4 C           6.8464   -3.8592   25.3354 C.ar    1  UNL1        0.1615
      5 N           5.8217   -2.8014   25.6203 N.ar    1  UNL1       -0.2944
      6 C           5.1007   -2.1314   24.4884 C.3     1  UNL1        0.1302
      7 C           5.4043   -2.5193   23.0715 C.3     1  UNL1        0.1186
      8 N           6.4290   -3.5771   22.7867 N.am    1  UNL1       -0.2688
      9 C           6.7326   -3.9649   21.3699 C.2     1  UNL1        0.2494
     10 O           7.7572   -5.0227   21.0850 O.2     1  UNL1       -0.2699
     11 C           7.1500   -4.2470   23.9187 C.3     1  UNL1        0.1343
     12 C           8.1747   -5.3048   23.6338 C.3     1  UNL1        0.0298
     13 C           6.0115   -3.2950   20.2380 C.ar    1  UNL1        0.0537
     14 C           6.6738   -2.1823   19.4808 C.ar    1  UNL1        0.0068
     15 C           5.9527   -1.5124   18.3488 C.ar    1  UNL1        0.0298
     16 C           4.5694   -1.9551   17.9741 C.ar    1  UNL1        0.1401
     17 F           3.8483   -1.2852   16.8422 F       1  UNL1       -0.2042
     18 C           3.9071   -3.0678   18.7313 C.ar    1  UNL1        0.0298
     19 C           4.6282   -3.7377   19.8632 C.ar    1  UNL1        0.0068
     20 C           1.4234   -0.0992   28.8092 C.3     1  UNL1        0.0594
     21 C           2.8527   -0.5106   28.6156 C.ar    1  UNL1        0.0887
     22 N           3.3401   -1.6098   27.7185 N.ar    1  UNL1       -0.2396
     23 C           4.8343   -1.6737   27.8335 C.ar    1  UNL1        0.1237
     24 C           5.2705   -0.6141   28.8015 C.ar    1  UNL1        0.0588
     25 S           4.0459    0.1047   29.2849 S.2     1  UNL1       -0.0701
@<TRIPOS>BOND
     1    20    21    1
     2    21    22   ar
     3    22    23   ar
     4    23     1    1
     5     1     2   ar
     6     2     3   ar
     7     3     4   ar
     8     4     5   ar
     9     5     6    1
    10     6     7    1
    11     7     8    1
    12     8     9   am
    13     9    10    2
    14     9    13    1
    15    13    14   ar
    16    14    15   ar
    17    15    16   ar
    18    16    17    1
    19    16    18   ar
    20    18    19   ar
    21     8    11    1
    22    11    12    1
    23    23    24   ar
    24    24    25   ar
    25    25    21   ar
    26     5     1   ar
    27    19    13   ar
    28    11     4    1
@<TRIPOS>MOLECULE
*****
 25 28 0 0 0
SMALL
GASTEIGER

@<TRIPOS>ATOM
      1 C          -0.1776    2.4621   23.2412 C.ar    1  UNL1        0.1845
      2 N          -1.0019    3.3268   22.3341 N.ar    1  UNL1       -0.1274
      3 N          -0.6218    3.0080   20.9185 N.ar    1  UNL1       -0.1316
      4 C           0.4373    1.9463   20.9507 C.ar    1  UNL1        0.1615
      5 N           0.7118    1.6089   22.3862 N.ar    1  UNL1       -0.2944
      6 C           1.7363    0.5683   22.7294 C.3     1  UNL1        0.1302
      7 C           2.4862   -0.1348   21.6370 C.3     1  UNL1        0.1186
      8 N           2.2117    0.2026   20.2015 N.am    1  UNL1       -0.2688
      9 C           2.9615   -0.5005   19.1092 C.2     1  UNL1        0.2494
     10 O           2.6870   -0.1631   17.6736 O.2     1  UNL1       -0.2699
     11 C           1.1872    1.2432   19.8583 C.3     1  UNL1        0.1343
     12 C           0.9126    1.5806   18.4228 C.3     1  UNL1        0.0298
     13 C           3.9860   -1.5410   19.4524 C.ar    1  UNL1        0.0537
     14 C           3.5849   -2.9827   19.5567 C.ar    1  UNL1        0.0068
     15 C           4.6094   -4.0232   19.8999 C.ar    1  UNL1        0.0298
     16 C           6.0349   -3.6221   20.1388 C.ar    1  UNL1        0.1401
     17 F           7.0594   -4.6627   20.4820 F       1  UNL1       -0.2042
     18 C           6.4360   -2.1805   20.0344 C.ar    1  UNL1        0.0298
     19 C           5.4115   -1.1400   19.6912 C.ar    1  UNL1        0.0068
     20 C          -0.4525    0.8001   28.2455 C.3     1  UNL1        0.0594
     21 C          -0.3594    1.6883   27.0404 C.ar    1  UNL1        0.0887
     22 N          -0.3321    1.2348   25.6108 N.ar    1  UNL1       -0.2396
     23 C          -0.2331    2.4522   24.7401 C.ar    1  UNL1        0.1237
     24 C          -0.1992    3.6581   25.6315 C.ar    1  UNL1        0.0588
     25 S          -0.2773    3.1860   27.0532 S.2     1  UNL1       -0.0701
@<TRIPOS>BOND
     1    20    21    1
     2    21    22   ar
     3    22    23   ar
     4    23     1    1
     5     1     2   ar
     6     2     3   ar
     7     3     4   ar
     8     4     5   ar
     9     5     6    1
    10     6     7    1
    11     7     8    1
    12     8     9   am
    13     9    10    2
    14     9    13    1
    15    13    14   ar
    16    14    15   ar
    17    15    16   ar
    18    16    17    1
    19    16    18   ar
    20    18    19   ar
    21     8    11    1
    22    11    12    1
    23    23    24   ar
    24    24    25   ar
    25    25    21   ar
    26     5     1   ar
    27    19    13   ar
    28    11     4    1
@<TRIPOS>MOLECULE
*****
 25 28 0 0 0
SMALL
GASTEIGER

@<TRIPOS>ATOM
      1 C           2.3880   -0.2721   19.3931 C.ar    1  UNL1        0.1845
      2 N           1.6325    0.4076   18.2898 N.ar    1  UNL1       -0.1274
      3 N           0.7040    1.4080   18.9119 N.ar    1  UNL1       -0.1316
      4 C           0.8856    1.3466   20.3996 C.ar    1  UNL1        0.1615
      5 N           1.9264    0.3082   20.6970 N.ar    1  UNL1       -0.2944
      6 C           2.3194    0.0252   22.1167 C.3     1  UNL1        0.1302
      7 C           1.6715    0.7806   23.2390 C.3     1  UNL1        0.1186
      8 N           0.6307    1.8191   22.9417 N.am    1  UNL1       -0.2688
      9 C          -0.0171    2.5745   24.0639 C.2     1  UNL1        0.2494
     10 O          -1.0579    3.6129   23.7666 O.2     1  UNL1       -0.2699
     11 C           0.2378    2.1020   21.5219 C.3     1  UNL1        0.1343
     12 C          -0.8030    3.1405   21.2245 C.3     1  UNL1        0.0298
     13 C           0.3758    2.2915   25.4836 C.ar    1  UNL1        0.0537
     14 C           1.5376    3.0141   26.0985 C.ar    1  UNL1        0.0068
     15 C           1.9306    2.7311   27.5182 C.ar    1  UNL1        0.0298
     16 C           1.1617    1.7255   28.3230 C.ar    1  UNL1        0.1401
     17 F           1.5547    1.4425   29.7427 F       1  UNL1       -0.2042
     18 C          -0.0001    1.0029   27.7081 C.ar    1  UNL1        0.0298
     19 C          -0.3930    1.2859   26.2884 C.ar    1  UNL1        0.0068
     20 C           4.6876   -4.9991   18.8946 C.3     1  UNL1        0.0594
     21 C           4.4804   -3.5168   18.9933 C.ar    1  UNL1        0.0887
     22 N           3.1642   -2.8208   19.1763 N.ar    1  UNL1       -0.2396
     23 C           3.4233   -1.3440   19.2224 C.ar    1  UNL1        0.1237
     24 C           4.8995   -1.1273   19.0678 C.ar    1  UNL1        0.0588
     25 S           5.5528   -2.4702   18.9262 S.2     1  UNL1       -0.0701
@<TRIPOS>BOND
     1    20    21    1
     2    21    22   ar
     3    22    23   ar
     4    23     1    1
     5     1     2   ar
     6     2     3   ar
     7     3     4   ar
     8     4     5   ar
     9     5     6    1
    10     6     7    1
    11     7     8    1
    12     8     9   am
    13     9    10    2
    14     9    13    1
    15    13    14   ar
    16    14    15   ar
    17    15    16   ar
    18    16    17    1
    19    16    18   ar
    20    18    19   ar
    21     8    11    1
    22    11    12    1
    23    23    24   ar
    24    24    25   ar
    25    25    21   ar
    26     5     1   ar
    27    19    13   ar
    28    11     4    1
