@<TRIPOS>MOLECULE
*****
 37 40 0 0 0
SMALL
GASTEIGER

@<TRIPOS>ATOM
      1 C          -5.8065  -16.3214   23.7755 C.3     1  UNL1        0.1225
      2 O          -6.4387  -15.7311   25.0010 O.3     1  UNL1       -0.3559
      3 C          -7.8990  -15.9449   25.2688 C.3     1  UNL1        0.1441
      4 C          -8.7272  -16.7491   24.3110 C.3     1  UNL1        0.0589
      5 C          -8.0951  -17.3394   23.0855 C.3     1  UNL1        0.1466
      6 C          -8.9233  -18.1436   22.1276 C.ar    1  UNL1        0.0618
      7 C         -10.3836  -18.3574   22.3954 C.ar    1  UNL1        0.1407
      8 F         -11.3166  -17.9269   23.4881 F       1  UNL1       -0.2043
      9 C         -11.2118  -19.1616   21.4376 C.ar    1  UNL1        0.0319
     10 C         -10.5797  -19.7520   20.2120 C.ar    1  UNL1        0.0351
     11 C          -9.1193  -19.5381   19.9443 C.ar    1  UNL1        0.1737
     12 F          -8.4872  -20.1284   18.7188 F       1  UNL1       -0.2010
     13 C          -8.2911  -18.7339   20.9021 C.ar    1  UNL1        0.1655
     14 O          -6.8308  -18.5200   20.6344 O.3     1  UNL1       -0.4732
     15 C          -6.0026  -17.7159   21.5922 C.3     1  UNL1        0.2098
     16 C          -6.6347  -17.1255   22.8178 C.3     1  UNL1        0.0957
     17 S          -9.5554  -17.5532   23.3532 S.O2    1  UNL1        0.0094
     18 O         -10.0503  -16.9384   23.2418 O.2     1  UNL1       -0.1684
     19 O          -9.6389  -18.9869   23.7865 O.2     1  UNL1       -0.1684
     20 C         -11.0157  -17.7671   23.6209 C.ar    1  UNL1        0.1059
     21 C         -12.0407  -16.9737   22.8659 C.ar    1  UNL1        0.0192
     22 C         -13.5011  -17.1875   23.1336 C.ar    1  UNL1        0.0127
     23 C         -13.9364  -18.1948   24.1564 C.ar    1  UNL1        0.0578
     24 CL        -15.3968  -18.4087   24.4241 Cl      1  UNL1       -0.0822
     25 C         -12.9115  -18.9882   24.9113 C.ar    1  UNL1        0.0127
     26 C         -11.4511  -18.7743   24.6436 C.ar    1  UNL1        0.0192
     27 C          -4.3462  -16.1075   23.5078 C.3     1  UNL1        0.0550
     28 C          -3.4696  -17.2729   23.1565 C.3     1  UNL1        0.1534
     29 S          -2.4170  -17.1272   22.0978 S.O2    1  UNL1       -0.0085
     30 O          -1.9545  -18.5290   22.3647 O.2     1  UNL1       -0.1729
     31 O          -2.8794  -15.7255   21.8308 O.2     1  UNL1       -0.1729
     32 C          -1.3643  -16.9816   21.0391 C.3     1  UNL1        0.1678
     33 C          -1.6592  -17.3921   19.6269 C.3     1  UNL1        0.0942
     34 N          -2.0287  -18.8133   19.3205 N.3     1  UNL1       -0.2960
     35 H          -1.6497  -19.0235   18.3972 H       1  UNL1        0.1233
     36 C          -3.9033  -20.4745   20.0105 C.3     1  UNL1        0.0185
     37 C          -3.4707  -19.2257   19.3010 C.3     1  UNL1        0.0686
@<TRIPOS>BOND
     1    36    37    1
     2    37    34    1
     3    34    33    1
     4    33    32    1
     5    32    29    1
     6    29    30    2
     7    29    31    2
     8    29    28    1
     9    28    27    1
    10     1    27    1
    11     1     2    1
    12     2     3    1
    13     3     4    1
    14     4     5    1
    15     5    17    1
    16    17    18    2
    17    17    19    2
    18    17    20    1
    19    20    21   ar
    20    21    22   ar
    21    22    23   ar
    22    23    24    1
    23    23    25   ar
    24    25    26   ar
    25     5     6    1
    26     6     7   ar
    27     7     8    1
    28     7     9   ar
    29     9    10   ar
    30    10    11   ar
    31    11    12    1
    32    11    13   ar
    33    13    14    1
    34    14    15    1
    35    16    15    1
    36    16     1    1
    37    16     5    1
    38    26    20   ar
    39    13     6   ar
    40    34    35    1
@<TRIPOS>MOLECULE
*****
 37 40 0 0 0
SMALL
GASTEIGER

@<TRIPOS>ATOM
      1 C           1.5169    4.3878   34.6687 C.3     1  UNL1        0.1225
      2 O           0.5744    5.2920   33.9311 O.3     1  UNL1       -0.3559
      3 C           0.1569    4.9578   32.5296 C.3     1  UNL1        0.1441
      4 C           0.6820    3.7194   31.8658 C.3     1  UNL1        0.0589
      5 C           1.6246    2.8153   32.6034 C.3     1  UNL1        0.1466
      6 C           2.1497    1.5769   31.9396 C.ar    1  UNL1        0.0618
      7 C           1.7323    1.2427   30.5381 C.ar    1  UNL1        0.1407
      8 F           0.8328    1.9003   29.5339 F       1  UNL1       -0.2043
      9 C           2.2574    0.0043   29.8743 C.ar    1  UNL1        0.0319
     10 C           3.1999   -0.8999   30.6119 C.ar    1  UNL1        0.0351
     11 C           3.6174   -0.5657   32.0133 C.ar    1  UNL1        0.1737
     12 F           4.5599   -1.4699   32.7510 F       1  UNL1       -0.2010
     13 C           3.0922    0.6727   32.6772 C.ar    1  UNL1        0.1655
     14 O           3.5097    1.0069   34.0786 O.3     1  UNL1       -0.4732
     15 C           2.9846    2.2453   34.7425 C.3     1  UNL1        0.2098
     16 C           2.0420    3.1495   34.0049 C.3     1  UNL1        0.0957
     17 S           1.2071    2.4811   31.2020 S.O2    1  UNL1        0.0094
     18 O           1.6624    2.7444   30.6029 O.2     1  UNL1       -0.1684
     19 O          -0.0507    1.6832   31.3784 O.2     1  UNL1       -0.1684
     20 C           0.7897    2.1469   29.8005 C.ar    1  UNL1        0.1059
     21 C           1.5331    2.7325   28.6367 C.ar    1  UNL1        0.0192
     22 C           1.1157    2.3983   27.2352 C.ar    1  UNL1        0.0127
     23 C          -0.0452    1.4785   26.9976 C.ar    1  UNL1        0.0578
     24 CL         -0.4626    1.1443   25.5962 Cl      1  UNL1       -0.0822
     25 C          -0.7885    0.8929   28.1614 C.ar    1  UNL1        0.0127
     26 C          -0.3711    1.2271   29.5629 C.ar    1  UNL1        0.0192
     27 C           1.9343    4.7220   36.0701 C.3     1  UNL1        0.0550
     28 C           1.1864    4.1423   37.2339 C.3     1  UNL1        0.1534
     29 S           1.8270    3.0880   38.0872 S.O2    1  UNL1       -0.0085
     30 O           3.1828    3.6130   37.7179 O.2     1  UNL1       -0.1729
     31 O           0.4713    2.5630   38.4564 O.2     1  UNL1       -0.1729
     32 C           2.4677    2.0337   38.9404 C.3     1  UNL1        0.1678
     33 C           3.8878    1.6235   38.6857 C.3     1  UNL1        0.0942
     34 N           4.1944    0.5904   37.6423 N.3     1  UNL1       -0.2960
     35 H           3.9013   -0.3091   38.0235 H       1  UNL1        0.1233
     36 C           5.8698   -0.4034   35.9232 C.3     1  UNL1        0.0185
     37 C           5.6008    0.4149   37.1511 C.3     1  UNL1        0.0686
@<TRIPOS>BOND
     1    36    37    1
     2    37    34    1
     3    34    33    1
     4    33    32    1
     5    32    29    1
     6    29    30    2
     7    29    31    2
     8    29    28    1
     9    28    27    1
    10     1    27    1
    11     1     2    1
    12     2     3    1
    13     3     4    1
    14     4     5    1
    15     5    17    1
    16    17    18    2
    17    17    19    2
    18    17    20    1
    19    20    21   ar
    20    21    22   ar
    21    22    23   ar
    22    23    24    1
    23    23    25   ar
    24    25    26   ar
    25     5     6    1
    26     6     7   ar
    27     7     8    1
    28     7     9   ar
    29     9    10   ar
    30    10    11   ar
    31    11    12    1
    32    11    13   ar
    33    13    14    1
    34    14    15    1
    35    16    15    1
    36    16     1    1
    37    16     5    1
    38    26    20   ar
    39    13     6   ar
    40    34    35    1
@<TRIPOS>MOLECULE
*****
 37 40 0 0 0
SMALL
GASTEIGER

@<TRIPOS>ATOM
      1 C         -14.2281   -0.7516   18.4555 C.3     1  UNL1        0.1225
      2 O         -15.7023   -0.9494   18.2618 O.3     1  UNL1       -0.3559
      3 C         -16.2706   -2.3360   18.1952 C.3     1  UNL1        0.1441
      4 C         -15.3647   -3.5247   18.3224 C.3     1  UNL1        0.0589
      5 C         -13.8905   -3.3269   18.5160 C.3     1  UNL1        0.1466
      6 C         -12.9845   -4.5157   18.6432 C.ar    1  UNL1        0.0618
      7 C         -13.5529   -5.9023   18.5766 C.ar    1  UNL1        0.1407
      8 F         -14.9361   -6.4539   18.3971 F       1  UNL1       -0.2043
      9 C         -12.6470   -7.0910   18.7037 C.ar    1  UNL1        0.0319
     10 C         -11.1727   -6.8932   18.8974 C.ar    1  UNL1        0.0351
     11 C         -10.6044   -5.5066   18.9639 C.ar    1  UNL1        0.1737
     12 F          -9.1302   -5.3088   19.1576 F       1  UNL1       -0.2010
     13 C         -11.5103   -4.3179   18.8368 C.ar    1  UNL1        0.1655
     14 O         -10.9420   -2.9313   18.9034 O.3     1  UNL1       -0.4732
     15 C         -11.8479   -1.7425   18.7763 C.3     1  UNL1        0.2098
     16 C         -13.3222   -1.9403   18.5826 C.3     1  UNL1        0.0957
     17 S         -14.4588   -4.7135   18.4495 S.O2    1  UNL1        0.0094
     18 O         -14.5630   -5.1086   19.1339 O.2     1  UNL1       -0.1684
     19 O         -14.6742   -4.9475   16.9836 O.2     1  UNL1       -0.1684
     20 C         -15.0271   -6.1001   18.3829 C.ar    1  UNL1        0.1059
     21 C         -15.0669   -6.8323   17.0743 C.ar    1  UNL1        0.0192
     22 C         -15.6352   -8.2189   17.0078 C.ar    1  UNL1        0.0127
     23 C         -16.1638   -8.8732   18.2498 C.ar    1  UNL1        0.0578
     24 CL        -16.7321  -10.2598   18.1832 Cl      1  UNL1       -0.0822
     25 C         -16.1240   -8.1410   19.5583 C.ar    1  UNL1        0.0127
     26 C         -15.5557   -6.7544   19.6248 C.ar    1  UNL1        0.0192
     27 C         -13.6598    0.6350   18.5220 C.3     1  UNL1        0.0550
     28 C         -14.1506    1.6928   17.5786 C.3     1  UNL1        0.1534
     29 S         -15.3674    2.4993   17.9234 S.O2    1  UNL1       -0.0085
     30 O         -16.0242    2.0523   16.6511 O.2     1  UNL1       -0.1729
     31 O         -14.7106    2.9463   19.1958 O.2     1  UNL1       -0.1729
     32 C         -16.5843    3.3057   18.2683 C.3     1  UNL1        0.1678
     33 C         -17.6994    2.6821   19.0541 C.3     1  UNL1        0.0942
     34 N         -17.6050    1.2473   19.4811 N.3     1  UNL1       -0.2960
     35 H         -18.5399    0.8502   19.3879 H       1  UNL1        0.1233
     36 C         -17.3969    1.8391   22.0023 C.3     1  UNL1        0.0185
     37 C         -17.1248    0.9053   20.8604 C.3     1  UNL1        0.0686
@<TRIPOS>BOND
     1    36    37    1
     2    37    34    1
     3    34    33    1
     4    33    32    1
     5    32    29    1
     6    29    30    2
     7    29    31    2
     8    29    28    1
     9    28    27    1
    10     1    27    1
    11     1     2    1
    12     2     3    1
    13     3     4    1
    14     4     5    1
    15     5    17    1
    16    17    18    2
    17    17    19    2
    18    17    20    1
    19    20    21   ar
    20    21    22   ar
    21    22    23   ar
    22    23    24    1
    23    23    25   ar
    24    25    26   ar
    25     5     6    1
    26     6     7   ar
    27     7     8    1
    28     7     9   ar
    29     9    10   ar
    30    10    11   ar
    31    11    12    1
    32    11    13   ar
    33    13    14    1
    34    14    15    1
    35    16    15    1
    36    16     1    1
    37    16     5    1
    38    26    20   ar
    39    13     6   ar
    40    34    35    1
@<TRIPOS>MOLECULE
*****
 37 40 0 0 0
SMALL
GASTEIGER

@<TRIPOS>ATOM
      1 C         -14.7105   -0.8019   18.5048 C.3     1  UNL1        0.1225
      2 O         -16.1661   -1.1035   18.3042 O.3     1  UNL1       -0.3559
      3 C         -16.6340   -2.5268   18.2313 C.3     1  UNL1        0.1441
      4 C         -15.6463   -3.6484   18.3589 C.3     1  UNL1        0.0589
      5 C         -14.1908   -3.3468   18.5595 C.3     1  UNL1        0.1466
      6 C         -13.2030   -4.4685   18.6871 C.ar    1  UNL1        0.0618
      7 C         -13.6709   -5.8918   18.6142 C.ar    1  UNL1        0.1407
      8 F         -15.0107   -6.5399   18.4272 F       1  UNL1       -0.2043
      9 C         -12.6832   -7.0134   18.7419 C.ar    1  UNL1        0.0319
     10 C         -11.2276   -6.7118   18.9424 C.ar    1  UNL1        0.0351
     11 C         -10.7597   -5.2886   19.0154 C.ar    1  UNL1        0.1737
     12 F          -9.3041   -4.9869   19.2160 F       1  UNL1       -0.2010
     13 C         -11.7474   -4.1669   18.8877 C.ar    1  UNL1        0.1655
     14 O         -11.2795   -2.7436   18.9607 O.3     1  UNL1       -0.4732
     15 C         -12.2672   -1.6219   18.8330 C.3     1  UNL1        0.2098
     16 C         -13.7229   -1.9235   18.6324 C.3     1  UNL1        0.0957
     17 S         -14.6587   -4.7701   18.4866 S.O2    1  UNL1        0.0094
     18 O         -14.7999   -5.1532   19.1712 O.2     1  UNL1       -0.1684
     19 O         -14.7212   -5.0567   17.0155 O.2     1  UNL1       -0.1684
     20 C         -15.1266   -6.1934   18.4136 C.ar    1  UNL1        0.1059
     21 C         -15.6350   -6.8799   19.6467 C.ar    1  UNL1        0.0192
     22 C         -16.1029   -8.3031   19.5738 C.ar    1  UNL1        0.0127
     23 C         -16.0624   -9.0400   18.2678 C.ar    1  UNL1        0.0578
     24 CL        -16.5303  -10.4632   18.1948 Cl      1  UNL1       -0.0822
     25 C         -15.5540   -8.3535   17.0348 C.ar    1  UNL1        0.0127
     26 C         -15.0861   -6.9302   17.1077 C.ar    1  UNL1        0.0192
     27 C         -14.2426    0.6214   18.5777 C.3     1  UNL1        0.0550
     28 C         -15.0957    1.7210   18.0182 C.3     1  UNL1        0.1534
     29 S         -15.5935    2.8147   18.9159 S.O2    1  UNL1       -0.0085
     30 O         -14.3740    3.6290   18.6000 O.2     1  UNL1       -0.1729
     31 O         -16.8130    2.0005   19.2317 O.2     1  UNL1       -0.1729
     32 C         -16.0913    3.9085   19.8136 C.3     1  UNL1        0.1678
     33 C         -15.6717    3.9465   21.2532 C.3     1  UNL1        0.0942
     34 N         -14.3929    4.6261   21.6440 N.3     1  UNL1       -0.2960
     35 H         -13.6745    3.9029   21.6808 H       1  UNL1        0.1233
     36 C         -13.3646    4.9356   24.0097 C.3     1  UNL1        0.0185
     37 C         -14.3108    5.3841   22.9357 C.3     1  UNL1        0.0686
@<TRIPOS>BOND
     1    36    37    1
     2    37    34    1
     3    34    33    1
     4    33    32    1
     5    32    29    1
     6    29    30    2
     7    29    31    2
     8    29    28    1
     9    28    27    1
    10     1    27    1
    11     1     2    1
    12     2     3    1
    13     3     4    1
    14     4     5    1
    15     5    17    1
    16    17    18    2
    17    17    19    2
    18    17    20    1
    19    20    21   ar
    20    21    22   ar
    21    22    23   ar
    22    23    24    1
    23    23    25   ar
    24    25    26   ar
    25     5     6    1
    26     6     7   ar
    27     7     8    1
    28     7     9   ar
    29     9    10   ar
    30    10    11   ar
    31    11    12    1
    32    11    13   ar
    33    13    14    1
    34    14    15    1
    35    16    15    1
    36    16     1    1
    37    16     5    1
    38    26    20   ar
    39    13     6   ar
    40    34    35    1
@<TRIPOS>MOLECULE
*****
 37 40 0 0 0
SMALL
GASTEIGER

@<TRIPOS>ATOM
      1 C         -16.3985   -1.3449   19.4994 C.3     1  UNL1        0.1225
      2 O         -17.8241   -1.8054   19.4253 O.3     1  UNL1       -0.3559
      3 C         -18.1334   -3.2635   19.2569 C.3     1  UNL1        0.1441
      4 C         -17.0171   -4.2610   19.1627 C.3     1  UNL1        0.0589
      5 C         -15.5915   -3.8004   19.2368 C.3     1  UNL1        0.1466
      6 C         -14.4752   -4.7979   19.1425 C.ar    1  UNL1        0.0618
      7 C         -14.7845   -6.2560   18.9742 C.ar    1  UNL1        0.1407
      8 F         -16.0551   -7.0459   18.8656 F       1  UNL1       -0.2043
      9 C         -13.6683   -7.2535   18.8799 C.ar    1  UNL1        0.0319
     10 C         -12.2426   -6.7929   18.9540 C.ar    1  UNL1        0.0351
     11 C         -11.9333   -5.3349   19.1224 C.ar    1  UNL1        0.1737
     12 F         -10.5077   -4.8743   19.1965 F       1  UNL1       -0.2010
     13 C         -13.0496   -4.3374   19.2167 C.ar    1  UNL1        0.1655
     14 O         -12.7403   -2.8793   19.3850 O.3     1  UNL1       -0.4732
     15 C         -13.8565   -1.8818   19.4793 C.3     1  UNL1        0.2098
     16 C         -15.2822   -2.3424   19.4052 C.3     1  UNL1        0.0957
     17 S         -15.9009   -5.2585   19.0684 S.O2    1  UNL1        0.0094
     18 O         -15.9944   -5.6996   19.7257 O.2     1  UNL1       -0.1684
     19 O         -15.9419   -5.4515   17.5815 O.2     1  UNL1       -0.1684
     20 C         -16.2102   -6.7166   18.9000 C.ar    1  UNL1        0.1059
     21 C         -16.4148   -7.5841   20.1066 C.ar    1  UNL1        0.0192
     22 C         -16.7241   -9.0421   19.9382 C.ar    1  UNL1        0.0127
     23 C         -16.8288   -9.6327   18.5633 C.ar    1  UNL1        0.0578
     24 CL        -17.1382  -11.0908   18.3949 Cl      1  UNL1       -0.0822
     25 C         -16.6243   -8.7652   17.3568 C.ar    1  UNL1        0.0127
     26 C         -16.3149   -7.3071   17.5252 C.ar    1  UNL1        0.0192
     27 C         -16.0892    0.1132   19.6678 C.3     1  UNL1        0.0550
     28 C         -17.2035    1.1164   19.7094 C.3     1  UNL1        0.1534
     29 S         -17.4258    1.9397   20.9434 S.O2    1  UNL1       -0.0085
     30 O         -18.5065    0.9951   21.3790 O.2     1  UNL1       -0.1729
     31 O         -16.3451    2.8843   20.5078 O.2     1  UNL1       -0.1729
     32 C         -17.6481    2.7630   22.1774 C.3     1  UNL1        0.1678
     33 C         -17.3661    2.1787   23.5297 C.3     1  UNL1        0.0942
     34 N         -18.4851    1.9785   24.5084 N.3     1  UNL1       -0.2960
     35 H         -18.6213    0.9716   24.5979 H       1  UNL1        0.1233
     36 C         -20.2383    3.8527   24.9126 C.3     1  UNL1        0.0185
     37 C         -19.8342    2.5756   24.2376 C.3     1  UNL1        0.0686
@<TRIPOS>BOND
     1    36    37    1
     2    37    34    1
     3    34    33    1
     4    33    32    1
     5    32    29    1
     6    29    30    2
     7    29    31    2
     8    29    28    1
     9    28    27    1
    10     1    27    1
    11     1     2    1
    12     2     3    1
    13     3     4    1
    14     4     5    1
    15     5    17    1
    16    17    18    2
    17    17    19    2
    18    17    20    1
    19    20    21   ar
    20    21    22   ar
    21    22    23   ar
    22    23    24    1
    23    23    25   ar
    24    25    26   ar
    25     5     6    1
    26     6     7   ar
    27     7     8    1
    28     7     9   ar
    29     9    10   ar
    30    10    11   ar
    31    11    12    1
    32    11    13   ar
    33    13    14    1
    34    14    15    1
    35    16    15    1
    36    16     1    1
    37    16     5    1
    38    26    20   ar
    39    13     6   ar
    40    34    35    1
@<TRIPOS>MOLECULE
*****
 37 40 0 0 0
SMALL
GASTEIGER

@<TRIPOS>ATOM
      1 C           5.5473   -2.0844   25.4095 C.3     1  UNL1        0.1225
      2 O           4.9338   -0.7882   25.8491 O.3     1  UNL1       -0.3559
      3 C           4.1062    0.0136   24.8888 C.3     1  UNL1        0.1441
      4 C           3.8922   -0.4808   23.4889 C.3     1  UNL1        0.0589
      5 C           4.5057   -1.7770   23.0493 C.3     1  UNL1        0.1466
      6 C           4.2917   -2.2715   21.6494 C.ar    1  UNL1        0.0618
      7 C           3.4641   -1.4697   20.6891 C.ar    1  UNL1        0.1407
      8 F           2.7233   -0.1690   20.7859 F       1  UNL1       -0.2043
      9 C           3.2501   -1.9642   19.2892 C.ar    1  UNL1        0.0319
     10 C           3.8637   -3.2605   18.8496 C.ar    1  UNL1        0.0351
     11 C           4.6912   -4.0623   19.8099 C.ar    1  UNL1        0.1737
     12 F           5.3048   -5.3585   19.3704 F       1  UNL1       -0.2010
     13 C           4.9053   -3.5678   21.2098 C.ar    1  UNL1        0.1655
     14 O           5.7328   -4.3696   22.1702 O.3     1  UNL1       -0.4732
     15 C           5.9469   -3.8752   23.5700 C.3     1  UNL1        0.2098
     16 C           5.3333   -2.5788   24.0096 C.3     1  UNL1        0.0957
     17 S           3.6781   -0.9752   22.0890 S.O2    1  UNL1        0.0094
     18 O           2.9070   -1.1621   22.0129 O.2     1  UNL1       -0.1684
     19 O           4.6456    0.0190   21.5185 O.2     1  UNL1       -0.1684
     20 C           2.8506   -0.1734   21.1287 C.ar    1  UNL1        0.1059
     21 C           3.4980    0.8787   20.2777 C.ar    1  UNL1        0.0192
     22 C           2.6704    1.6805   19.3174 C.ar    1  UNL1        0.0127
     23 C           1.1954    1.4302   19.2081 C.ar    1  UNL1        0.0578
     24 CL          0.3678    2.2320   18.2478 Cl      1  UNL1       -0.0822
     25 C           0.5481    0.3782   20.0590 C.ar    1  UNL1        0.0127
     26 C           1.3757   -0.4236   21.0193 C.ar    1  UNL1        0.0192
     27 C           6.3749   -2.8862   26.3698 C.3     1  UNL1        0.0550
     28 C           5.8765   -3.1360   27.7623 C.3     1  UNL1        0.1534
     29 S           6.7239   -3.8993   28.7366 S.O2    1  UNL1       -0.0085
     30 O           6.0664   -5.1773   28.3073 O.2     1  UNL1       -0.1729
     31 O           7.3813   -2.6213   29.1660 O.2     1  UNL1       -0.1729
     32 C           7.5713   -4.6626   29.7110 C.3     1  UNL1        0.1678
     33 C           7.4826   -4.3624   31.1779 C.3     1  UNL1        0.0942
     34 N           6.1493   -4.0885   31.8082 N.3     1  UNL1       -0.2960
     35 H           5.4533   -4.1552   31.0655 H       1  UNL1        0.1233
     36 C           4.6144   -2.5581   33.2407 C.3     1  UNL1        0.0185
     37 C           5.9063   -2.7873   32.5137 C.3     1  UNL1        0.0686
@<TRIPOS>BOND
     1    36    37    1
     2    37    34    1
     3    34    33    1
     4    33    32    1
     5    32    29    1
     6    29    30    2
     7    29    31    2
     8    29    28    1
     9    28    27    1
    10     1    27    1
    11     1     2    1
    12     2     3    1
    13     3     4    1
    14     4     5    1
    15     5    17    1
    16    17    18    2
    17    17    19    2
    18    17    20    1
    19    20    21   ar
    20    21    22   ar
    21    22    23   ar
    22    23    24    1
    23    23    25   ar
    24    25    26   ar
    25     5     6    1
    26     6     7   ar
    27     7     8    1
    28     7     9   ar
    29     9    10   ar
    30    10    11   ar
    31    11    12    1
    32    11    13   ar
    33    13    14    1
    34    14    15    1
    35    16    15    1
    36    16     1    1
    37    16     5    1
    38    26    20   ar
    39    13     6   ar
    40    34    35    1
@<TRIPOS>MOLECULE
*****
 37 40 0 0 0
SMALL
GASTEIGER

@<TRIPOS>ATOM
      1 C           7.1095   -4.0964   21.3348 C.3     1  UNL1        0.1225
      2 O           6.1205   -4.3598   22.4313 O.3     1  UNL1       -0.3559
      3 C           4.8885   -3.5123   22.5497 C.3     1  UNL1        0.1441
      4 C           4.6456   -2.4015   21.5714 C.3     1  UNL1        0.0589
      5 C           5.6346   -2.1381   20.4749 C.3     1  UNL1        0.1466
      6 C           5.3916   -1.0272   19.4966 C.ar    1  UNL1        0.0618
      7 C           4.1597   -0.1798   19.6149 C.ar    1  UNL1        0.1407
      8 F           2.9940   -0.1618   20.5588 F       1  UNL1       -0.2043
      9 C           3.9167    0.9311   18.6367 C.ar    1  UNL1        0.0319
     10 C           4.9057    1.1945   17.5401 C.ar    1  UNL1        0.0351
     11 C           6.1377    0.3470   17.4218 C.ar    1  UNL1        0.1737
     12 F           7.1267    0.6103   16.3252 F       1  UNL1       -0.2010
     13 C           6.3806   -0.7639   18.4001 C.ar    1  UNL1        0.1655
     14 O           7.6126   -1.6114   18.2817 O.3     1  UNL1       -0.4732
     15 C           7.8556   -2.7222   19.2600 C.3     1  UNL1        0.2098
     16 C           6.8666   -2.9856   20.3566 C.3     1  UNL1        0.0957
     17 S           4.4026   -1.2906   20.5932 S.O2    1  UNL1        0.0094
     18 O           4.4300   -0.6555   21.0742 O.2     1  UNL1       -0.1684
     19 O           3.4122   -1.9616   19.6883 O.2     1  UNL1       -0.1684
     20 C           3.1706   -0.4432   20.7116 C.ar    1  UNL1        0.1059
     21 C           1.8967   -0.8749   20.0476 C.ar    1  UNL1        0.0192
     22 C           0.6647   -0.0274   20.1659 C.ar    1  UNL1        0.0127
     23 C           0.7067    1.2518   20.9482 C.ar    1  UNL1        0.0578
     24 CL         -0.5253    2.0993   21.0665 Cl      1  UNL1       -0.0822
     25 C           1.9805    1.6835   21.6121 C.ar    1  UNL1        0.0127
     26 C           3.2125    0.8360   21.4938 C.ar    1  UNL1        0.0192
     27 C           8.3415   -4.9439   21.2165 C.3     1  UNL1        0.0550
     28 C           9.2973   -5.0427   22.3682 C.3     1  UNL1        0.1534
     29 S           8.8827   -5.7412   23.6292 S.O2    1  UNL1       -0.0085
     30 O           8.4022   -6.9114   22.8230 O.2     1  UNL1       -0.1729
     31 O           9.3631   -4.5711   24.4354 O.2     1  UNL1       -0.1729
     32 C           8.4680   -6.4398   24.8902 C.3     1  UNL1        0.1678
     33 C           7.6057   -5.7304   25.8918 C.3     1  UNL1        0.0942
     34 N           6.5887   -4.7290   25.4302 N.3     1  UNL1       -0.2960
     35 H           6.7478   -4.5861   24.4329 H       1  UNL1        0.1233
     36 C           6.3213   -3.2339   27.5381 C.3     1  UNL1        0.0185
     37 C           6.5365   -3.3685   26.0597 C.3     1  UNL1        0.0686
@<TRIPOS>BOND
     1    36    37    1
     2    37    34    1
     3    34    33    1
     4    33    32    1
     5    32    29    1
     6    29    30    2
     7    29    31    2
     8    29    28    1
     9    28    27    1
    10     1    27    1
    11     1     2    1
    12     2     3    1
    13     3     4    1
    14     4     5    1
    15     5    17    1
    16    17    18    2
    17    17    19    2
    18    17    20    1
    19    20    21   ar
    20    21    22   ar
    21    22    23   ar
    22    23    24    1
    23    23    25   ar
    24    25    26   ar
    25     5     6    1
    26     6     7   ar
    27     7     8    1
    28     7     9   ar
    29     9    10   ar
    30    10    11   ar
    31    11    12    1
    32    11    13   ar
    33    13    14    1
    34    14    15    1
    35    16    15    1
    36    16     1    1
    37    16     5    1
    38    26    20   ar
    39    13     6   ar
    40    34    35    1
@<TRIPOS>MOLECULE
*****
 37 40 0 0 0
SMALL
GASTEIGER

@<TRIPOS>ATOM
      1 C          -1.7391    3.2005   25.3555 C.3     1  UNL1        0.1225
      2 O          -0.7563    2.9559   24.2491 O.3     1  UNL1       -0.3559
      3 C          -1.1555    3.1992   22.8238 C.3     1  UNL1        0.1441
      4 C          -2.5376    3.6870   22.5049 C.3     1  UNL1        0.0589
      5 C          -3.5205    3.9316   23.6113 C.3     1  UNL1        0.1466
      6 C          -4.9027    4.4195   23.2924 C.ar    1  UNL1        0.0618
      7 C          -5.3019    4.6627   21.8672 C.ar    1  UNL1        0.1407
      8 F          -4.5971    4.5275   20.5500 F       1  UNL1       -0.2043
      9 C          -6.6841    5.1505   21.5483 C.ar    1  UNL1        0.0319
     10 C          -7.6670    5.3951   22.6547 C.ar    1  UNL1        0.0351
     11 C          -7.2678    5.1519   24.0800 C.ar    1  UNL1        0.1737
     12 F          -8.2506    5.3965   25.1863 F       1  UNL1       -0.2010
     13 C          -5.8856    4.6640   24.3988 C.ar    1  UNL1        0.1655
     14 O          -5.4863    4.4208   25.8241 O.3     1  UNL1       -0.4732
     15 C          -4.1042    3.9329   26.1430 C.3     1  UNL1        0.2098
     16 C          -3.1212    3.6883   25.0366 C.3     1  UNL1        0.0957
     17 S          -3.9197    4.1749   22.1860 S.O2    1  UNL1        0.0094
     18 O          -3.8618    4.9177   21.9027 O.2     1  UNL1       -0.1684
     19 O          -4.3423    2.8232   21.6917 O.2     1  UNL1       -0.1684
     20 C          -4.3190    4.4181   20.7608 C.ar    1  UNL1        0.1059
     21 C          -4.9956    3.3335   19.9759 C.ar    1  UNL1        0.0192
     22 C          -5.3949    3.5768   18.5506 C.ar    1  UNL1        0.0127
     23 C          -5.1175    4.9046   17.9102 C.ar    1  UNL1        0.0578
     24 CL         -5.5168    5.1479   16.4849 Cl      1  UNL1       -0.0822
     25 C          -4.4409    5.9891   18.6951 C.ar    1  UNL1        0.0127
     26 C          -4.0417    5.7458   20.1204 C.ar    1  UNL1        0.0192
     27 C          -1.3399    2.9573   26.7808 C.3     1  UNL1        0.0550
     28 C          -0.0688    3.5481   27.3149 C.3     1  UNL1        0.1534
     29 S           0.8111    2.7395   28.2215 S.O2    1  UNL1       -0.0085
     30 O           1.1083    1.7973   27.0928 O.2     1  UNL1       -0.1729
     31 O           0.5139    3.6817   29.3502 O.2     1  UNL1       -0.1729
     32 C           1.6911    1.9310   29.1281 C.3     1  UNL1        0.1678
     33 C           1.7561    0.4401   28.9763 C.3     1  UNL1        0.0942
     34 N           0.6568   -0.4186   29.5278 N.3     1  UNL1       -0.2960
     35 H           1.0320   -1.3639   29.6047 H       1  UNL1        0.1233
     36 C          -1.8575    0.1971   29.3054 C.3     1  UNL1        0.0185
     37 C          -0.6478   -0.5288   28.7957 C.3     1  UNL1        0.0686
@<TRIPOS>BOND
     1    36    37    1
     2    37    34    1
     3    34    33    1
     4    33    32    1
     5    32    29    1
     6    29    30    2
     7    29    31    2
     8    29    28    1
     9    28    27    1
    10     1    27    1
    11     1     2    1
    12     2     3    1
    13     3     4    1
    14     4     5    1
    15     5    17    1
    16    17    18    2
    17    17    19    2
    18    17    20    1
    19    20    21   ar
    20    21    22   ar
    21    22    23   ar
    22    23    24    1
    23    23    25   ar
    24    25    26   ar
    25     5     6    1
    26     6     7   ar
    27     7     8    1
    28     7     9   ar
    29     9    10   ar
    30    10    11   ar
    31    11    12    1
    32    11    13   ar
    33    13    14    1
    34    14    15    1
    35    16    15    1
    36    16     1    1
    37    16     5    1
    38    26    20   ar
    39    13     6   ar
    40    34    35    1
@<TRIPOS>MOLECULE
*****
 37 40 0 0 0
SMALL
GASTEIGER

@<TRIPOS>ATOM
      1 C           0.2100    1.8313   21.3609 C.3     1  UNL1        0.1225
      2 O           0.4016    1.7401   22.8458 O.3     1  UNL1       -0.3559
      3 C           1.5119    0.9034   23.4088 C.3     1  UNL1        0.1441
      4 C           2.4307    0.1578   22.4869 C.3     1  UNL1        0.0589
      5 C           2.2392    0.2490   21.0020 C.3     1  UNL1        0.1466
      6 C           3.1580   -0.4966   20.0801 C.ar    1  UNL1        0.0618
      7 C           4.2683   -1.3333   20.6431 C.ar    1  UNL1        0.1407
      8 F           4.7377   -1.6428   22.0338 F       1  UNL1       -0.2043
      9 C           5.1871   -2.0789   19.7212 C.ar    1  UNL1        0.0319
     10 C           4.9956   -1.9878   18.2362 C.ar    1  UNL1        0.0351
     11 C           3.8852   -1.1510   17.6732 C.ar    1  UNL1        0.1737
     12 F           3.6936   -1.0599   16.1883 F       1  UNL1       -0.2010
     13 C           2.9664   -0.4055   18.5952 C.ar    1  UNL1        0.1655
     14 O           1.8560    0.4313   18.0322 O.3     1  UNL1       -0.4732
     15 C           0.9372    1.1768   18.9540 C.3     1  UNL1        0.2098
     16 C           1.1288    1.0857   20.4390 C.3     1  UNL1        0.0957
     17 S           3.3495   -0.5877   21.5651 S.O2    1  UNL1        0.0094
     18 O           3.1688   -1.3141   21.8392 O.2     1  UNL1       -0.1684
     19 O           4.5649    0.2801   21.4249 O.2     1  UNL1       -0.1684
     20 C           4.4599   -1.4245   22.1281 C.ar    1  UNL1        0.1059
     21 C           4.2379   -2.8837   22.3954 C.ar    1  UNL1        0.0192
     22 C           5.3483   -3.7204   22.9585 C.ar    1  UNL1        0.0127
     23 C           6.6806   -3.0979   23.2541 C.ar    1  UNL1        0.0578
     24 CL          7.7910   -3.9346   23.8171 Cl      1  UNL1       -0.0822
     25 C           6.9026   -1.6387   22.9867 C.ar    1  UNL1        0.0127
     26 C           5.7922   -0.8020   22.4237 C.ar    1  UNL1        0.0192
     27 C          -0.9004    2.6680   20.7979 C.3     1  UNL1        0.0550
     28 C          -1.6095    3.6596   21.6719 C.3     1  UNL1        0.1534
     29 S          -3.0908    3.5504   21.8811 S.O2    1  UNL1       -0.0085
     30 O          -3.2086    2.7404   20.6241 O.2     1  UNL1       -0.1729
     31 O          -2.9729    4.3603   23.1381 O.2     1  UNL1       -0.1729
     32 C          -4.5721    3.4412   22.0904 C.3     1  UNL1        0.1678
     33 C          -5.2348    4.2249   23.1842 C.3     1  UNL1        0.0942
     34 N          -5.5563    3.5637   24.4917 N.3     1  UNL1       -0.2960
     35 H          -6.5550    3.3567   24.4792 H       1  UNL1        0.1233
     36 C          -4.0333    3.9652   26.5578 C.3     1  UNL1        0.0185
     37 C          -5.2782    4.2772   25.7814 C.3     1  UNL1        0.0686
@<TRIPOS>BOND
     1    36    37    1
     2    37    34    1
     3    34    33    1
     4    33    32    1
     5    32    29    1
     6    29    30    2
     7    29    31    2
     8    29    28    1
     9    28    27    1
    10     1    27    1
    11     1     2    1
    12     2     3    1
    13     3     4    1
    14     4     5    1
    15     5    17    1
    16    17    18    2
    17    17    19    2
    18    17    20    1
    19    20    21   ar
    20    21    22   ar
    21    22    23   ar
    22    23    24    1
    23    23    25   ar
    24    25    26   ar
    25     5     6    1
    26     6     7   ar
    27     7     8    1
    28     7     9   ar
    29     9    10   ar
    30    10    11   ar
    31    11    12    1
    32    11    13   ar
    33    13    14    1
    34    14    15    1
    35    16    15    1
    36    16     1    1
    37    16     5    1
    38    26    20   ar
    39    13     6   ar
    40    34    35    1
