@<TRIPOS>MOLECULE
*****
 26 29 0 0 0
SMALL
GASTEIGER

@<TRIPOS>ATOM
      1 C          -9.5820  -19.1492   21.4926 C.2     1  UNL1        0.0958
      2 C         -10.5717  -20.0143   22.2151 C.2     1  UNL1        0.1049
      3 N         -10.7227  -19.4811   23.6090 N.2     1  UNL1       -0.2475
      4 C          -9.8263  -18.2865   23.7479 C.2     1  UNL1        0.0668
      5 C          -9.5609  -17.3590   24.8965 C.3     1  UNL1        0.1098
      6 C          -8.5906  -16.2263   24.7371 C.2     1  UNL1        0.1302
      7 C          -7.8856  -16.0212   23.4291 C.2     1  UNL1        0.0331
      8 C          -8.1510  -16.9487   22.2805 C.2     1  UNL1        0.0042
      9 C          -9.1213  -18.0813   22.4399 C.2     1  UNL1        0.0218
     10 O         -10.1388  -19.5941   18.9942 O.2     1  UNL1       -0.2448
     11 C          -9.1320  -19.3216   20.0721 C.2     1  UNL1        0.3428
     12 O          -7.6750  -19.2215   19.7295 O.3     1  UNL1       -0.4454
     13 C          -6.7213  -20.2830   20.1917 C.3     1  UNL1        0.2087
     14 C          -5.4069  -19.8960   20.8021 C.3     1  UNL1        0.0445
     15 C          -5.3685  -19.2643   22.1620 C.3     1  UNL1        0.0210
     16 C          -4.0540  -18.8773   22.7723 C.3     1  UNL1        0.0722
     17 N          -2.7780  -19.1220   22.0228 N.3     1  UNL1       -0.2727
     18 C          -2.8164  -19.7538   20.6629 C.3     1  UNL1        0.0722
     19 C          -4.1309  -20.1408   20.0525 C.3     1  UNL1        0.0210
     20 C          -3.4742  -19.3510   21.6474 C.3     1  UNL1        0.0722
     21 C          -4.6626  -19.7010   21.0955 C.3     1  UNL1        0.0210
     22 O          -8.3251  -15.2988   25.8857 O.2     1  UNL1       -0.4085
     23 C          -7.4252  -15.7301   27.0055 C.3     1  UNL1        0.5750
     24 F          -6.5252  -16.1615   28.1253 F       1  UNL1       -0.1328
     25 F          -6.2278  -15.3148   26.2032 F       1  UNL1       -0.1328
     26 F          -8.6226  -16.1455   27.8078 F       1  UNL1       -0.1328
@<TRIPOS>BOND
     1    10    11    2
     2    11    12    1
     3    12    13    1
     4    13    14    1
     5    14    15    1
     6    15    16    1
     7    16    17    1
     8    17    18    1
     9    18    19    1
    10    17    20    1
    11    20    21    1
    12    11     1    1
    13     1     2    2
    14     2     3    1
    15     3     4    2
    16     4     5    1
    17     5     6    1
    18     6    22    1
    19    22    23    1
    20    23    24    1
    21    23    25    1
    22    23    26    1
    23     6     7    2
    24     7     8    1
    25     8     9    2
    26    19    14    1
    27     9     1    1
    28    21    14    1
    29     9     4    1
@<TRIPOS>MOLECULE
*****
 26 29 0 0 0
SMALL
GASTEIGER

@<TRIPOS>ATOM
      1 C          -5.8395  -16.2611   23.8718 C.2     1  UNL1        0.0958
      2 C          -6.1340  -15.2351   24.9257 C.2     1  UNL1        0.1049
      3 N          -7.6234  -15.1386   25.0752 N.2     1  UNL1       -0.2475
      4 C          -8.2494  -16.1049   24.1138 C.2     1  UNL1        0.0668
      5 C          -9.6809  -16.4427   23.8195 C.3     1  UNL1        0.1098
      6 C         -10.0099  -17.4743   22.7815 C.2     1  UNL1        0.1302
      7 C          -8.9073  -18.1680   22.0377 C.2     1  UNL1        0.0331
      8 C          -7.4759  -17.8302   22.3320 C.2     1  UNL1        0.0042
      9 C          -7.1469  -16.7987   23.3701 C.2     1  UNL1        0.0218
     10 O          -3.6379  -15.7264   22.6003 O.2     1  UNL1       -0.2448
     11 C          -4.4769  -16.6766   23.4022 C.2     1  UNL1        0.3428
     12 O          -3.9531  -18.0424   23.7345 O.3     1  UNL1       -0.4454
     13 C          -3.8905  -19.1004   22.6730 C.3     1  UNL1        0.2087
     14 C          -3.1377  -18.8431   21.4014 C.3     1  UNL1        0.0445
     15 C          -1.6768  -18.5064   21.4496 C.3     1  UNL1        0.0210
     16 C          -0.9240  -18.2491   20.1780 C.3     1  UNL1        0.0722
     17 N          -1.6321  -18.3287   18.8580 N.3     1  UNL1       -0.2727
     18 C          -3.0930  -18.6655   18.8097 C.3     1  UNL1        0.0722
     19 C          -3.8458  -18.9227   20.0814 C.3     1  UNL1        0.0210
     20 C          -2.0866  -18.4777   19.5282 C.3     1  UNL1        0.0722
     21 C          -2.7674  -18.7103   20.6780 C.3     1  UNL1        0.0210
     22 O         -11.4414  -17.8122   22.4871 O.2     1  UNL1       -0.4085
     23 C         -12.3843  -18.1257   23.6108 C.3     1  UNL1        0.5750
     24 F         -13.3272  -18.4393   24.7345 F       1  UNL1       -0.1328
     25 F         -13.2647  -16.9865   23.1900 F       1  UNL1       -0.1328
     26 F         -11.5039  -19.2649   24.0317 F       1  UNL1       -0.1328
@<TRIPOS>BOND
     1    10    11    2
     2    11    12    1
     3    12    13    1
     4    13    14    1
     5    14    15    1
     6    15    16    1
     7    16    17    1
     8    17    18    1
     9    18    19    1
    10    17    20    1
    11    20    21    1
    12    11     1    1
    13     1     2    2
    14     2     3    1
    15     3     4    2
    16     4     5    1
    17     5     6    1
    18     6    22    1
    19    22    23    1
    20    23    24    1
    21    23    25    1
    22    23    26    1
    23     6     7    2
    24     7     8    1
    25     8     9    2
    26    19    14    1
    27     9     1    1
    28    21    14    1
    29     9     4    1
@<TRIPOS>MOLECULE
*****
 26 29 0 0 0
SMALL
GASTEIGER

@<TRIPOS>ATOM
      1 C          -8.0471  -19.0394   21.8478 C.2     1  UNL1        0.0958
      2 C          -8.7505  -19.1890   20.5314 C.2     1  UNL1        0.1049
      3 N          -7.7089  -19.2507   19.4538 N.2     1  UNL1       -0.2475
      4 C          -6.3618  -19.1392   20.1041 C.2     1  UNL1        0.0668
      5 C          -4.9719  -19.1398   19.5402 C.3     1  UNL1        0.1098
      6 C          -3.7910  -19.0098   20.4558 C.2     1  UNL1        0.1302
      7 C          -4.0000  -18.8792   21.9354 C.2     1  UNL1        0.0331
      8 C          -5.3899  -18.8786   22.4994 C.2     1  UNL1        0.0042
      9 C          -6.5708  -19.0086   21.5837 C.2     1  UNL1        0.0218
     10 O          -9.3823  -20.1365   23.7878 O.2     1  UNL1       -0.2448
     11 C          -8.7045  -18.9383   23.1923 C.2     1  UNL1        0.3428
     12 O          -8.6842  -17.6388   23.9413 O.3     1  UNL1       -0.4454
     13 C          -9.8767  -16.7299   23.8988 C.3     1  UNL1        0.2087
     14 C         -10.8074  -16.7683   22.7231 C.3     1  UNL1        0.0445
     15 C         -12.0823  -17.5546   22.8011 C.3     1  UNL1        0.0210
     16 C         -13.0129  -17.5930   21.6253 C.3     1  UNL1        0.0722
     17 N         -12.6687  -16.8450   20.3715 N.3     1  UNL1       -0.2727
     18 C         -11.3937  -16.0586   20.2935 C.3     1  UNL1        0.0722
     19 C         -10.4630  -16.0202   21.4694 C.3     1  UNL1        0.0210
     20 C         -12.1273  -16.7942   20.9899 C.3     1  UNL1        0.0722
     21 C         -11.2858  -16.7594   22.0530 C.3     1  UNL1        0.0210
     22 O          -2.4010  -19.0103   19.8919 O.2     1  UNL1       -0.4085
     23 C          -1.5454  -17.7834   20.0047 C.3     1  UNL1        0.5750
     24 F          -0.6898  -16.5565   20.1174 F       1  UNL1       -0.1328
     25 F          -0.9082  -18.3416   21.2426 F       1  UNL1       -0.1328
     26 F          -2.1826  -17.2253   18.7668 F       1  UNL1       -0.1328
@<TRIPOS>BOND
     1    10    11    2
     2    11    12    1
     3    12    13    1
     4    13    14    1
     5    14    15    1
     6    15    16    1
     7    16    17    1
     8    17    18    1
     9    18    19    1
    10    17    20    1
    11    20    21    1
    12    11     1    1
    13     1     2    2
    14     2     3    1
    15     3     4    2
    16     4     5    1
    17     5     6    1
    18     6    22    1
    19    22    23    1
    20    23    24    1
    21    23    25    1
    22    23    26    1
    23     6     7    2
    24     7     8    1
    25     8     9    2
    26    19    14    1
    27     9     1    1
    28    21    14    1
    29     9     4    1
@<TRIPOS>MOLECULE
*****
 26 29 0 0 0
SMALL
GASTEIGER

@<TRIPOS>ATOM
      1 C          -9.7244  -18.4506   20.1398 C.2     1  UNL1        0.0958
      2 C          -9.6814  -19.5573   19.1282 C.2     1  UNL1        0.1049
      3 N          -8.3840  -20.2907   19.2985 N.2     1  UNL1       -0.2475
      4 C          -7.6253  -19.6373   20.4154 C.2     1  UNL1        0.0668
      5 C          -6.2871  -19.9310   21.0261 C.3     1  UNL1        0.1098
      6 C          -5.7773  -19.0873   22.1567 C.2     1  UNL1        0.1302
      7 C          -6.6057  -17.9500   22.6766 C.2     1  UNL1        0.0331
      8 C          -7.9439  -17.6564   22.0659 C.2     1  UNL1        0.0042
      9 C          -8.4537  -18.5000   20.9353 C.2     1  UNL1        0.0218
     10 O         -10.5869  -15.9999   20.1444 O.2     1  UNL1       -0.2448
     11 C         -10.8419  -17.4671   20.3236 C.2     1  UNL1        0.3428
     12 O         -12.2147  -17.9508   20.6868 O.3     1  UNL1       -0.4454
     13 C         -12.5788  -18.1626   22.1264 C.3     1  UNL1        0.2087
     14 C         -11.5599  -18.7021   23.0861 C.3     1  UNL1        0.0445
     15 C         -11.0002  -17.8182   24.1610 C.3     1  UNL1        0.0210
     16 C          -9.9814  -18.3578   25.1206 C.3     1  UNL1        0.0722
     17 N          -9.5222  -19.7812   25.0053 N.3     1  UNL1       -0.2727
     18 C         -10.0820  -20.6650   23.9304 C.3     1  UNL1        0.0722
     19 C         -11.1009  -20.1254   22.9707 C.3     1  UNL1        0.0210
     20 C         -10.0824  -19.5303   24.4565 C.3     1  UNL1        0.0722
     21 C         -11.0037  -19.0425   23.5887 C.3     1  UNL1        0.0210
     22 O          -4.4391  -19.3810   22.7675 O.2     1  UNL1       -0.4085
     23 C          -3.3628  -18.3362   22.7535 C.3     1  UNL1        0.5750
     24 F          -2.2866  -17.2915   22.7396 F       1  UNL1       -0.1328
     25 F          -3.6954  -17.9747   24.1708 F       1  UNL1       -0.1328
     26 F          -3.0303  -18.6977   21.3362 F       1  UNL1       -0.1328
@<TRIPOS>BOND
     1    10    11    2
     2    11    12    1
     3    12    13    1
     4    13    14    1
     5    14    15    1
     6    15    16    1
     7    16    17    1
     8    17    18    1
     9    18    19    1
    10    17    20    1
    11    20    21    1
    12    11     1    1
    13     1     2    2
    14     2     3    1
    15     3     4    2
    16     4     5    1
    17     5     6    1
    18     6    22    1
    19    22    23    1
    20    23    24    1
    21    23    25    1
    22    23    26    1
    23     6     7    2
    24     7     8    1
    25     8     9    2
    26    19    14    1
    27     9     1    1
    28    21    14    1
    29     9     4    1
@<TRIPOS>MOLECULE
*****
 26 29 0 0 0
SMALL
GASTEIGER

@<TRIPOS>ATOM
      1 C         -10.4611  -18.3582   21.9574 C.2     1  UNL1        0.0958
      2 C         -11.1625  -18.1773   20.6438 C.2     1  UNL1        0.1049
      3 N         -10.2358  -18.6352   19.5568 N.2     1  UNL1       -0.2475
      4 C          -8.9619  -19.0991   20.1985 C.2     1  UNL1        0.0668
      5 C          -7.6930  -19.6553   19.6235 C.3     1  UNL1        0.1098
      6 C          -6.5634  -20.0403   20.5321 C.2     1  UNL1        0.1302
      7 C          -6.7027  -19.8691   22.0158 C.2     1  UNL1        0.0331
      8 C          -7.9715  -19.3130   22.5908 C.2     1  UNL1        0.0042
      9 C          -9.1011  -18.9279   21.6821 C.2     1  UNL1        0.0218
     10 O         -12.4890  -18.1901   23.5727 O.2     1  UNL1       -0.2448
     11 C         -11.0215  -18.0275   23.3089 C.2     1  UNL1        0.3428
     12 O         -10.1141  -17.5342   24.3968 O.3     1  UNL1       -0.4454
     13 C          -9.5073  -16.1655   24.3042 C.3     1  UNL1        0.2087
     14 C          -8.2038  -15.8753   24.9873 C.3     1  UNL1        0.0445
     15 C          -6.9434  -15.7636   24.1818 C.3     1  UNL1        0.0210
     16 C          -5.6400  -15.4734   24.8650 C.3     1  UNL1        0.0722
     17 N          -5.5969  -15.2949   26.3538 N.3     1  UNL1       -0.2727
     18 C          -6.8573  -15.4067   27.1593 C.3     1  UNL1        0.0722
     19 C          -8.1608  -15.6969   26.4760 C.3     1  UNL1        0.0210
     20 C          -6.3347  -15.4526   26.0239 C.3     1  UNL1        0.0722
     21 C          -7.5133  -15.7150   25.4063 C.3     1  UNL1        0.0210
     22 O          -5.2945  -20.5965   19.9572 O.2     1  UNL1       -0.4085
     23 C          -4.0576  -19.7493   19.9108 C.3     1  UNL1        0.5750
     24 F          -2.8206  -18.9021   19.8644 F       1  UNL1       -0.1328
     25 F          -4.8449  -18.6339   19.2895 F       1  UNL1       -0.1328
     26 F          -3.2703  -20.8647   20.5321 F       1  UNL1       -0.1328
@<TRIPOS>BOND
     1    10    11    2
     2    11    12    1
     3    12    13    1
     4    13    14    1
     5    14    15    1
     6    15    16    1
     7    16    17    1
     8    17    18    1
     9    18    19    1
    10    17    20    1
    11    20    21    1
    12    11     1    1
    13     1     2    2
    14     2     3    1
    15     3     4    2
    16     4     5    1
    17     5     6    1
    18     6    22    1
    19    22    23    1
    20    23    24    1
    21    23    25    1
    22    23    26    1
    23     6     7    2
    24     7     8    1
    25     8     9    2
    26    19    14    1
    27     9     1    1
    28    21    14    1
    29     9     4    1
@<TRIPOS>MOLECULE
*****
 26 29 0 0 0
SMALL
GASTEIGER

@<TRIPOS>ATOM
      1 C          -7.4831  -19.2350   20.6171 C.2     1  UNL1        0.0958
      2 C          -6.2390  -20.0520   20.8027 C.2     1  UNL1        0.1049
      3 N          -5.4322  -19.4249   21.9008 N.2     1  UNL1       -0.2475
      4 C          -6.1778  -18.2203   22.3938 C.2     1  UNL1        0.0668
      5 C          -5.8662  -17.2151   23.4627 C.3     1  UNL1        0.1098
      6 C          -6.8222  -16.0925   23.7381 C.2     1  UNL1        0.1302
      7 C          -8.0898  -15.9752   22.9447 C.2     1  UNL1        0.0331
      8 C          -8.4013  -16.9804   21.8758 C.2     1  UNL1        0.0042
      9 C          -7.4453  -18.1029   21.6004 C.2     1  UNL1        0.0218
     10 O          -8.4466  -20.6460   18.6598 O.2     1  UNL1       -0.2448
     11 C          -8.5737  -19.5030   19.6226 C.2     1  UNL1        0.3428
     12 O          -9.7916  -18.6277   19.5910 O.3     1  UNL1       -0.4454
     13 C         -11.0880  -19.1257   20.1580 C.3     1  UNL1        0.2087
     14 C         -11.3832  -18.9533   21.6185 C.3     1  UNL1        0.0445
     15 C         -10.6575  -19.7856   22.6337 C.3     1  UNL1        0.0210
     16 C         -10.9528  -19.6131   24.0942 C.3     1  UNL1        0.0722
     17 N         -11.9738  -18.6084   24.5395 N.3     1  UNL1       -0.2727
     18 C         -12.6995  -17.7761   23.5243 C.3     1  UNL1        0.0722
     19 C         -12.4041  -17.9486   22.0637 C.3     1  UNL1        0.0210
     20 C         -11.8459  -18.6672   23.7282 C.3     1  UNL1        0.0722
     21 C         -11.5789  -18.8231   22.4076 C.3     1  UNL1        0.0210
     22 O          -6.5107  -15.0873   24.8070 O.2     1  UNL1       -0.4085
     23 C          -6.5635  -15.4878   26.2516 C.3     1  UNL1        0.5750
     24 F          -6.6163  -15.8884   27.6962 F       1  UNL1       -0.1328
     25 F          -5.0667  -15.5811   26.2805 F       1  UNL1       -0.1328
     26 F          -8.0603  -15.3946   26.2227 F       1  UNL1       -0.1328
@<TRIPOS>BOND
     1    10    11    2
     2    11    12    1
     3    12    13    1
     4    13    14    1
     5    14    15    1
     6    15    16    1
     7    16    17    1
     8    17    18    1
     9    18    19    1
    10    17    20    1
    11    20    21    1
    12    11     1    1
    13     1     2    2
    14     2     3    1
    15     3     4    2
    16     4     5    1
    17     5     6    1
    18     6    22    1
    19    22    23    1
    20    23    24    1
    21    23    25    1
    22    23    26    1
    23     6     7    2
    24     7     8    1
    25     8     9    2
    26    19    14    1
    27     9     1    1
    28    21    14    1
    29     9     4    1
@<TRIPOS>MOLECULE
*****
 26 29 0 0 0
SMALL
GASTEIGER

@<TRIPOS>ATOM
      1 C          -8.3329  -18.5439   21.6986 C.2     1  UNL1        0.0958
      2 C          -8.9249  -18.9903   20.3947 C.2     1  UNL1        0.1049
      3 N          -7.8066  -19.4726   19.5190 N.2     1  UNL1       -0.2475
      4 C          -6.5235  -19.3242   20.2817 C.2     1  UNL1        0.0668
      5 C          -5.1010  -19.6376   19.9235 C.3     1  UNL1        0.1098
      6 C          -4.0038  -19.3770   20.9126 C.2     1  UNL1        0.1302
      7 C          -4.3291  -18.8031   22.2597 C.2     1  UNL1        0.0331
      8 C          -5.7516  -18.4897   22.6178 C.2     1  UNL1        0.0042
      9 C          -6.8488  -18.7502   21.6288 C.2     1  UNL1        0.0218
     10 O          -9.5519  -18.9014   23.9649 O.2     1  UNL1       -0.2448
     11 C          -9.0918  -17.9886   22.8673 C.2     1  UNL1        0.3428
     12 O          -9.3906  -16.5203   22.9382 O.3     1  UNL1       -0.4454
     13 C          -8.2922  -15.5453   23.2433 C.3     1  UNL1        0.2087
     14 C          -7.6721  -15.5174   24.6088 C.3     1  UNL1        0.0445
     15 C          -6.1810  -15.4426   24.7540 C.3     1  UNL1        0.0210
     16 C          -5.5610  -15.4147   26.1196 C.3     1  UNL1        0.0722
     17 N          -6.4319  -15.4617   27.3400 N.3     1  UNL1       -0.2727
     18 C          -7.9230  -15.5365   27.1947 C.3     1  UNL1        0.0722
     19 C          -8.5431  -15.5644   25.8291 C.3     1  UNL1        0.0210
     20 C          -6.8175  -15.4793   26.6126 C.3     1  UNL1        0.0722
     21 C          -7.3783  -15.5045   25.3779 C.3     1  UNL1        0.0210
     22 O          -2.5812  -19.6904   20.5545 O.2     1  UNL1       -0.4085
     23 C          -1.6737  -18.6011   20.0648 C.3     1  UNL1        0.5750
     24 F          -0.7662  -17.5118   19.5752 F       1  UNL1       -0.1328
     25 F          -2.1618  -18.8240   18.6641 F       1  UNL1       -0.1328
     26 F          -1.1856  -18.3781   21.4656 F       1  UNL1       -0.1328
@<TRIPOS>BOND
     1    10    11    2
     2    11    12    1
     3    12    13    1
     4    13    14    1
     5    14    15    1
     6    15    16    1
     7    16    17    1
     8    17    18    1
     9    18    19    1
    10    17    20    1
    11    20    21    1
    12    11     1    1
    13     1     2    2
    14     2     3    1
    15     3     4    2
    16     4     5    1
    17     5     6    1
    18     6    22    1
    19    22    23    1
    20    23    24    1
    21    23    25    1
    22    23    26    1
    23     6     7    2
    24     7     8    1
    25     8     9    2
    26    19    14    1
    27     9     1    1
    28    21    14    1
    29     9     4    1
@<TRIPOS>MOLECULE
*****
 26 29 0 0 0
SMALL
GASTEIGER

@<TRIPOS>ATOM
      1 C          -9.7417  -18.0033   24.1309 C.2     1  UNL1        0.0958
      2 C          -9.6135  -16.5869   24.6078 C.2     1  UNL1        0.1049
      3 N          -8.2832  -16.0635   24.1535 N.2     1  UNL1       -0.2475
      4 C          -7.5893  -17.1564   23.3958 C.2     1  UNL1        0.0668
      5 C          -6.2530  -17.2148   22.7169 C.3     1  UNL1        0.1098
      6 C          -5.8182  -18.4720   22.0239 C.2     1  UNL1        0.1302
      7 C          -6.7196  -19.6709   22.0100 C.2     1  UNL1        0.0331
      8 C          -8.0558  -19.6125   22.6889 C.2     1  UNL1        0.0042
      9 C          -8.4906  -18.3553   23.3819 C.2     1  UNL1        0.0218
     10 O         -10.6970  -20.3748   24.5930 O.2     1  UNL1       -0.2448
     11 C         -10.9149  -18.9088   24.3623 C.2     1  UNL1        0.3428
     12 O         -12.3064  -18.3482   24.3631 O.3     1  UNL1       -0.4454
     13 C         -13.0483  -18.1811   23.0702 C.3     1  UNL1        0.2087
     14 C         -12.3060  -17.8010   21.8234 C.3     1  UNL1        0.0445
     15 C         -11.5864  -18.8507   21.0294 C.3     1  UNL1        0.0210
     16 C         -10.8442  -18.4705   19.7826 C.3     1  UNL1        0.0722
     17 N         -10.8215  -17.0407   19.3297 N.3     1  UNL1       -0.2727
     18 C         -11.5411  -15.9910   20.1236 C.3     1  UNL1        0.0722
     19 C         -12.2834  -16.3712   21.3705 C.3     1  UNL1        0.0210
     20 C         -11.2417  -17.2009   20.0194 C.3     1  UNL1        0.0722
     21 C         -11.9129  -17.5445   21.1469 C.3     1  UNL1        0.0210
     22 O          -4.4819  -18.5305   21.3449 O.2     1  UNL1       -0.4085
     23 C          -4.2009  -19.6018   20.3333 C.3     1  UNL1        0.5750
     24 F          -3.9199  -20.6731   19.3217 F       1  UNL1       -0.1328
     25 F          -3.3352  -20.3150   21.3292 F       1  UNL1       -0.1328
     26 F          -5.0666  -18.8885   19.3374 F       1  UNL1       -0.1328
@<TRIPOS>BOND
     1    10    11    2
     2    11    12    1
     3    12    13    1
     4    13    14    1
     5    14    15    1
     6    15    16    1
     7    16    17    1
     8    17    18    1
     9    18    19    1
    10    17    20    1
    11    20    21    1
    12    11     1    1
    13     1     2    2
    14     2     3    1
    15     3     4    2
    16     4     5    1
    17     5     6    1
    18     6    22    1
    19    22    23    1
    20    23    24    1
    21    23    25    1
    22    23    26    1
    23     6     7    2
    24     7     8    1
    25     8     9    2
    26    19    14    1
    27     9     1    1
    28    21    14    1
    29     9     4    1
@<TRIPOS>MOLECULE
*****
 26 29 0 0 0
SMALL
GASTEIGER

@<TRIPOS>ATOM
      1 C         -11.1742  -16.8309   22.1204 C.2     1  UNL1        0.0958
      2 C         -11.0425  -16.1865   20.7723 C.2     1  UNL1        0.1049
      3 N          -9.7707  -15.3912   20.7611 N.2     1  UNL1       -0.2475
      4 C          -9.1165  -15.5442   22.1023 C.2     1  UNL1        0.0668
      5 C          -7.8430  -14.9882   22.6670 C.3     1  UNL1        0.1098
      6 C          -7.4369  -15.3219   24.0719 C.2     1  UNL1        0.1302
      7 C          -8.3044  -16.2118   24.9120 C.2     1  UNL1        0.0331
      8 C          -9.5779  -16.7678   24.3472 C.2     1  UNL1        0.0042
      9 C          -9.9839  -16.4340   22.9424 C.2     1  UNL1        0.0218
     10 O         -13.4320  -17.1446   23.3670 O.2     1  UNL1       -0.2448
     11 C         -12.2989  -17.7168   22.5680 C.2     1  UNL1        0.3428
     12 O         -12.2904  -19.1752   22.2166 O.3     1  UNL1       -0.4454
     13 C         -11.0302  -19.9751   22.3652 C.3     1  UNL1        0.2087
     14 C          -9.8628  -19.7100   21.4614 C.3     1  UNL1        0.0445
     15 C         -10.0446  -19.7406   19.9728 C.3     1  UNL1        0.0210
     16 C          -8.8771  -19.4756   19.0691 C.3     1  UNL1        0.0722
     17 N          -7.5278  -19.1799   19.6539 N.3     1  UNL1       -0.2727
     18 C          -7.3460  -19.1493   21.1425 C.3     1  UNL1        0.0722
     19 C          -8.5135  -19.4144   22.0463 C.3     1  UNL1        0.0210
     20 C          -8.1377  -19.3188   20.1893 C.3     1  UNL1        0.0722
     21 C          -9.1933  -19.5584   21.0066 C.3     1  UNL1        0.0210
     22 O          -6.1634  -14.7659   24.6367 O.2     1  UNL1       -0.4085
     23 C          -5.2957  -15.6200   25.5129 C.3     1  UNL1        0.5750
     24 F          -4.4281  -16.4741   26.3892 F       1  UNL1       -0.1328
     25 F          -4.7645  -16.3247   24.3000 F       1  UNL1       -0.1328
     26 F          -5.8270  -14.9153   26.7258 F       1  UNL1       -0.1328
@<TRIPOS>BOND
     1    10    11    2
     2    11    12    1
     3    12    13    1
     4    13    14    1
     5    14    15    1
     6    15    16    1
     7    16    17    1
     8    17    18    1
     9    18    19    1
    10    17    20    1
    11    20    21    1
    12    11     1    1
    13     1     2    2
    14     2     3    1
    15     3     4    2
    16     4     5    1
    17     5     6    1
    18     6    22    1
    19    22    23    1
    20    23    24    1
    21    23    25    1
    22    23    26    1
    23     6     7    2
    24     7     8    1
    25     8     9    2
    26    19    14    1
    27     9     1    1
    28    21    14    1
    29     9     4    1
