@<TRIPOS>MOLECULE
*****
 31 34 0 0 0
SMALL
GASTEIGER

@<TRIPOS>ATOM
      1 N          -5.7037  -18.9990   20.6767 N.am    1  UNL1       -0.2683
      2 C          -7.0274  -18.4256   21.0879 C.2     1  UNL1        0.3047
      3 O          -7.1073  -17.4830   22.2521 O.2     1  UNL1       -0.2525
      4 N          -8.2712  -18.7947   20.3351 N.am    1  UNL1       -0.2863
      5 H          -5.6513  -19.6176   19.9126 H       1  UNL1        0.1564
      6 H          -8.2187  -19.4134   19.5710 H       1  UNL1        0.1512
      7 C          -9.5948  -18.2213   20.7464 C.3     1  UNL1        0.1021
      8 C         -10.2682  -17.1954   19.8839 C.3     1  UNL1        0.0642
      9 C         -11.5919  -16.6219   20.2953 C.3     1  UNL1        0.1353
     10 C         -12.8403  -15.7911   20.2599 C.3     1  UNL1        0.0437
     11 C         -11.3754  -15.8809   19.0092 C.3     1  UNL1        0.0437
     12 O         -12.2420  -17.0745   21.5690 O.3     1  UNL1       -0.4805
     13 C         -11.5686  -18.1004   22.4315 C.ar    1  UNL1        0.1631
     14 C         -12.2187  -18.5529   23.7053 C.ar    1  UNL1        0.1758
     15 F         -13.5424  -17.9795   24.1166 F       1  UNL1       -0.2009
     16 C         -11.5452  -19.5789   24.5677 C.ar    1  UNL1        0.0624
     17 C         -10.2216  -20.1523   24.1565 C.ar    1  UNL1        0.1423
     18 F          -9.5481  -21.1782   25.0189 F       1  UNL1       -0.2041
     19 C          -9.5715  -19.6998   22.8827 C.ar    1  UNL1        0.0301
     20 C         -10.2450  -18.6738   22.0202 C.ar    1  UNL1        0.0341
     21 C          -2.0175  -17.7001   16.9384 C.3     1  UNL1        0.0521
     22 C          -2.0062  -17.7479   18.4376 C.ar    1  UNL1        0.0594
     23 C          -3.2387  -18.1650   19.1840 C.ar    1  UNL1        0.0160
     24 C          -3.2274  -18.2128   20.6832 C.ar    1  UNL1        0.0162
     25 C          -4.4600  -18.6299   21.4295 C.ar    1  UNL1        0.0516
     26 C          -4.4487  -18.6778   22.9287 C.ar    1  UNL1        0.0147
     27 C          -3.2049  -18.3086   23.6815 C.ar    1  UNL1        0.0013
     28 C          -1.9724  -17.8916   22.9352 C.ar    1  UNL1        0.0016
     29 C          -1.9837  -17.8437   21.4360 C.ar    1  UNL1        0.0204
     30 C          -0.7512  -17.4267   20.6896 C.ar    1  UNL1        0.0984
     31 N          -0.7625  -17.3788   19.1905 N.ar    1  UNL1       -0.2481
@<TRIPOS>BOND
     1    21    22    1
     2    22    23   ar
     3    23    24   ar
     4    24    25   ar
     5    25     1    1
     6     1     2   am
     7     2     3    2
     8     2     4   am
     9     7     4    1
    10     7     8    1
    11     8     9    1
    12     9    10    1
    13     9    11    1
    14     9    12    1
    15    12    13    1
    16    13    14   ar
    17    14    15    1
    18    14    16   ar
    19    16    17   ar
    20    17    18    1
    21    17    19   ar
    22    19    20   ar
    23    25    26   ar
    24    26    27   ar
    25    27    28   ar
    26    28    29   ar
    27    29    30   ar
    28    30    31   ar
    29    31    22   ar
    30    29    24   ar
    31    20     7    1
    32    20    13   ar
    33     1     5    1
    34     4     6    1
@<TRIPOS>MOLECULE
*****
 31 34 0 0 0
SMALL
GASTEIGER

@<TRIPOS>ATOM
      1 N         -16.1838   -4.0602   20.4905 N.am    1  UNL1       -0.2683
      2 C         -15.1121   -3.6014   19.5465 C.2     1  UNL1        0.3047
      3 O         -15.3745   -3.5745   18.0699 O.2     1  UNL1       -0.2525
      4 N         -13.7781   -3.1695   20.0792 N.am    1  UNL1       -0.2863
      5 H         -16.0116   -4.0779   21.4596 H       1  UNL1        0.1564
      6 H         -13.6058   -3.1872   21.0483 H       1  UNL1        0.1512
      7 C         -12.7064   -2.7108   19.1352 C.3     1  UNL1        0.1021
      8 C         -12.6886   -1.2901   18.6541 C.3     1  UNL1        0.0642
      9 C         -11.6169   -0.8314   17.7101 C.3     1  UNL1        0.1353
     10 C         -10.8146    0.0702   16.8195 C.3     1  UNL1        0.0437
     11 C         -12.3921    0.4436   17.8636 C.3     1  UNL1        0.0437
     12 O         -10.5631   -1.7932   17.2473 O.3     1  UNL1       -0.4805
     13 C         -10.5809   -3.2138   17.7284 C.ar    1  UNL1        0.1631
     14 C          -9.5271   -4.1757   17.2656 C.ar    1  UNL1        0.1758
     15 F          -8.4554   -3.7169   16.3216 F       1  UNL1       -0.2009
     16 C          -9.5449   -5.5963   17.7467 C.ar    1  UNL1        0.0624
     17 C         -10.6165   -6.0551   18.6907 C.ar    1  UNL1        0.1423
     18 F         -10.6343   -7.4757   19.1718 F       1  UNL1       -0.2041
     19 C         -11.6703   -5.0933   19.1535 C.ar    1  UNL1        0.0301
     20 C         -11.6525   -3.6726   18.6724 C.ar    1  UNL1        0.0341
     21 C         -15.5177   -9.1203   18.7012 C.3     1  UNL1        0.0521
     22 C         -16.6847   -8.1793   18.7490 C.ar    1  UNL1        0.0594
     23 C         -16.5178   -6.8063   19.3295 C.ar    1  UNL1        0.0160
     24 C         -17.6849   -5.8652   19.3773 C.ar    1  UNL1        0.0162
     25 C         -17.5178   -4.4921   19.9578 C.ar    1  UNL1        0.0516
     26 C         -18.6849   -3.5510   20.0056 C.ar    1  UNL1        0.0147
     27 C         -20.0190   -3.9830   19.4729 C.ar    1  UNL1        0.0013
     28 C         -20.1860   -5.3560   18.8924 C.ar    1  UNL1        0.0016
     29 C         -19.0189   -6.2971   18.8446 C.ar    1  UNL1        0.0204
     30 C         -19.1858   -7.6700   18.2641 C.ar    1  UNL1        0.0984
     31 N         -18.0188   -8.6111   18.2163 N.ar    1  UNL1       -0.2481
@<TRIPOS>BOND
     1    21    22    1
     2    22    23   ar
     3    23    24   ar
     4    24    25   ar
     5    25     1    1
     6     1     2   am
     7     2     3    2
     8     2     4   am
     9     7     4    1
    10     7     8    1
    11     8     9    1
    12     9    10    1
    13     9    11    1
    14     9    12    1
    15    12    13    1
    16    13    14   ar
    17    14    15    1
    18    14    16   ar
    19    16    17   ar
    20    17    18    1
    21    17    19   ar
    22    19    20   ar
    23    25    26   ar
    24    26    27   ar
    25    27    28   ar
    26    28    29   ar
    27    29    30   ar
    28    30    31   ar
    29    31    22   ar
    30    29    24   ar
    31    20     7    1
    32    20    13   ar
    33     1     5    1
    34     4     6    1
@<TRIPOS>MOLECULE
*****
 31 34 0 0 0
SMALL
GASTEIGER

@<TRIPOS>ATOM
      1 N         -15.2706   -7.1090   19.9480 N.am    1  UNL1       -0.2683
      2 C         -14.2963   -6.3150   19.1291 C.2     1  UNL1        0.3047
      3 O         -14.2974   -6.4386   17.6342 O.2     1  UNL1       -0.2525
      4 N         -13.3211   -5.3974   19.8051 N.am    1  UNL1       -0.2863
      5 H         -15.2699   -7.0279   20.9292 H       1  UNL1        0.1564
      6 H         -13.3205   -5.3163   20.7863 H       1  UNL1        0.1512
      7 C         -12.3470   -4.6035   18.9862 C.3     1  UNL1        0.1021
      8 C         -11.1327   -5.2700   18.4107 C.3     1  UNL1        0.0642
      9 C         -10.1585   -4.4760   17.5918 C.3     1  UNL1        0.1353
     10 C          -8.9559   -4.1500   16.7567 C.3     1  UNL1        0.0437
     11 C          -9.5007   -5.8233   17.5452 C.3     1  UNL1        0.0437
     12 O         -10.3986   -3.0155   17.3484 O.3     1  UNL1       -0.4805
     13 C         -11.6129   -2.3490   17.9239 C.ar    1  UNL1        0.1631
     14 C         -11.8531   -0.8885   17.6805 C.ar    1  UNL1        0.1758
     15 F         -10.8789   -0.0945   16.8616 F       1  UNL1       -0.2009
     16 C         -13.0674   -0.2220   18.2560 C.ar    1  UNL1        0.0624
     17 C         -14.0415   -1.0159   19.0749 C.ar    1  UNL1        0.1423
     18 F         -15.2558   -0.3494   19.6504 F       1  UNL1       -0.2041
     19 C         -13.8014   -2.4764   19.3183 C.ar    1  UNL1        0.0301
     20 C         -12.5871   -3.1429   18.7428 C.ar    1  UNL1        0.0341
     21 C         -19.8807   -4.3195   19.4843 C.3     1  UNL1        0.0521
     22 C         -19.4596   -5.7050   19.0932 C.ar    1  UNL1        0.0594
     23 C         -18.0633   -6.1730   19.3781 C.ar    1  UNL1        0.0160
     24 C         -17.6422   -7.5586   18.9871 C.ar    1  UNL1        0.0162
     25 C         -16.2458   -8.0265   19.2720 C.ar    1  UNL1        0.0516
     26 C         -15.8247   -9.4121   18.8810 C.ar    1  UNL1        0.0147
     27 C         -16.8000  -10.3297   18.2049 C.ar    1  UNL1        0.0013
     28 C         -18.1963   -9.8617   17.9200 C.ar    1  UNL1        0.0016
     29 C         -18.6174   -8.4761   18.3111 C.ar    1  UNL1        0.0204
     30 C         -20.0137   -8.0081   18.0261 C.ar    1  UNL1        0.0984
     31 N         -20.4348   -6.6226   18.4172 N.ar    1  UNL1       -0.2481
@<TRIPOS>BOND
     1    21    22    1
     2    22    23   ar
     3    23    24   ar
     4    24    25   ar
     5    25     1    1
     6     1     2   am
     7     2     3    2
     8     2     4   am
     9     7     4    1
    10     7     8    1
    11     8     9    1
    12     9    10    1
    13     9    11    1
    14     9    12    1
    15    12    13    1
    16    13    14   ar
    17    14    15    1
    18    14    16   ar
    19    16    17   ar
    20    17    18    1
    21    17    19   ar
    22    19    20   ar
    23    25    26   ar
    24    26    27   ar
    25    27    28   ar
    26    28    29   ar
    27    29    30   ar
    28    30    31   ar
    29    31    22   ar
    30    29    24   ar
    31    20     7    1
    32    20    13   ar
    33     1     5    1
    34     4     6    1
@<TRIPOS>MOLECULE
*****
 31 34 0 0 0
SMALL
GASTEIGER

@<TRIPOS>ATOM
      1 N         -14.6976   -4.5911   20.3183 N.am    1  UNL1       -0.2683
      2 C         -15.0905   -3.3305   19.6066 C.2     1  UNL1        0.3047
      3 O         -15.2981   -3.3415   18.1211 O.2     1  UNL1       -0.2525
      4 N         -15.2757   -2.0589   20.3803 N.am    1  UNL1       -0.2863
      5 H         -14.5614   -4.5839   21.2933 H       1  UNL1        0.1564
      6 H         -15.1394   -2.0517   21.3553 H       1  UNL1        0.1512
      7 C         -15.6685   -0.7984   19.6686 C.3     1  UNL1        0.1021
      8 C         -17.0627   -0.2625   19.8066 C.3     1  UNL1        0.0642
      9 C         -17.4555    0.9982   19.0948 C.3     1  UNL1        0.1353
     10 C         -18.2978    2.1454   18.6210 C.3     1  UNL1        0.0437
     11 C         -18.7494    0.6720   19.7801 C.3     1  UNL1        0.0437
     12 O         -16.4542    1.7228   18.2450 O.3     1  UNL1       -0.4805
     13 C         -15.0600    1.1869   18.1070 C.ar    1  UNL1        0.1631
     14 C         -14.0587    1.9115   17.2572 C.ar    1  UNL1        0.1758
     15 F         -14.4515    3.1721   16.5453 F       1  UNL1       -0.2009
     16 C         -12.6645    1.3755   17.1191 C.ar    1  UNL1        0.0624
     17 C         -12.2717    0.1150   17.8309 C.ar    1  UNL1        0.1423
     18 F         -10.8775   -0.4209   17.6929 F       1  UNL1       -0.2041
     19 C         -13.2730   -0.6096   18.6807 C.ar    1  UNL1        0.0301
     20 C         -14.6672   -0.0737   18.8187 C.ar    1  UNL1        0.0341
     21 C          -9.5355   -4.6272   18.7055 C.3     1  UNL1        0.0521
     22 C         -10.6871   -5.5718   18.5284 C.ar    1  UNL1        0.0594
     23 C         -12.0239   -5.2450   19.1250 C.ar    1  UNL1        0.0160
     24 C         -13.1755   -6.1897   18.9479 C.ar    1  UNL1        0.0162
     25 C         -14.5124   -5.8627   19.5446 C.ar    1  UNL1        0.0516
     26 C         -15.6640   -6.8074   19.3674 C.ar    1  UNL1        0.0147
     27 C         -15.4787   -8.0790   18.5936 C.ar    1  UNL1        0.0013
     28 C         -14.1419   -8.4059   17.9970 C.ar    1  UNL1        0.0016
     29 C         -12.9903   -7.4612   18.1741 C.ar    1  UNL1        0.0204
     30 C         -11.6535   -7.7881   17.5775 C.ar    1  UNL1        0.0984
     31 N         -10.5019   -6.8434   17.7546 N.ar    1  UNL1       -0.2481
@<TRIPOS>BOND
     1    21    22    1
     2    22    23   ar
     3    23    24   ar
     4    24    25   ar
     5    25     1    1
     6     1     2   am
     7     2     3    2
     8     2     4   am
     9     7     4    1
    10     7     8    1
    11     8     9    1
    12     9    10    1
    13     9    11    1
    14     9    12    1
    15    12    13    1
    16    13    14   ar
    17    14    15    1
    18    14    16   ar
    19    16    17   ar
    20    17    18    1
    21    17    19   ar
    22    19    20   ar
    23    25    26   ar
    24    26    27   ar
    25    27    28   ar
    26    28    29   ar
    27    29    30   ar
    28    30    31   ar
    29    31    22   ar
    30    29    24   ar
    31    20     7    1
    32    20    13   ar
    33     1     5    1
    34     4     6    1
@<TRIPOS>MOLECULE
*****
 31 34 0 0 0
SMALL
GASTEIGER

@<TRIPOS>ATOM
      1 N           1.8886    2.2957   21.2240 N.am    1  UNL1       -0.2683
      2 C           0.5348    2.3441   20.5797 C.2     1  UNL1        0.3047
      3 O          -0.2979    1.0998   20.4899 O.2     1  UNL1       -0.2525
      4 N           0.0139    3.6368   20.0253 N.am    1  UNL1       -0.2863
      5 H           2.4352    3.1124   21.2830 H       1  UNL1        0.1564
      6 H           0.5605    4.4536   20.0843 H       1  UNL1        0.1512
      7 C          -1.3398    3.6852   19.3810 C.3     1  UNL1        0.1021
      8 C          -1.4572    3.8074   17.8906 C.3     1  UNL1        0.0642
      9 C          -2.8110    3.8557   17.2464 C.3     1  UNL1        0.1353
     10 C          -3.8620    3.9399   16.1795 C.3     1  UNL1        0.0437
     11 C          -1.9396    3.9588   16.0297 C.3     1  UNL1        0.0437
     12 O          -4.0473    3.7819   18.0925 O.3     1  UNL1       -0.4805
     13 C          -3.9299    3.6597   19.5829 C.ar    1  UNL1        0.1631
     14 C          -5.1662    3.5859   20.4291 C.ar    1  UNL1        0.1758
     15 F          -6.5200    3.6342   19.7848 F       1  UNL1       -0.2009
     16 C          -5.0489    3.4637   21.9195 C.ar    1  UNL1        0.0624
     17 C          -3.6952    3.4154   22.5637 C.ar    1  UNL1        0.1423
     18 F          -3.5778    3.2932   24.0541 F       1  UNL1       -0.2041
     19 C          -2.4589    3.4892   21.7176 C.ar    1  UNL1        0.0301
     20 C          -2.5762    3.6114   20.2272 C.ar    1  UNL1        0.0341
     21 C           3.7660   -0.5024   16.9937 C.3     1  UNL1        0.0521
     22 C           3.6874   -0.7725   18.4671 C.ar    1  UNL1        0.0594
     23 C           3.0878    0.2502   19.3861 C.ar    1  UNL1        0.0160
     24 C           3.0092   -0.0198   20.8595 C.ar    1  UNL1        0.0162
     25 C           2.4096    1.0030   21.7785 C.ar    1  UNL1        0.0516
     26 C           2.3309    0.7330   23.2519 C.ar    1  UNL1        0.0147
     27 C           2.8519   -0.5598   23.8063 C.ar    1  UNL1        0.0013
     28 C           3.4515   -1.5825   22.8873 C.ar    1  UNL1        0.0016
     29 C           3.5301   -1.3125   21.4139 C.ar    1  UNL1        0.0204
     30 C           4.1297   -2.3352   20.4949 C.ar    1  UNL1        0.0984
     31 N           4.2083   -2.0652   19.0215 N.ar    1  UNL1       -0.2481
@<TRIPOS>BOND
     1    21    22    1
     2    22    23   ar
     3    23    24   ar
     4    24    25   ar
     5    25     1    1
     6     1     2   am
     7     2     3    2
     8     2     4   am
     9     7     4    1
    10     7     8    1
    11     8     9    1
    12     9    10    1
    13     9    11    1
    14     9    12    1
    15    12    13    1
    16    13    14   ar
    17    14    15    1
    18    14    16   ar
    19    16    17   ar
    20    17    18    1
    21    17    19   ar
    22    19    20   ar
    23    25    26   ar
    24    26    27   ar
    25    27    28   ar
    26    28    29   ar
    27    29    30   ar
    28    30    31   ar
    29    31    22   ar
    30    29    24   ar
    31    20     7    1
    32    20    13   ar
    33     1     5    1
    34     4     6    1
@<TRIPOS>MOLECULE
*****
 31 34 0 0 0
SMALL
GASTEIGER

@<TRIPOS>ATOM
      1 N          -0.5867    3.5784   20.8387 N.am    1  UNL1       -0.2683
      2 C           0.1605    2.2889   20.6685 C.2     1  UNL1        0.3047
      3 O          -0.5923    1.0007   20.5140 O.2     1  UNL1       -0.2525
      4 N           1.6604    2.2876   20.6527 N.am    1  UNL1       -0.2863
      5 H          -0.0926    4.4239   20.9401 H       1  UNL1        0.1564
      6 H           2.1545    3.1331   20.7541 H       1  UNL1        0.1512
      7 C           2.4075    0.9981   20.4824 C.3     1  UNL1        0.1021
      8 C           2.7660    0.5148   19.1084 C.3     1  UNL1        0.0642
      9 C           3.5132   -0.7747   18.9382 C.3     1  UNL1        0.1353
     10 C           4.2093   -1.9226   18.2692 C.3     1  UNL1        0.0437
     11 C           3.3664   -0.3672   17.5021 C.3     1  UNL1        0.0437
     12 O           3.9017   -1.5809   20.1420 O.3     1  UNL1       -0.4805
     13 C           3.5432   -1.0976   21.5160 C.ar    1  UNL1        0.1631
     14 C           3.9318   -1.9038   22.7197 C.ar    1  UNL1        0.1758
     15 F           4.6789   -3.1933   22.5495 F       1  UNL1       -0.2009
     16 C           3.5733   -1.4205   24.0937 C.ar    1  UNL1        0.0624
     17 C           2.8261   -0.1310   24.2640 C.ar    1  UNL1        0.1423
     18 F           2.4676    0.3523   25.6380 F       1  UNL1       -0.2041
     19 C           2.4376    0.6752   23.0602 C.ar    1  UNL1        0.0301
     20 C           2.7961    0.1919   21.6862 C.ar    1  UNL1        0.0341
     21 C          -2.0320    3.4561   26.0489 C.3     1  UNL1        0.0521
     22 C          -2.7956    3.4876   24.7582 C.ar    1  UNL1        0.0594
     23 C          -2.0593    3.5179   23.4517 C.ar    1  UNL1        0.0160
     24 C          -2.8229    3.5494   22.1610 C.ar    1  UNL1        0.0162
     25 C          -2.0866    3.5797   20.8545 C.ar    1  UNL1        0.0516
     26 C          -2.8502    3.6113   19.5638 C.ar    1  UNL1        0.0147
     27 C          -4.3501    3.6125   19.5796 C.ar    1  UNL1        0.0013
     28 C          -5.0864    3.5823   20.8861 C.ar    1  UNL1        0.0016
     29 C          -4.3228    3.5507   22.1768 C.ar    1  UNL1        0.0204
     30 C          -5.0591    3.5204   23.4833 C.ar    1  UNL1        0.0984
     31 N          -4.2955    3.4889   24.7740 N.ar    1  UNL1       -0.2481
@<TRIPOS>BOND
     1    21    22    1
     2    22    23   ar
     3    23    24   ar
     4    24    25   ar
     5    25     1    1
     6     1     2   am
     7     2     3    2
     8     2     4   am
     9     7     4    1
    10     7     8    1
    11     8     9    1
    12     9    10    1
    13     9    11    1
    14     9    12    1
    15    12    13    1
    16    13    14   ar
    17    14    15    1
    18    14    16   ar
    19    16    17   ar
    20    17    18    1
    21    17    19   ar
    22    19    20   ar
    23    25    26   ar
    24    26    27   ar
    25    27    28   ar
    26    28    29   ar
    27    29    30   ar
    28    30    31   ar
    29    31    22   ar
    30    29    24   ar
    31    20     7    1
    32    20    13   ar
    33     1     5    1
    34     4     6    1
@<TRIPOS>MOLECULE
*****
 31 34 0 0 0
SMALL
GASTEIGER

@<TRIPOS>ATOM
      1 N           1.7237    2.3312   20.3714 N.am    1  UNL1       -0.2683
      2 C           0.2569    2.3518   20.6846 C.2     1  UNL1        0.3047
      3 O          -0.5742    1.1224   20.4653 O.2     1  UNL1       -0.2525
      4 N          -0.3789    3.6017   21.2170 N.am    1  UNL1       -0.2863
      5 H           2.2692    3.1381   20.5153 H       1  UNL1        0.1564
      6 H           0.1665    4.4085   21.3610 H       1  UNL1        0.1512
      7 C          -1.8457    3.6222   21.5302 C.3     1  UNL1        0.1021
      8 C          -2.8502    3.6422   20.4164 C.3     1  UNL1        0.0642
      9 C          -4.3170    3.6628   20.7296 C.3     1  UNL1        0.1353
     10 C          -5.8024    3.6859   20.5221 C.3     1  UNL1        0.0437
     11 C          -4.3706    3.6702   19.2305 C.3     1  UNL1        0.0437
     12 O          -4.7793    3.6633   22.1565 O.3     1  UNL1       -0.4805
     13 C          -3.7748    3.6433   23.2703 C.ar    1  UNL1        0.1631
     14 C          -4.2370    3.6439   24.6973 C.ar    1  UNL1        0.1758
     15 F          -5.7039    3.6644   25.0105 F       1  UNL1       -0.2009
     16 C          -3.2325    3.6239   25.8111 C.ar    1  UNL1        0.0624
     17 C          -1.7658    3.6033   25.4980 C.ar    1  UNL1        0.1423
     18 F          -0.7613    3.5834   26.6118 F       1  UNL1       -0.2041
     19 C          -1.3035    3.6028   24.0710 C.ar    1  UNL1        0.0301
     20 C          -2.3080    3.6228   22.9572 C.ar    1  UNL1        0.0341
     21 C           3.1551   -0.5832   24.6966 C.3     1  UNL1        0.0521
     22 C           3.2741   -0.7920   23.2160 C.ar    1  UNL1        0.0594
     23 C           2.7573    0.2490   22.2678 C.ar    1  UNL1        0.0160
     24 C           2.8763    0.0402   20.7872 C.ar    1  UNL1        0.0162
     25 C           2.3595    1.0813   19.8390 C.ar    1  UNL1        0.0516
     26 C           2.4784    0.8725   18.3584 C.ar    1  UNL1        0.0147
     27 C           3.1142   -0.3775   17.8259 C.ar    1  UNL1        0.0013
     28 C           3.6310   -1.4186   18.7741 C.ar    1  UNL1        0.0016
     29 C           3.5120   -1.2097   20.2547 C.ar    1  UNL1        0.0204
     30 C           4.0288   -2.2508   21.2029 C.ar    1  UNL1        0.0984
     31 N           3.9098   -2.0419   22.6835 N.ar    1  UNL1       -0.2481
@<TRIPOS>BOND
     1    21    22    1
     2    22    23   ar
     3    23    24   ar
     4    24    25   ar
     5    25     1    1
     6     1     2   am
     7     2     3    2
     8     2     4   am
     9     7     4    1
    10     7     8    1
    11     8     9    1
    12     9    10    1
    13     9    11    1
    14     9    12    1
    15    12    13    1
    16    13    14   ar
    17    14    15    1
    18    14    16   ar
    19    16    17   ar
    20    17    18    1
    21    17    19   ar
    22    19    20   ar
    23    25    26   ar
    24    26    27   ar
    25    27    28   ar
    26    28    29   ar
    27    29    30   ar
    28    30    31   ar
    29    31    22   ar
    30    29    24   ar
    31    20     7    1
    32    20    13   ar
    33     1     5    1
    34     4     6    1
@<TRIPOS>MOLECULE
*****
 31 34 0 0 0
SMALL
GASTEIGER

@<TRIPOS>ATOM
      1 N           6.8692   -2.1995   21.8459 N.am    1  UNL1       -0.2683
      2 C           6.7645   -3.2673   22.8943 C.2     1  UNL1        0.3047
      3 O           5.7033   -4.3219   22.7873 O.2     1  UNL1       -0.2525
      4 N           7.7210   -3.2803   24.0496 N.am    1  UNL1       -0.2863
      5 H           7.5657   -1.5073   21.9161 H       1  UNL1        0.1564
      6 H           8.4175   -2.5880   24.1199 H       1  UNL1        0.1512
      7 C           7.6163   -4.3479   25.0979 C.3     1  UNL1        0.1021
      8 C           7.9457   -5.7706   24.7551 C.3     1  UNL1        0.0642
      9 C           7.8410   -6.8383   25.8035 C.3     1  UNL1        0.1353
     10 C           7.8934   -8.1926   26.4461 C.3     1  UNL1        0.0437
     11 C           8.2933   -7.6636   24.6354 C.3     1  UNL1        0.0437
     12 O           7.4069   -6.4834   27.1947 O.3     1  UNL1       -0.4805
     13 C           7.0775   -5.0607   27.5376 C.ar    1  UNL1        0.1631
     14 C           6.6434   -4.7058   28.9288 C.ar    1  UNL1        0.1758
     15 F           6.5386   -5.7735   29.9772 F       1  UNL1       -0.2009
     16 C           6.3139   -3.2831   29.2717 C.ar    1  UNL1        0.0624
     17 C           6.4186   -2.2154   28.2233 C.ar    1  UNL1        0.1423
     18 F           6.0892   -0.7928   28.5662 F       1  UNL1       -0.2041
     19 C           6.8528   -2.5704   26.8321 C.ar    1  UNL1        0.0301
     20 C           7.1822   -3.9930   26.4892 C.ar    1  UNL1        0.0341
     21 C           2.3652    0.1868   23.6542 C.3     1  UNL1        0.0521
     22 C           2.7738   -0.4000   22.3356 C.ar    1  UNL1        0.0594
     23 C           4.1389   -0.9998   22.1724 C.ar    1  UNL1        0.0160
     24 C           4.5475   -1.5867   20.8538 C.ar    1  UNL1        0.0162
     25 C           5.9126   -2.1865   20.6905 C.ar    1  UNL1        0.0516
     26 C           6.3212   -2.7733   19.3719 C.ar    1  UNL1        0.0147
     27 C           5.3646   -2.7603   18.2166 C.ar    1  UNL1        0.0013
     28 C           3.9995   -2.1605   18.3798 C.ar    1  UNL1        0.0016
     29 C           3.5910   -1.5737   19.6984 C.ar    1  UNL1        0.0204
     30 C           2.2259   -0.9738   19.8617 C.ar    1  UNL1        0.0984
     31 N           1.8173   -0.3870   21.1803 N.ar    1  UNL1       -0.2481
@<TRIPOS>BOND
     1    21    22    1
     2    22    23   ar
     3    23    24   ar
     4    24    25   ar
     5    25     1    1
     6     1     2   am
     7     2     3    2
     8     2     4   am
     9     7     4    1
    10     7     8    1
    11     8     9    1
    12     9    10    1
    13     9    11    1
    14     9    12    1
    15    12    13    1
    16    13    14   ar
    17    14    15    1
    18    14    16   ar
    19    16    17   ar
    20    17    18    1
    21    17    19   ar
    22    19    20   ar
    23    25    26   ar
    24    26    27   ar
    25    27    28   ar
    26    28    29   ar
    27    29    30   ar
    28    30    31   ar
    29    31    22   ar
    30    29    24   ar
    31    20     7    1
    32    20    13   ar
    33     1     5    1
    34     4     6    1
@<TRIPOS>MOLECULE
*****
 31 34 0 0 0
SMALL
GASTEIGER

@<TRIPOS>ATOM
      1 N          -8.3754  -17.2444   23.5073 N.am    1  UNL1       -0.2683
      2 C          -7.4472  -18.0569   22.6538 C.2     1  UNL1        0.3047
      3 O          -7.9627  -19.2589   21.9193 O.2     1  UNL1       -0.2525
      4 N          -6.0036  -17.6674   22.5348 N.am    1  UNL1       -0.2863
      5 H          -8.0371  -16.4555   23.9894 H       1  UNL1        0.1564
      6 H          -5.6652  -16.8785   23.0169 H       1  UNL1        0.1512
      7 C          -5.0755  -18.4798   21.6814 C.3     1  UNL1        0.1021
      8 C          -5.5264  -19.7995   21.1291 C.3     1  UNL1        0.0642
      9 C          -4.5982  -20.6120   20.2756 C.3     1  UNL1        0.1353
     10 C          -4.0875  -21.7362   19.4240 C.3     1  UNL1        0.0437
     11 C          -5.7999  -21.5097   20.2811 C.3     1  UNL1        0.0437
     12 O          -3.2191  -20.1047   19.9744 O.3     1  UNL1       -0.4805
     13 C          -2.7682  -18.7850   20.5266 C.ar    1  UNL1        0.1631
     14 C          -1.3891  -18.2778   20.2254 C.ar    1  UNL1        0.1758
     15 F          -0.4609  -19.0902   19.3719 F       1  UNL1       -0.2009
     16 C          -0.9381  -16.9580   20.7776 C.ar    1  UNL1        0.0624
     17 C          -1.8663  -16.1456   21.6311 C.ar    1  UNL1        0.1423
     18 F          -1.4153  -14.8259   22.1834 F       1  UNL1       -0.2041
     19 C          -3.2453  -16.6528   21.9323 C.ar    1  UNL1        0.0301
     20 C          -3.6963  -17.9726   21.3801 C.ar    1  UNL1        0.0341
     21 C         -10.8348  -15.2437   19.1257 C.3     1  UNL1        0.0521
     22 C         -11.3027  -16.0360   20.3103 C.ar    1  UNL1        0.0594
     23 C         -10.3269  -16.4388   21.3759 C.ar    1  UNL1        0.0160
     24 C         -10.7948  -17.2311   22.5606 C.ar    1  UNL1        0.0162
     25 C          -9.8190  -17.6339   23.6262 C.ar    1  UNL1        0.0516
     26 C         -10.2869  -18.4263   24.8109 C.ar    1  UNL1        0.0147
     27 C         -11.7306  -18.8158   24.9298 C.ar    1  UNL1        0.0013
     28 C         -12.7063  -18.4130   23.8641 C.ar    1  UNL1        0.0016
     29 C         -12.2384  -17.6207   22.6795 C.ar    1  UNL1        0.0204
     30 C         -13.2142  -17.2179   21.6139 C.ar    1  UNL1        0.0984
     31 N         -12.7463  -16.4256   20.4292 N.ar    1  UNL1       -0.2481
@<TRIPOS>BOND
     1    21    22    1
     2    22    23   ar
     3    23    24   ar
     4    24    25   ar
     5    25     1    1
     6     1     2   am
     7     2     3    2
     8     2     4   am
     9     7     4    1
    10     7     8    1
    11     8     9    1
    12     9    10    1
    13     9    11    1
    14     9    12    1
    15    12    13    1
    16    13    14   ar
    17    14    15    1
    18    14    16   ar
    19    16    17   ar
    20    17    18    1
    21    17    19   ar
    22    19    20   ar
    23    25    26   ar
    24    26    27   ar
    25    27    28   ar
    26    28    29   ar
    27    29    30   ar
    28    30    31   ar
    29    31    22   ar
    30    29    24   ar
    31    20     7    1
    32    20    13   ar
    33     1     5    1
    34     4     6    1
