@<TRIPOS>MOLECULE
*****
 33 37 0 0 0
SMALL
GASTEIGER

@<TRIPOS>ATOM
      1 N         -10.4911  -19.1285   20.6277 N.3     1  UNL1       -0.2726
      2 C         -11.2459  -19.7131   21.7846 C.3     1  UNL1        0.0721
      3 C         -10.2464  -20.1974   22.7928 C.3     1  UNL1        0.0190
      4 C          -8.8740  -19.9121   22.2590 C.3     1  UNL1        0.0201
      5 C          -8.1289  -20.4810   23.4300 C.3     1  UNL1        0.0061
      6 C          -7.3741  -19.8964   22.2731 C.3     1  UNL1        0.0237
      7 C          -9.0252  -19.2515   20.9209 C.3     1  UNL1        0.0724
      8 C          -6.0724  -19.5497   21.6132 C.ar    1  UNL1       -0.0225
      9 C          -6.0428  -19.1842   20.1587 C.ar    1  UNL1       -0.0043
     10 C          -4.7411  -18.8375   19.4988 C.ar    1  UNL1        0.0035
     11 C          -3.4691  -18.8564   20.2935 C.ar    1  UNL1        0.0714
     12 C          -3.4987  -19.2219   21.7480 C.ar    1  UNL1        0.0035
     13 C          -4.8004  -19.5686   22.4078 C.ar    1  UNL1       -0.0043
     14 C          -2.1674  -18.5098   19.6336 C.3     1  UNL1        0.4186
     15 F          -0.8656  -18.1631   18.9738 F       1  UNL1       -0.1659
     16 F          -2.8889  -17.5905   18.6932 F       1  UNL1       -0.1659
     17 F          -1.4459  -19.4290   20.5740 F       1  UNL1       -0.1659
     18 C         -11.0961  -18.5265   19.3941 C.3     1  UNL1        0.0730
     19 C         -11.4139  -17.0611   19.3531 C.3     1  UNL1        0.0294
     20 C         -12.2913  -16.4540   20.4074 C.3     1  UNL1        0.0666
     21 S         -11.7413  -16.1836   21.7765 S.3     1  UNL1       -0.0756
     22 C          -9.9048  -16.9315   24.3683 C.3     1  UNL1        0.1340
     23 N          -9.4429  -16.2031   23.1411 N.ar    1  UNL1       -0.2872
     24 C         -10.2870  -15.8593   21.9498 C.ar    1  UNL1        0.1933
     25 N          -9.4216  -15.1343   20.9621 N.ar    1  UNL1       -0.1221
     26 N          -8.0426  -15.0299   21.5431 N.ar    1  UNL1       -0.1266
     27 C          -8.0557  -15.6905   22.8898 C.ar    1  UNL1        0.1862
     28 C          -6.8869  -15.8163   23.8215 C.ar    1  UNL1        0.1362
     29 C          -7.0117  -15.3648   25.2465 C.ar    1  UNL1        0.1211
     30 N          -5.8429  -15.4907   26.1782 N.ar    1  UNL1       -0.2390
     31 C          -4.5493  -16.0681   25.6848 C.ar    1  UNL1        0.1195
     32 C          -4.4246  -16.5197   24.2599 C.ar    1  UNL1        0.1196
     33 N          -5.5934  -16.3938   23.3282 N.ar    1  UNL1       -0.2375
@<TRIPOS>BOND
     1    22    23    1
     2    23    24   ar
     3    24    21    1
     4    21    20    1
     5    20    19    1
     6    19    18    1
     7    18     1    1
     8     1     2    1
     9     2     3    1
    10     4     3    1
    11     4     5    1
    12     5     6    1
    13     6     8    1
    14     8     9   ar
    15     9    10   ar
    16    10    11   ar
    17    11    14    1
    18    14    15    1
    19    14    16    1
    20    14    17    1
    21    11    12   ar
    22    12    13   ar
    23     4     7    1
    24    24    25   ar
    25    25    26   ar
    26    26    27   ar
    27    27    28    1
    28    28    29   ar
    29    29    30   ar
    30    30    31   ar
    31    31    32   ar
    32    32    33   ar
    33    27    23   ar
    34    33    28   ar
    35     7     1    1
    36     6     4    1
    37    13     8   ar
@<TRIPOS>MOLECULE
*****
 33 37 0 0 0
SMALL
GASTEIGER

@<TRIPOS>ATOM
      1 N         -10.3257  -18.7524   20.1339 N.3     1  UNL1       -0.2726
      2 C         -11.8097  -18.6334   19.9505 C.3     1  UNL1        0.0721
      3 C         -12.3339  -17.7042   21.0049 C.3     1  UNL1        0.0190
      4 C         -11.1739  -17.2488   21.8399 C.3     1  UNL1        0.0201
      5 C         -11.9757  -16.3766   22.7598 C.3     1  UNL1        0.0061
      6 C         -10.4918  -16.4956   22.9432 C.3     1  UNL1        0.0237
      7 C          -9.9328  -17.8967   21.3015 C.3     1  UNL1        0.0724
      8 C          -9.2411  -16.1295   23.6860 C.ar    1  UNL1       -0.0225
      9 C          -9.1127  -16.4549   25.1447 C.ar    1  UNL1       -0.0043
     10 C          -7.8621  -16.0887   25.8875 C.ar    1  UNL1        0.0035
     11 C          -6.7399  -15.3972   25.1717 C.ar    1  UNL1        0.0714
     12 C          -6.8683  -15.0718   23.7131 C.ar    1  UNL1        0.0035
     13 C          -8.1189  -15.4380   22.9702 C.ar    1  UNL1       -0.0043
     14 C          -5.4892  -15.0311   25.9146 C.3     1  UNL1        0.4186
     15 F          -4.2385  -14.6649   26.6574 F       1  UNL1       -0.1659
     16 F          -6.2564  -15.0255   27.2035 F       1  UNL1       -0.1659
     17 F          -4.7220  -15.0366   24.6256 F       1  UNL1       -0.1659
     18 C          -9.3975  -19.5815   19.2966 C.3     1  UNL1        0.0730
     19 C          -7.9218  -19.5563   19.5639 C.3     1  UNL1        0.0294
     20 C          -7.3078  -20.5732   20.4799 C.3     1  UNL1        0.0666
     21 S          -6.7737  -20.1526   21.8170 S.3     1  UNL1       -0.0756
     22 C          -4.0119  -20.4083   20.0974 C.3     1  UNL1        0.1340
     23 N          -4.3271  -19.3439   21.1062 N.ar    1  UNL1       -0.2872
     24 C          -5.5965  -19.2264   21.8966 C.ar    1  UNL1        0.1933
     25 N          -5.4821  -18.0200   22.7807 N.ar    1  UNL1       -0.1221
     26 N          -4.1420  -17.3920   22.5367 N.ar    1  UNL1       -0.1266
     27 C          -3.4280  -18.2101   21.5018 C.ar    1  UNL1        0.1862
     28 C          -2.0561  -17.9417   20.9581 C.ar    1  UNL1        0.1362
     29 C          -1.2376  -19.0673   20.3985 C.ar    1  UNL1        0.1211
     30 N           0.1343  -18.7989   19.8547 N.ar    1  UNL1       -0.2390
     31 C           0.6878  -17.4048   19.8705 C.ar    1  UNL1        0.1195
     32 C          -0.1307  -16.2792   20.4301 C.ar    1  UNL1        0.1196
     33 N          -1.5027  -16.5477   20.9739 N.ar    1  UNL1       -0.2375
@<TRIPOS>BOND
     1    22    23    1
     2    23    24   ar
     3    24    21    1
     4    21    20    1
     5    20    19    1
     6    19    18    1
     7    18     1    1
     8     1     2    1
     9     2     3    1
    10     4     3    1
    11     4     5    1
    12     5     6    1
    13     6     8    1
    14     8     9   ar
    15     9    10   ar
    16    10    11   ar
    17    11    14    1
    18    14    15    1
    19    14    16    1
    20    14    17    1
    21    11    12   ar
    22    12    13   ar
    23     4     7    1
    24    24    25   ar
    25    25    26   ar
    26    26    27   ar
    27    27    28    1
    28    28    29   ar
    29    29    30   ar
    30    30    31   ar
    31    31    32   ar
    32    32    33   ar
    33    27    23   ar
    34    33    28   ar
    35     7     1    1
    36     6     4    1
    37    13     8   ar
@<TRIPOS>MOLECULE
*****
 33 37 0 0 0
SMALL
GASTEIGER

@<TRIPOS>ATOM
      1 N          -9.3057  -18.7292   20.6718 N.3     1  UNL1       -0.2726
      2 C         -10.0250  -19.7246   21.5332 C.3     1  UNL1        0.0721
      3 C          -9.0020  -20.4509   22.3553 C.3     1  UNL1        0.0190
      4 C          -7.6505  -19.9045   22.0020 C.3     1  UNL1        0.0201
      5 C          -6.8762  -20.7835   22.9390 C.3     1  UNL1        0.0061
      6 C          -6.1569  -19.7882   22.0776 C.3     1  UNL1        0.0237
      7 C          -7.8382  -18.8404   20.9616 C.3     1  UNL1        0.0724
      8 C          -4.8793  -19.1464   21.6240 C.ar    1  UNL1       -0.0225
      9 C          -4.0327  -18.3872   22.6023 C.ar    1  UNL1       -0.0043
     10 C          -2.7552  -17.7454   22.1486 C.ar    1  UNL1        0.0035
     11 C          -2.3241  -17.8628   20.7167 C.ar    1  UNL1        0.0714
     12 C          -3.1707  -18.6220   19.7384 C.ar    1  UNL1        0.0035
     13 C          -4.4483  -19.2638   20.1921 C.ar    1  UNL1       -0.0043
     14 C          -1.0465  -17.2210   20.2630 C.3     1  UNL1        0.4186
     15 F           0.2311  -16.5791   19.8094 F       1  UNL1       -0.1659
     16 F          -0.7855  -18.3841   19.3526 F       1  UNL1       -0.1659
     17 F          -1.3076  -16.0578   21.1734 F       1  UNL1       -0.1659
     18 C          -9.9422  -17.7879   19.6926 C.3     1  UNL1        0.0730
     19 C         -11.4336  -17.6305   19.6644 C.3     1  UNL1        0.0294
     20 C         -12.0972  -16.6123   20.5436 C.3     1  UNL1        0.0666
     21 S         -12.4773  -16.9695   21.9500 S.3     1  UNL1       -0.0756
     22 C          -9.6794  -15.2978   22.1120 C.3     1  UNL1        0.1340
     23 N         -10.1287  -16.3599   23.0712 N.ar    1  UNL1       -0.2872
     24 C         -11.4147  -17.1283   22.9967 C.ar    1  UNL1        0.1933
     25 N         -11.4517  -18.0834   24.1528 N.ar    1  UNL1       -0.1221
     26 N         -10.1885  -17.9053   24.9417 N.ar    1  UNL1       -0.1266
     27 C          -9.3707  -16.8401   24.2733 C.ar    1  UNL1        0.1862
     28 C          -8.0305  -16.3425   24.7273 C.ar    1  UNL1        0.1362
     29 C          -6.9002  -16.2318   23.7473 C.ar    1  UNL1        0.1211
     30 N          -5.5600  -15.7342   24.2013 N.ar    1  UNL1       -0.2390
     31 C          -5.3500  -15.3474   25.6353 C.ar    1  UNL1        0.1195
     32 C          -6.4802  -15.4581   26.6153 C.ar    1  UNL1        0.1196
     33 N          -7.8205  -15.9557   26.1612 N.ar    1  UNL1       -0.2375
@<TRIPOS>BOND
     1    22    23    1
     2    23    24   ar
     3    24    21    1
     4    21    20    1
     5    20    19    1
     6    19    18    1
     7    18     1    1
     8     1     2    1
     9     2     3    1
    10     4     3    1
    11     4     5    1
    12     5     6    1
    13     6     8    1
    14     8     9   ar
    15     9    10   ar
    16    10    11   ar
    17    11    14    1
    18    14    15    1
    19    14    16    1
    20    14    17    1
    21    11    12   ar
    22    12    13   ar
    23     4     7    1
    24    24    25   ar
    25    25    26   ar
    26    26    27   ar
    27    27    28    1
    28    28    29   ar
    29    29    30   ar
    30    30    31   ar
    31    31    32   ar
    32    32    33   ar
    33    27    23   ar
    34    33    28   ar
    35     7     1    1
    36     6     4    1
    37    13     8   ar
@<TRIPOS>MOLECULE
*****
 33 37 0 0 0
SMALL
GASTEIGER

@<TRIPOS>ATOM
      1 N          -7.4938  -20.2752   19.6902 N.3     1  UNL1       -0.2726
      2 C          -8.4568  -20.5384   18.5707 C.3     1  UNL1        0.0721
      3 C          -9.7771  -19.9313   18.9427 C.3     1  UNL1        0.0190
      4 C          -9.6300  -19.2929   20.2921 C.3     1  UNL1        0.0201
      5 C         -11.0428  -18.7976   20.3860 C.3     1  UNL1        0.0061
      6 C         -10.0798  -18.5344   21.5055 C.3     1  UNL1        0.0237
      7 C          -8.2189  -19.5054   20.7541 C.3     1  UNL1        0.0724
      8 C          -9.7834  -17.9446   22.8525 C.ar    1  UNL1       -0.0225
      9 C          -9.8985  -18.7926   24.0844 C.ar    1  UNL1       -0.0043
     10 C          -9.6021  -18.2027   25.4313 C.ar    1  UNL1        0.0035
     11 C          -9.1907  -16.7649   25.5463 C.ar    1  UNL1        0.0714
     12 C          -9.0756  -15.9168   24.3144 C.ar    1  UNL1        0.0035
     13 C          -9.3720  -16.5067   22.9675 C.ar    1  UNL1       -0.0043
     14 C          -8.8943  -16.1750   26.8932 C.3     1  UNL1        0.4186
     15 F          -8.5979  -15.5852   28.2403 F       1  UNL1       -0.1659
     16 F          -8.9435  -14.7978   26.3010 F       1  UNL1       -0.1659
     17 F          -8.8451  -17.5523   27.4855 F       1  UNL1       -0.1659
     18 C          -6.0578  -20.7061   19.7376 C.3     1  UNL1        0.0730
     19 C          -4.9645  -19.6835   19.6439 C.3     1  UNL1        0.0294
     20 C          -3.5457  -20.1200   19.4280 C.3     1  UNL1        0.0666
     21 S          -2.4260  -19.4001   20.1194 S.3     1  UNL1       -0.0756
     22 C          -4.3032  -19.3203   22.7877 C.3     1  UNL1        0.1340
     23 N          -3.5794  -18.1535   22.1836 N.ar    1  UNL1       -0.2872
     24 C          -2.7166  -18.1902   20.9571 C.ar    1  UNL1        0.1933
     25 N          -2.1954  -16.8046   20.7154 N.ar    1  UNL1       -0.1221
     26 N          -2.7360  -15.9116   21.7925 N.ar    1  UNL1       -0.1266
     27 C          -3.5915  -16.7452   22.6999 C.ar    1  UNL1        0.1862
     28 C          -4.3293  -16.2564   23.9110 C.ar    1  UNL1        0.1362
     29 C          -5.2607  -15.0858   23.8000 C.ar    1  UNL1        0.1211
     30 N          -5.9985  -14.5970   25.0110 N.ar    1  UNL1       -0.2390
     31 C          -5.8049  -15.2788   26.3331 C.ar    1  UNL1        0.1195
     32 C          -4.8735  -16.4493   26.4441 C.ar    1  UNL1        0.1196
     33 N          -4.1357  -16.9381   25.2330 N.ar    1  UNL1       -0.2375
@<TRIPOS>BOND
     1    22    23    1
     2    23    24   ar
     3    24    21    1
     4    21    20    1
     5    20    19    1
     6    19    18    1
     7    18     1    1
     8     1     2    1
     9     2     3    1
    10     4     3    1
    11     4     5    1
    12     5     6    1
    13     6     8    1
    14     8     9   ar
    15     9    10   ar
    16    10    11   ar
    17    11    14    1
    18    14    15    1
    19    14    16    1
    20    14    17    1
    21    11    12   ar
    22    12    13   ar
    23     4     7    1
    24    24    25   ar
    25    25    26   ar
    26    26    27   ar
    27    27    28    1
    28    28    29   ar
    29    29    30   ar
    30    30    31   ar
    31    31    32   ar
    32    32    33   ar
    33    27    23   ar
    34    33    28   ar
    35     7     1    1
    36     6     4    1
    37    13     8   ar
@<TRIPOS>MOLECULE
*****
 33 37 0 0 0
SMALL
GASTEIGER

@<TRIPOS>ATOM
      1 N          -5.4769  -19.6513   21.1990 N.3     1  UNL1       -0.2726
      2 C          -5.1168  -19.9216   19.7682 C.3     1  UNL1        0.0721
      3 C          -6.3826  -19.9191   18.9633 C.3     1  UNL1        0.0190
      4 C          -7.5249  -19.6473   19.8967 C.3     1  UNL1        0.0201
      5 C          -8.5988  -19.7041   18.8510 C.3     1  UNL1        0.0061
      6 C          -8.9589  -19.4338   20.2818 C.3     1  UNL1        0.0237
      7 C          -6.9652  -19.4818   21.2785 C.3     1  UNL1        0.0724
      8 C          -9.9946  -19.1545   21.3302 C.ar    1  UNL1       -0.0225
      9 C         -11.0588  -18.1277   21.0785 C.ar    1  UNL1       -0.0043
     10 C         -12.0945  -17.8484   22.1269 C.ar    1  UNL1        0.0035
     11 C         -12.0660  -18.5959   23.4271 C.ar    1  UNL1        0.0714
     12 C         -11.0019  -19.6226   23.6788 C.ar    1  UNL1        0.0035
     13 C          -9.9661  -19.9019   22.6304 C.ar    1  UNL1       -0.0043
     14 C         -13.1018  -18.3166   24.4755 C.3     1  UNL1        0.4186
     15 F         -14.1375  -18.0373   25.5240 F       1  UNL1       -0.1659
     16 F         -13.8110  -17.3940   23.5291 F       1  UNL1       -0.1659
     17 F         -12.3925  -19.2392   25.4219 F       1  UNL1       -0.1659
     18 C          -4.5172  -19.5657   22.3486 C.3     1  UNL1        0.0730
     19 C          -3.0390  -19.5952   22.0954 C.3     1  UNL1        0.0294
     20 C          -2.3537  -18.3948   21.5127 C.3     1  UNL1        0.0666
     21 S          -2.1249  -17.1775   22.3587 S.3     1  UNL1       -0.0756
     22 C          -3.9452  -17.7727   25.0010 C.3     1  UNL1        0.1340
     23 N          -4.1286  -16.6338   24.0423 N.ar    1  UNL1       -0.2872
     24 C          -3.2920  -16.3602   22.8278 C.ar    1  UNL1        0.1933
     25 N          -3.8272  -15.1257   22.1646 N.ar    1  UNL1       -0.1221
     26 N          -4.9946  -14.6364   22.9694 N.ar    1  UNL1       -0.1266
     27 C          -5.1810  -15.5684   24.1299 C.ar    1  UNL1        0.1862
     28 C          -6.2347  -15.4549   25.1914 C.ar    1  UNL1        0.1362
     29 C          -7.6859  -15.5200   24.8177 C.ar    1  UNL1        0.1211
     30 N          -8.7396  -15.4066   25.8793 N.ar    1  UNL1       -0.2390
     31 C          -8.3419  -15.2280   27.3146 C.ar    1  UNL1        0.1195
     32 C          -6.8906  -15.1629   27.6883 C.ar    1  UNL1        0.1196
     33 N          -5.8370  -15.2764   26.6267 N.ar    1  UNL1       -0.2375
@<TRIPOS>BOND
     1    22    23    1
     2    23    24   ar
     3    24    21    1
     4    21    20    1
     5    20    19    1
     6    19    18    1
     7    18     1    1
     8     1     2    1
     9     2     3    1
    10     4     3    1
    11     4     5    1
    12     5     6    1
    13     6     8    1
    14     8     9   ar
    15     9    10   ar
    16    10    11   ar
    17    11    14    1
    18    14    15    1
    19    14    16    1
    20    14    17    1
    21    11    12   ar
    22    12    13   ar
    23     4     7    1
    24    24    25   ar
    25    25    26   ar
    26    26    27   ar
    27    27    28    1
    28    28    29   ar
    29    29    30   ar
    30    30    31   ar
    31    31    32   ar
    32    32    33   ar
    33    27    23   ar
    34    33    28   ar
    35     7     1    1
    36     6     4    1
    37    13     8   ar
@<TRIPOS>MOLECULE
*****
 33 37 0 0 0
SMALL
GASTEIGER

@<TRIPOS>ATOM
      1 N          -2.6390    4.5926   18.1580 N.3     1  UNL1       -0.2726
      2 C          -3.3363    4.1021   16.9238 C.3     1  UNL1        0.0721
      3 C          -4.6989    3.6182   17.3227 C.3     1  UNL1        0.0190
      4 C          -4.8439    3.8097   18.8033 C.3     1  UNL1        0.0201
      5 C          -6.2371    3.2619   18.8967 C.3     1  UNL1        0.0061
      6 C          -5.5399    3.7525   20.1308 C.3     1  UNL1        0.0237
      7 C          -3.5708    4.4120   19.3196 C.3     1  UNL1        0.0724
      8 C          -5.5391    4.0026   21.6098 C.ar    1  UNL1       -0.0225
      9 C          -4.8620    3.0343   22.5339 C.ar    1  UNL1       -0.0043
     10 C          -4.8612    3.2845   24.0129 C.ar    1  UNL1        0.0035
     11 C          -5.5377    4.5029   24.5678 C.ar    1  UNL1        0.0714
     12 C          -6.2148    5.4712   23.6437 C.ar    1  UNL1        0.0035
     13 C          -6.2155    5.2210   22.1647 C.ar    1  UNL1       -0.0043
     14 C          -5.5369    4.7531   26.0468 C.3     1  UNL1        0.4186
     15 F          -5.5362    5.0033   27.5258 F       1  UNL1       -0.1659
     16 F          -4.5098    3.6752   26.2286 F       1  UNL1       -0.1659
     17 F          -6.5641    5.8310   25.8649 F       1  UNL1       -0.1659
     18 C          -1.2533    5.1636   18.2198 C.3     1  UNL1        0.0730
     19 C          -0.4513    5.0509   19.4824 C.3     1  UNL1        0.0294
     20 C           1.0452    5.1393   19.4308 C.3     1  UNL1        0.0666
     21 S           1.8051    4.3863   18.3794 S.3     1  UNL1       -0.0756
     22 C           4.3986    2.4162   18.5856 C.3     1  UNL1        0.1340
     23 N           2.9687    1.9811   18.4577 N.ar    1  UNL1       -0.2872
     24 C           1.7767    2.8866   18.3629 C.ar    1  UNL1        0.1933
     25 N           0.5511    2.0293   18.2488 N.ar    1  UNL1       -0.1221
     26 N           0.9858    0.5939   18.2731 N.ar    1  UNL1       -0.1266
     27 C           2.4799    0.5640   18.4022 C.ar    1  UNL1        0.1862
     28 C           3.3351   -0.6668   18.4648 C.ar    1  UNL1        0.1362
     29 C           4.3673   -0.9175   17.4057 C.ar    1  UNL1        0.1211
     30 N           5.2225   -2.1482   17.4683 N.ar    1  UNL1       -0.2390
     31 C           5.0453   -3.1283   18.5900 C.ar    1  UNL1        0.1195
     32 C           4.0131   -2.8776   19.6491 C.ar    1  UNL1        0.1196
     33 N           3.1580   -1.6468   19.5864 N.ar    1  UNL1       -0.2375
@<TRIPOS>BOND
     1    22    23    1
     2    23    24   ar
     3    24    21    1
     4    21    20    1
     5    20    19    1
     6    19    18    1
     7    18     1    1
     8     1     2    1
     9     2     3    1
    10     4     3    1
    11     4     5    1
    12     5     6    1
    13     6     8    1
    14     8     9   ar
    15     9    10   ar
    16    10    11   ar
    17    11    14    1
    18    14    15    1
    19    14    16    1
    20    14    17    1
    21    11    12   ar
    22    12    13   ar
    23     4     7    1
    24    24    25   ar
    25    25    26   ar
    26    26    27   ar
    27    27    28    1
    28    28    29   ar
    29    29    30   ar
    30    30    31   ar
    31    31    32   ar
    32    32    33   ar
    33    27    23   ar
    34    33    28   ar
    35     7     1    1
    36     6     4    1
    37    13     8   ar
@<TRIPOS>MOLECULE
*****
 33 37 0 0 0
SMALL
GASTEIGER

@<TRIPOS>ATOM
      1 N           4.9534   -1.5618   23.0485 N.3     1  UNL1       -0.2726
      2 C           5.8034   -0.6535   22.2104 C.3     1  UNL1        0.0721
      3 C           5.3868    0.7600   22.4904 C.3     1  UNL1        0.0190
      4 C           4.2794    0.7253   23.5016 C.3     1  UNL1        0.0201
      5 C           4.0860    2.2110   23.5733 C.3     1  UNL1        0.0061
      6 C           3.2360    1.3027   24.4115 C.3     1  UNL1        0.0237
      7 C           4.0116   -0.7097   23.8466 C.3     1  UNL1        0.0724
      8 C           2.1429    1.1116   25.4207 C.ar    1  UNL1       -0.0225
      9 C           0.7098    1.2976   25.0184 C.ar    1  UNL1       -0.0043
     10 C          -0.3833    1.1065   26.0276 C.ar    1  UNL1        0.0035
     11 C          -0.0434    0.7295   27.4391 C.ar    1  UNL1        0.0714
     12 C           1.3897    0.5436   27.8414 C.ar    1  UNL1        0.0035
     13 C           2.4828    0.7347   26.8322 C.ar    1  UNL1       -0.0043
     14 C          -1.1365    0.5384   28.4483 C.3     1  UNL1        0.4186
     15 F          -2.2297    0.3474   29.4576 F       1  UNL1       -0.1659
     16 F          -0.4272   -0.6680   28.9882 F       1  UNL1       -0.1659
     17 F          -1.8458    1.7449   27.9085 F       1  UNL1       -0.1659
     18 C           5.0315   -3.0594   23.0827 C.3     1  UNL1        0.0730
     19 C           4.5193   -3.8638   21.9249 C.3     1  UNL1        0.0294
     20 C           5.1445   -3.7105   20.5700 C.3     1  UNL1        0.0666
     21 S           4.2774   -3.6285   19.3488 S.3     1  UNL1       -0.0756
     22 C           2.3955   -1.1993   20.4476 C.3     1  UNL1        0.1340
     23 N           3.1930   -1.1914   19.1772 N.ar    1  UNL1       -0.2872
     24 C           4.0580   -2.3079   18.6721 C.ar    1  UNL1        0.1933
     25 N           4.6651   -1.8721   17.3716 N.ar    1  UNL1       -0.1221
     26 N           4.1753   -0.4861   17.0728 N.ar    1  UNL1       -0.1266
     27 C           3.2655   -0.0654   18.1887 C.ar    1  UNL1        0.1862
     28 C           2.5532    1.2503   18.2972 C.ar    1  UNL1        0.1362
     29 C           3.3402    2.5209   18.4249 C.ar    1  UNL1        0.1211
     30 N           2.6280    3.8366   18.5333 N.ar    1  UNL1       -0.2390
     31 C           1.1287    3.8816   18.5140 C.ar    1  UNL1        0.1195
     32 C           0.3418    2.6110   18.3863 C.ar    1  UNL1        0.1196
     33 N           1.0541    1.2953   18.2778 N.ar    1  UNL1       -0.2375
@<TRIPOS>BOND
     1    22    23    1
     2    23    24   ar
     3    24    21    1
     4    21    20    1
     5    20    19    1
     6    19    18    1
     7    18     1    1
     8     1     2    1
     9     2     3    1
    10     4     3    1
    11     4     5    1
    12     5     6    1
    13     6     8    1
    14     8     9   ar
    15     9    10   ar
    16    10    11   ar
    17    11    14    1
    18    14    15    1
    19    14    16    1
    20    14    17    1
    21    11    12   ar
    22    12    13   ar
    23     4     7    1
    24    24    25   ar
    25    25    26   ar
    26    26    27   ar
    27    27    28    1
    28    28    29   ar
    29    29    30   ar
    30    30    31   ar
    31    31    32   ar
    32    32    33   ar
    33    27    23   ar
    34    33    28   ar
    35     7     1    1
    36     6     4    1
    37    13     8   ar
@<TRIPOS>MOLECULE
*****
 33 37 0 0 0
SMALL
GASTEIGER

@<TRIPOS>ATOM
      1 N           5.7616    0.7713   25.6350 N.3     1  UNL1       -0.2726
      2 C           4.7633    1.6469   26.3327 C.3     1  UNL1        0.0721
      3 C           3.4246    1.4237   25.6940 C.3     1  UNL1        0.0190
      4 C           3.5955    0.4101   24.6015 C.3     1  UNL1        0.0201
      5 C           2.1582    0.3982   24.1725 C.3     1  UNL1        0.0061
      6 C           3.1564   -0.4774   23.4748 C.3     1  UNL1        0.0237
      7 C           5.0398    0.0069   24.5651 C.3     1  UNL1        0.0724
      8 C           3.4793   -1.4953   22.4214 C.ar    1  UNL1       -0.0225
      9 C           4.2298   -2.7414   22.7876 C.ar    1  UNL1       -0.0043
     10 C           4.5527   -3.7593   21.7342 C.ar    1  UNL1        0.0035
     11 C           4.1251   -3.5312   20.3147 C.ar    1  UNL1        0.0714
     12 C           3.3745   -2.2851   19.9485 C.ar    1  UNL1        0.0035
     13 C           3.0517   -1.2672   21.0019 C.ar    1  UNL1       -0.0043
     14 C           4.4479   -4.5491   19.2614 C.3     1  UNL1        0.4186
     15 F           4.7708   -5.5671   18.2079 F       1  UNL1       -0.1659
     16 F           5.8593   -4.6215   19.7640 F       1  UNL1       -0.1659
     17 F           3.0365   -4.4767   18.7587 F       1  UNL1       -0.1659
     18 C           7.2247    0.6767   25.9516 C.3     1  UNL1        0.0730
     19 C           7.8294   -0.6470   26.3149 C.3     1  UNL1        0.0294
     20 C           7.9225   -1.0595   27.7541 C.3     1  UNL1        0.0666
     21 S           6.8776   -1.9584   28.3458 S.3     1  UNL1       -0.0756
     22 C           5.6775    0.3106   30.3610 C.3     1  UNL1        0.1340
     23 N           4.8977   -0.4624   29.3391 N.ar    1  UNL1       -0.2872
     24 C           5.4493   -1.5053   28.4128 C.ar    1  UNL1        0.1933
     25 N           4.3218   -2.0156   27.5653 N.ar    1  UNL1       -0.1221
     26 N           3.0733   -1.2881   27.9678 N.ar    1  UNL1       -0.1266
     27 C           3.4291   -0.3281   29.0641 C.ar    1  UNL1        0.1862
     28 C           2.4827    0.6027   29.7626 C.ar    1  UNL1        0.1362
     29 C           2.3793    0.5832   31.2589 C.ar    1  UNL1        0.1211
     30 N           1.4329    1.5140   31.9575 N.ar    1  UNL1       -0.2390
     31 C           0.5900    2.4643   31.1596 C.ar    1  UNL1        0.1195
     32 C           0.6934    2.4837   29.6633 C.ar    1  UNL1        0.1196
     33 N           1.6398    1.5529   28.9648 N.ar    1  UNL1       -0.2375
@<TRIPOS>BOND
     1    22    23    1
     2    23    24   ar
     3    24    21    1
     4    21    20    1
     5    20    19    1
     6    19    18    1
     7    18     1    1
     8     1     2    1
     9     2     3    1
    10     4     3    1
    11     4     5    1
    12     5     6    1
    13     6     8    1
    14     8     9   ar
    15     9    10   ar
    16    10    11   ar
    17    11    14    1
    18    14    15    1
    19    14    16    1
    20    14    17    1
    21    11    12   ar
    22    12    13   ar
    23     4     7    1
    24    24    25   ar
    25    25    26   ar
    26    26    27   ar
    27    27    28    1
    28    28    29   ar
    29    29    30   ar
    30    30    31   ar
    31    31    32   ar
    32    32    33   ar
    33    27    23   ar
    34    33    28   ar
    35     7     1    1
    36     6     4    1
    37    13     8   ar
@<TRIPOS>MOLECULE
*****
 33 37 0 0 0
SMALL
GASTEIGER

@<TRIPOS>ATOM
      1 N           0.6250    2.8603   22.3804 N.3     1  UNL1       -0.2726
      2 C          -0.1645    3.9657   21.7443 C.3     1  UNL1        0.0721
      3 C          -0.1462    3.7531   20.2595 C.3     1  UNL1        0.0190
      4 C           0.6546    2.5164   19.9781 C.3     1  UNL1        0.0201
      5 C           0.4987    2.5645   18.4870 C.3     1  UNL1        0.0061
      6 C           1.2882    1.4591   19.1232 C.3     1  UNL1        0.0237
      7 C           1.1313    1.9646   21.2889 C.3     1  UNL1        0.0724
      8 C           2.1098    0.2105   18.9970 C.ar    1  UNL1       -0.0225
      9 C           3.0543    0.0477   17.8431 C.ar    1  UNL1       -0.0043
     10 C           3.8759   -1.2009   17.7168 C.ar    1  UNL1        0.0035
     11 C           3.7531   -2.2866   18.7445 C.ar    1  UNL1        0.0714
     12 C           2.8086   -2.1237   19.8984 C.ar    1  UNL1        0.0035
     13 C           1.9870   -0.8752   20.0246 C.ar    1  UNL1       -0.0043
     14 C           4.5747   -3.5352   18.6183 C.3     1  UNL1        0.4186
     15 F           5.3964   -4.7838   18.4920 F       1  UNL1       -0.1659
     16 F           3.4379   -4.3396   19.1756 F       1  UNL1       -0.1659
     17 F           5.7115   -2.7308   18.0610 F       1  UNL1       -0.1659
     18 C           0.8660    2.6818   23.8502 C.3     1  UNL1        0.0730
     19 C          -0.0597    1.8266   24.6636 C.3     1  UNL1        0.0294
     20 C          -1.1982    2.4547   25.4115 C.3     1  UNL1        0.0666
     21 S          -1.0778    2.7098   26.8847 S.3     1  UNL1       -0.0756
     22 C           2.0134    2.5460   27.9177 C.3     1  UNL1        0.1340
     23 N           0.9175    1.5803   28.2587 N.ar    1  UNL1       -0.2872
     24 C          -0.5034    1.6556   27.7839 C.ar    1  UNL1        0.1933
     25 N          -1.2490    0.4915   28.3662 N.ar    1  UNL1       -0.1221
     26 N          -0.2890   -0.3032   29.2008 N.ar    1  UNL1       -0.1266
     27 C           1.0501    0.3696   29.1345 C.ar    1  UNL1        0.1862
     28 C           2.3018   -0.0878   29.8229 C.ar    1  UNL1        0.1362
     29 C           3.4411   -0.6400   29.0186 C.ar    1  UNL1        0.1211
     30 N           4.6928   -1.0975   29.7071 N.ar    1  UNL1       -0.2390
     31 C           4.8051   -1.0026   31.1999 C.ar    1  UNL1        0.1195
     32 C           3.6658   -0.4504   32.0043 C.ar    1  UNL1        0.1196
     33 N           2.4141    0.0070   31.3157 N.ar    1  UNL1       -0.2375
@<TRIPOS>BOND
     1    22    23    1
     2    23    24   ar
     3    24    21    1
     4    21    20    1
     5    20    19    1
     6    19    18    1
     7    18     1    1
     8     1     2    1
     9     2     3    1
    10     4     3    1
    11     4     5    1
    12     5     6    1
    13     6     8    1
    14     8     9   ar
    15     9    10   ar
    16    10    11   ar
    17    11    14    1
    18    14    15    1
    19    14    16    1
    20    14    17    1
    21    11    12   ar
    22    12    13   ar
    23     4     7    1
    24    24    25   ar
    25    25    26   ar
    26    26    27   ar
    27    27    28    1
    28    28    29   ar
    29    29    30   ar
    30    30    31   ar
    31    31    32   ar
    32    32    33   ar
    33    27    23   ar
    34    33    28   ar
    35     7     1    1
    36     6     4    1
    37    13     8   ar
