@<TRIPOS>MOLECULE
*****
 31 35 0 0 0
SMALL
GASTEIGER

@<TRIPOS>ATOM
      1 C           6.7949   -4.0491   23.0293 C.ar    1  UNL1        0.1385
      2 C           6.4353   -2.6365   23.3831 C.ar    1  UNL1        0.0384
      3 C           6.3058   -2.2335   24.8221 C.ar    1  UNL1        0.0203
      4 C           6.5360   -3.2432   25.9073 C.ar    1  UNL1        0.0602
      5 C           6.8956   -4.6557   25.5535 C.ar    1  UNL1        0.0204
      6 C           7.0251   -5.0587   24.1145 C.ar    1  UNL1        0.0384
      7 C           7.0620   -5.4253   26.8303 C.ar    1  UNL1        0.0234
      8 C           6.8053   -4.4883   27.9731 C.ar    1  UNL1        0.1143
      9 N           6.4801   -3.1397   27.4028 N.ar    1  UNL1       -0.3219
     10 C           6.1752   -1.9917   28.3187 C.3     1  UNL1        0.1276
     11 C           6.1955   -2.1923   29.8051 C.3     1  UNL1        0.1185
     12 N           6.5206   -3.5410   30.3755 N.am    1  UNL1       -0.2688
     13 C           6.8255   -4.6890   29.4595 C.2     1  UNL1        0.2652
     14 O           7.1506   -6.0378   30.0299 O.2     1  UNL1       -0.2683
     15 O           6.9244   -4.4522   21.5902 O.3     1  UNL1       -0.4791
     16 N           5.5939   -1.6411   18.3379 N.3     1  UNL1       -0.2737
     17 C           4.6114   -2.5907   18.9568 C.3     1  UNL1        0.0758
     18 C           5.0549   -3.5277   20.0409 C.3     1  UNL1        0.0609
     19 C           6.4809   -3.5152   20.5061 C.3     1  UNL1        0.1687
     20 C           7.4634   -2.5656   19.8872 C.3     1  UNL1        0.0609
     21 C           7.0199   -1.6286   18.8031 C.3     1  UNL1        0.0758
     22 C           6.1004    0.3251   16.7170 C.3     1  UNL1        0.0173
     23 C           5.1504   -0.7042   17.2538 C.3     1  UNL1        0.0576
     24 C           3.7568   -0.7964   16.7064 C.3     1  UNL1        0.0173
     25 C           6.5408   -3.7417   31.8619 C.3     1  UNL1        0.1206
     26 C           6.1215   -2.6278   32.7749 C.ar    1  UNL1        0.0008
     27 C           4.7032   -2.5462   33.2563 C.ar    1  UNL1        0.0181
     28 C           4.2839   -1.4323   34.1692 C.ar    1  UNL1        0.0986
     29 N           5.2829   -0.4000   34.6007 N.ar    1  UNL1       -0.2423
     30 C           6.7012   -0.4816   34.1193 C.ar    1  UNL1        0.0986
     31 C           7.1205   -1.5955   33.2063 C.ar    1  UNL1        0.0181
@<TRIPOS>BOND
     1    22    23    1
     2    23    24    1
     3    23    16    1
     4    16    17    1
     5    17    18    1
     6    18    19    1
     7    19    15    1
     8    15     1    1
     9     1     2   ar
    10     2     3   ar
    11     3     4   ar
    12     4     5   ar
    13     5     6   ar
    14     5     7   ar
    15     7     8   ar
    16     8     9   ar
    17     9    10    1
    18    10    11    1
    19    11    12    1
    20    12    25    1
    21    25    26    1
    22    26    27   ar
    23    27    28   ar
    24    28    29   ar
    25    29    30   ar
    26    30    31   ar
    27    12    13   am
    28    13    14    2
    29    19    20    1
    30    20    21    1
    31    21    16    1
    32     6     1   ar
    33    13     8    1
    34     9     4   ar
    35    31    26   ar
@<TRIPOS>MOLECULE
*****
 31 35 0 0 0
SMALL
GASTEIGER

@<TRIPOS>ATOM
      1 C           6.5362   -3.5679   30.0397 C.ar    1  UNL1        0.1385
      2 C           6.1290   -2.2124   29.5430 C.ar    1  UNL1        0.0384
      3 C           6.1113   -1.9275   28.0705 C.ar    1  UNL1        0.0203
      4 C           6.5008   -2.9980   27.0946 C.ar    1  UNL1        0.0602
      5 C           6.9079   -4.3535   27.5913 C.ar    1  UNL1        0.0204
      6 C           6.9256   -4.6385   29.0639 C.ar    1  UNL1        0.0384
      7 C           7.2379   -5.2037   26.4004 C.ar    1  UNL1        0.0234
      8 C           7.0346   -4.3737   25.1677 C.ar    1  UNL1        0.1143
      9 N           6.5791   -3.0104   25.5967 N.ar    1  UNL1       -0.3219
     10 C           6.2944   -1.9566   24.5680 C.3     1  UNL1        0.1276
     11 C           6.4653   -2.2659   23.1102 C.3     1  UNL1        0.1185
     12 N           6.9208   -3.6292   22.6812 N.am    1  UNL1       -0.2688
     13 C           7.2055   -4.6831   23.7100 C.2     1  UNL1        0.2652
     14 O           7.6611   -6.0463   23.2809 O.2     1  UNL1       -0.2683
     15 O           6.5539   -3.8530   31.5123 O.3     1  UNL1       -0.4791
     16 N           5.2596   -0.6839   34.4332 N.3     1  UNL1       -0.2737
     17 C           4.2856   -1.7322   33.9837 C.3     1  UNL1        0.0758
     18 C           4.7170   -2.7887   33.0100 C.3     1  UNL1        0.0609
     19 C           6.1225   -2.7966   32.4860 C.3     1  UNL1        0.1687
     20 C           7.0965   -1.7482   32.9356 C.3     1  UNL1        0.0609
     21 C           6.6651   -0.6918   33.9092 C.3     1  UNL1        0.0758
     22 C           5.1241    0.2111   36.8685 C.3     1  UNL1        0.0173
     23 C           4.8282    0.3725   35.4068 C.3     1  UNL1        0.0576
     24 C           4.1008    1.5902   34.9188 C.3     1  UNL1        0.0173
     25 C           7.0917   -3.9386   21.2234 C.3     1  UNL1        0.1206
     26 C           6.0970   -3.4234   20.2257 C.ar    1  UNL1        0.0008
     27 C           4.6802   -3.9148   20.2570 C.ar    1  UNL1        0.0181
     28 C           3.6855   -3.3996   19.2594 C.ar    1  UNL1        0.0986
     29 N           4.1077   -2.3932   18.2305 N.ar    1  UNL1       -0.2423
     30 C           5.5246   -1.9019   18.1992 C.ar    1  UNL1        0.0986
     31 C           6.5193   -2.4170   19.1968 C.ar    1  UNL1        0.0181
@<TRIPOS>BOND
     1    22    23    1
     2    23    24    1
     3    23    16    1
     4    16    17    1
     5    17    18    1
     6    18    19    1
     7    19    15    1
     8    15     1    1
     9     1     2   ar
    10     2     3   ar
    11     3     4   ar
    12     4     5   ar
    13     5     6   ar
    14     5     7   ar
    15     7     8   ar
    16     8     9   ar
    17     9    10    1
    18    10    11    1
    19    11    12    1
    20    12    25    1
    21    25    26    1
    22    26    27   ar
    23    27    28   ar
    24    28    29   ar
    25    29    30   ar
    26    30    31   ar
    27    12    13   am
    28    13    14    2
    29    19    20    1
    30    20    21    1
    31    21    16    1
    32     6     1   ar
    33    13     8    1
    34     9     4   ar
    35    31    26   ar
@<TRIPOS>MOLECULE
*****
 31 35 0 0 0
SMALL
GASTEIGER

@<TRIPOS>ATOM
      1 C           7.4298   -4.6695   22.9908 C.ar    1  UNL1        0.1385
      2 C           8.0126   -5.9249   23.5688 C.ar    1  UNL1        0.0384
      3 C           8.0275   -6.1300   25.0546 C.ar    1  UNL1        0.0203
      4 C           7.4595   -5.0796   25.9624 C.ar    1  UNL1        0.0602
      5 C           6.8767   -3.8241   25.3844 C.ar    1  UNL1        0.0204
      6 C           6.8618   -3.6191   23.8986 C.ar    1  UNL1        0.0384
      7 C           6.3929   -2.9720   26.5201 C.ar    1  UNL1        0.0234
      8 C           6.6767   -3.7008   27.8001 C.ar    1  UNL1        0.1143
      9 N           7.3359   -5.0034   27.4554 N.ar    1  UNL1       -0.3219
     10 C           7.7385   -5.9517   28.5455 C.3     1  UNL1        0.1276
     11 C           7.4819   -5.5976   29.9804 C.3     1  UNL1        0.1185
     12 N           6.8227   -4.2951   30.3250 N.am    1  UNL1       -0.2688
     13 C           6.4201   -3.3467   29.2348 C.2     1  UNL1        0.2652
     14 O           5.7608   -2.0440   29.5795 O.2     1  UNL1       -0.2683
     15 O           7.4149   -4.4644   21.5049 O.3     1  UNL1       -0.4791
     16 N           4.3288   -1.7753   19.6355 N.3     1  UNL1       -0.2737
     17 C           3.9379   -3.1378   20.1260 C.3     1  UNL1        0.0758
     18 C           4.9666   -4.0343   20.7492 C.3     1  UNL1        0.0609
     19 C           6.3862   -3.5681   20.8818 C.3     1  UNL1        0.1687
     20 C           6.7770   -2.2054   20.3912 C.3     1  UNL1        0.0609
     21 C           5.7483   -1.3091   19.7681 C.3     1  UNL1        0.0758
     22 C           3.5446   -0.2859   17.6565 C.3     1  UNL1        0.0173
     23 C           3.3001   -0.8789   19.0124 C.3     1  UNL1        0.0576
     24 C           2.0268   -0.5756   19.7452 C.3     1  UNL1        0.0173
     25 C           6.5660   -3.9409   31.7599 C.3     1  UNL1        0.1206
     26 C           7.3026   -2.7981   32.3936 C.ar    1  UNL1        0.0008
     27 C           8.7992   -2.8311   32.4888 C.ar    1  UNL1        0.0181
     28 C           9.5358   -1.6884   33.1225 C.ar    1  UNL1        0.0986
     29 N           8.7758   -0.5128   33.6611 N.ar    1  UNL1       -0.2423
     30 C           7.2792   -0.4798   33.5659 C.ar    1  UNL1        0.0986
     31 C           6.5426   -1.6225   32.9322 C.ar    1  UNL1        0.0181
@<TRIPOS>BOND
     1    22    23    1
     2    23    24    1
     3    23    16    1
     4    16    17    1
     5    17    18    1
     6    18    19    1
     7    19    15    1
     8    15     1    1
     9     1     2   ar
    10     2     3   ar
    11     3     4   ar
    12     4     5   ar
    13     5     6   ar
    14     5     7   ar
    15     7     8   ar
    16     8     9   ar
    17     9    10    1
    18    10    11    1
    19    11    12    1
    20    12    25    1
    21    25    26    1
    22    26    27   ar
    23    27    28   ar
    24    28    29   ar
    25    29    30   ar
    26    30    31   ar
    27    12    13   am
    28    13    14    2
    29    19    20    1
    30    20    21    1
    31    21    16    1
    32     6     1   ar
    33    13     8    1
    34     9     4   ar
    35    31    26   ar
@<TRIPOS>MOLECULE
*****
 31 35 0 0 0
SMALL
GASTEIGER

@<TRIPOS>ATOM
      1 C           7.8532   -4.9077   24.2187 C.ar    1  UNL1        0.1385
      2 C           8.7930   -4.8130   23.0535 C.ar    1  UNL1        0.0384
      3 C           8.3412   -4.1695   21.7761 C.ar    1  UNL1        0.0203
      4 C           6.9497   -3.6208   21.6639 C.ar    1  UNL1        0.0602
      5 C           6.0100   -3.7155   22.8291 C.ar    1  UNL1        0.0204
      6 C           6.4617   -4.3590   24.1065 C.ar    1  UNL1        0.0384
      7 C           4.7075   -3.0902   22.4261 C.ar    1  UNL1        0.0234
      8 C           4.8422   -2.6090   21.0118 C.ar    1  UNL1        0.1143
      9 N           6.2280   -2.9369   20.5407 N.ar    1  UNL1       -0.3219
     10 C           6.6537   -2.5704   19.1499 C.3     1  UNL1        0.1276
     11 C           5.6936   -1.8760   18.2302 C.3     1  UNL1        0.1185
     12 N           4.3078   -1.5480   18.7013 N.am    1  UNL1       -0.2688
     13 C           3.8821   -1.9146   20.0922 C.2     1  UNL1        0.2652
     14 O           2.4962   -1.5866   20.5633 O.2     1  UNL1       -0.2683
     15 O           8.3049   -5.5512   25.4962 O.3     1  UNL1       -0.4791
     16 N           6.9718   -3.8750   29.4539 N.3     1  UNL1       -0.2737
     17 C           7.8339   -3.0522   28.5430 C.3     1  UNL1        0.0758
     18 C           8.2783   -3.6109   27.2238 C.3     1  UNL1        0.0609
     19 C           7.8606   -4.9925   26.8154 C.3     1  UNL1        0.1687
     20 C           6.9985   -5.8153   27.7264 C.3     1  UNL1        0.0609
     21 C           6.5541   -5.2566   29.0456 C.3     1  UNL1        0.0758
     22 C           6.7251   -4.1117   32.0294 C.3     1  UNL1        0.0173
     23 C           6.5275   -3.3163   30.7731 C.3     1  UNL1        0.0576
     24 C           5.8854   -1.9620   30.8361 C.3     1  UNL1        0.0173
     25 C           3.3476   -0.8536   17.7815 C.3     1  UNL1        0.1206
     26 C           2.8731    0.5332   18.1008 C.ar    1  UNL1        0.0008
     27 C           3.8649    1.6472   18.2595 C.ar    1  UNL1        0.0181
     28 C           3.3904    3.0340   18.5787 C.ar    1  UNL1        0.0986
     29 N           1.9242    3.3065   18.7392 N.ar    1  UNL1       -0.2423
     30 C           0.9325    2.1925   18.5805 C.ar    1  UNL1        0.0986
     31 C           1.4069    0.8057   18.2613 C.ar    1  UNL1        0.0181
@<TRIPOS>BOND
     1    22    23    1
     2    23    24    1
     3    23    16    1
     4    16    17    1
     5    17    18    1
     6    18    19    1
     7    19    15    1
     8    15     1    1
     9     1     2   ar
    10     2     3   ar
    11     3     4   ar
    12     4     5   ar
    13     5     6   ar
    14     5     7   ar
    15     7     8   ar
    16     8     9   ar
    17     9    10    1
    18    10    11    1
    19    11    12    1
    20    12    25    1
    21    25    26    1
    22    26    27   ar
    23    27    28   ar
    24    28    29   ar
    25    29    30   ar
    26    30    31   ar
    27    12    13   am
    28    13    14    2
    29    19    20    1
    30    20    21    1
    31    21    16    1
    32     6     1   ar
    33    13     8    1
    34     9     4   ar
    35    31    26   ar
@<TRIPOS>MOLECULE
*****
 31 35 0 0 0
SMALL
GASTEIGER

@<TRIPOS>ATOM
      1 C           0.6897    1.6762   27.8888 C.ar    1  UNL1        0.1385
      2 C          -0.5114    1.7612   26.9943 C.ar    1  UNL1        0.0384
      3 C          -0.3600    1.5652   25.5149 C.ar    1  UNL1        0.0203
      4 C           0.9923    1.2842   24.9301 C.ar    1  UNL1        0.0602
      5 C           2.1934    1.1992   25.8246 C.ar    1  UNL1        0.0204
      6 C           2.0421    1.3952   27.3039 C.ar    1  UNL1        0.0384
      7 C           3.3902    0.9110   24.9675 C.ar    1  UNL1        0.0234
      8 C           2.9288    0.8179   23.5432 C.ar    1  UNL1        0.1143
      9 N           1.4468    1.0485   23.5201 N.ar    1  UNL1       -0.3219
     10 C           0.7027    1.0141   22.2182 C.3     1  UNL1        0.1276
     11 C           1.4406    0.7491   20.9394 C.3     1  UNL1        0.1185
     12 N           2.9225    0.5185   20.9625 N.am    1  UNL1       -0.2688
     13 C           3.6667    0.5529   22.2645 C.2     1  UNL1        0.2652
     14 O           5.1487    0.3222   22.2876 O.2     1  UNL1       -0.2683
     15 O           0.5384    1.8722   29.3683 O.3     1  UNL1       -0.4791
     16 N           3.2529   -0.3116   32.2165 N.3     1  UNL1       -0.2737
     17 C           2.7585    1.0631   32.5568 C.3     1  UNL1        0.0758
     18 C           1.8536    1.7911   31.6074 C.3     1  UNL1        0.0609
     19 C           1.4432    1.1443   30.3177 C.3     1  UNL1        0.1687
     20 C           1.9377   -0.2304   29.9774 C.3     1  UNL1        0.0609
     21 C           2.8425   -0.9583   30.9268 C.3     1  UNL1        0.0758
     22 C           4.6796   -0.3429   34.3875 C.3     1  UNL1        0.0173
     23 C           4.1577   -1.0395   33.1659 C.3     1  UNL1        0.0576
     24 C           4.5407   -2.4641   32.8937 C.3     1  UNL1        0.0173
     25 C           3.6604    0.2535   19.6837 C.3     1  UNL1        0.1206
     26 C           4.0650   -1.1464   19.3275 C.ar    1  UNL1        0.0008
     27 C           5.3403   -1.3904   18.5765 C.ar    1  UNL1        0.0181
     28 C           5.7449   -2.7902   18.2204 C.ar    1  UNL1        0.0986
     29 N           4.8742   -3.9459   18.6152 N.ar    1  UNL1       -0.2423
     30 C           3.5989   -3.7019   19.3662 C.ar    1  UNL1        0.0986
     31 C           3.1943   -2.3021   19.7224 C.ar    1  UNL1        0.0181
@<TRIPOS>BOND
     1    22    23    1
     2    23    24    1
     3    23    16    1
     4    16    17    1
     5    17    18    1
     6    18    19    1
     7    19    15    1
     8    15     1    1
     9     1     2   ar
    10     2     3   ar
    11     3     4   ar
    12     4     5   ar
    13     5     6   ar
    14     5     7   ar
    15     7     8   ar
    16     8     9   ar
    17     9    10    1
    18    10    11    1
    19    11    12    1
    20    12    25    1
    21    25    26    1
    22    26    27   ar
    23    27    28   ar
    24    28    29   ar
    25    29    30   ar
    26    30    31   ar
    27    12    13   am
    28    13    14    2
    29    19    20    1
    30    20    21    1
    31    21    16    1
    32     6     1   ar
    33    13     8    1
    34     9     4   ar
    35    31    26   ar
@<TRIPOS>MOLECULE
*****
 31 35 0 0 0
SMALL
GASTEIGER

@<TRIPOS>ATOM
      1 C           1.5807    1.5739   23.3089 C.ar    1  UNL1        0.1385
      2 C           2.8139    2.3241   23.7166 C.ar    1  UNL1        0.0384
      3 C           3.0795    2.5988   25.1671 C.ar    1  UNL1        0.0203
      4 C           2.1118    2.1233   26.2099 C.ar    1  UNL1        0.0602
      5 C           0.8785    1.3731   25.8023 C.ar    1  UNL1        0.0204
      6 C           0.6130    1.0984   24.3518 C.ar    1  UNL1        0.0384
      7 C           0.1120    1.0310   27.0454 C.ar    1  UNL1        0.0234
      8 C           0.8714    1.5698   28.2213 C.ar    1  UNL1        0.1143
      9 N           2.1074    2.2449   27.7050 N.ar    1  UNL1       -0.3219
     10 C           3.0691    2.8831   28.6629 C.3     1  UNL1        0.1276
     11 C           2.7949    2.8462   30.1372 C.3     1  UNL1        0.1185
     12 N           1.5590    2.1711   30.6535 N.am    1  UNL1       -0.2688
     13 C           0.5972    1.5329   29.6955 C.2     1  UNL1        0.2652
     14 O          -0.6389    0.8578   30.2119 O.2     1  UNL1       -0.2683
     15 O           1.3150    1.2991   21.8584 O.3     1  UNL1       -0.4791
     16 N           3.6450   -1.8954   19.7099 N.3     1  UNL1       -0.2737
     17 C           3.5653   -1.9045   21.2078 C.3     1  UNL1        0.0758
     18 C           2.7886   -0.8396   21.9240 C.3     1  UNL1        0.0609
     19 C           2.0917    0.2343   21.1423 C.3     1  UNL1        0.1687
     20 C           2.1715    0.2433   19.6444 C.3     1  UNL1        0.0609
     21 C           2.9481   -0.8215   18.9282 C.3     1  UNL1        0.0758
     22 C           5.6540   -2.5972   18.2195 C.3     1  UNL1        0.0173
     23 C           4.4217   -2.9603   18.9938 C.3     1  UNL1        0.0576
     24 C           3.9660   -4.3883   19.0520 C.3     1  UNL1        0.0173
     25 C           1.2847    2.1342   32.1278 C.3     1  UNL1        0.1206
     26 C           0.9709    3.4028   32.8643 C.ar    1  UNL1        0.0008
     27 C           1.7287    3.7537   34.1103 C.ar    1  UNL1        0.0181
     28 C           1.4148    5.0223   34.8467 C.ar    1  UNL1        0.0986
     29 N           0.3433    5.9398   34.3371 N.ar    1  UNL1       -0.2423
     30 C          -0.4145    5.5888   33.0911 C.ar    1  UNL1        0.0986
     31 C          -0.1007    4.3203   32.3547 C.ar    1  UNL1        0.0181
@<TRIPOS>BOND
     1    22    23    1
     2    23    24    1
     3    23    16    1
     4    16    17    1
     5    17    18    1
     6    18    19    1
     7    19    15    1
     8    15     1    1
     9     1     2   ar
    10     2     3   ar
    11     3     4   ar
    12     4     5   ar
    13     5     6   ar
    14     5     7   ar
    15     7     8   ar
    16     8     9   ar
    17     9    10    1
    18    10    11    1
    19    11    12    1
    20    12    25    1
    21    25    26    1
    22    26    27   ar
    23    27    28   ar
    24    28    29   ar
    25    29    30   ar
    26    30    31   ar
    27    12    13   am
    28    13    14    2
    29    19    20    1
    30    20    21    1
    31    21    16    1
    32     6     1   ar
    33    13     8    1
    34     9     4   ar
    35    31    26   ar
@<TRIPOS>MOLECULE
*****
 31 35 0 0 0
SMALL
GASTEIGER

@<TRIPOS>ATOM
      1 C           1.5252    1.5221   23.2462 C.ar    1  UNL1        0.1385
      2 C           2.7213    2.3413   23.6309 C.ar    1  UNL1        0.0384
      3 C           2.9744    2.6677   25.0729 C.ar    1  UNL1        0.0203
      4 C           2.0312    2.1750   26.1301 C.ar    1  UNL1        0.0602
      5 C           0.8351    1.3558   25.7454 C.ar    1  UNL1        0.0204
      6 C           0.5821    1.0293   24.3034 C.ar    1  UNL1        0.0384
      7 C           0.0866    1.0113   26.9988 C.ar    1  UNL1        0.0234
      8 C           0.8201    1.6176   28.1582 C.ar    1  UNL1        0.1143
      9 N           2.0220    2.3368   27.6214 N.ar    1  UNL1       -0.3219
     10 C           2.9527    3.0462   28.5598 C.3     1  UNL1        0.1276
     11 C           2.6815    3.0363   30.0350 C.3     1  UNL1        0.1185
     12 N           1.4796    2.3171   30.5718 N.am    1  UNL1       -0.2688
     13 C           0.5489    1.6078   29.6334 C.2     1  UNL1        0.2652
     14 O          -0.6530    0.8885   30.1703 O.2     1  UNL1       -0.2683
     15 O           1.2721    1.1956   21.8041 O.3     1  UNL1       -0.4791
     16 N           3.6698   -2.0249   19.7720 N.3     1  UNL1       -0.2737
     17 C           2.9108   -1.0244   18.9517 C.3     1  UNL1        0.0758
     18 C           2.1115    0.0491   19.6291 C.3     1  UNL1        0.0609
     19 C           2.0713    0.1221   21.1267 C.3     1  UNL1        0.1687
     20 C           2.8304   -0.8784   21.9470 C.3     1  UNL1        0.0609
     21 C           3.6296   -1.9519   21.2697 C.3     1  UNL1        0.0758
     22 C           4.0655   -4.5361   19.2361 C.3     1  UNL1        0.0173
     23 C           4.4690   -3.0983   19.0946 C.3     1  UNL1        0.0576
     24 C           5.6718   -2.7341   18.2756 C.3     1  UNL1        0.0173
     25 C           1.2084    2.3073   32.0472 C.3     1  UNL1        0.1206
     26 C           2.2292    1.7484   32.9936 C.ar    1  UNL1        0.0008
     27 C           2.3971    2.3511   34.3569 C.ar    1  UNL1        0.0181
     28 C           3.4179    1.7923   35.3034 C.ar    1  UNL1        0.0986
     29 N           4.2706    0.6309   34.8866 N.ar    1  UNL1       -0.2423
     30 C           4.1026    0.0282   33.5233 C.ar    1  UNL1        0.0986
     31 C           3.0819    0.5870   32.5768 C.ar    1  UNL1        0.0181
@<TRIPOS>BOND
     1    22    23    1
     2    23    24    1
     3    23    16    1
     4    16    17    1
     5    17    18    1
     6    18    19    1
     7    19    15    1
     8    15     1    1
     9     1     2   ar
    10     2     3   ar
    11     3     4   ar
    12     4     5   ar
    13     5     6   ar
    14     5     7   ar
    15     7     8   ar
    16     8     9   ar
    17     9    10    1
    18    10    11    1
    19    11    12    1
    20    12    25    1
    21    25    26    1
    22    26    27   ar
    23    27    28   ar
    24    28    29   ar
    25    29    30   ar
    26    30    31   ar
    27    12    13   am
    28    13    14    2
    29    19    20    1
    30    20    21    1
    31    21    16    1
    32     6     1   ar
    33    13     8    1
    34     9     4   ar
    35    31    26   ar
@<TRIPOS>MOLECULE
*****
 31 35 0 0 0
SMALL
GASTEIGER

@<TRIPOS>ATOM
      1 C           7.3345   -2.8776   25.6735 C.ar    1  UNL1        0.1385
      2 C           6.6812   -1.5275   25.6877 C.ar    1  UNL1        0.0384
      3 C           6.1035   -0.9873   26.9622 C.ar    1  UNL1        0.0203
      4 C           6.1792   -1.7972   28.2225 C.ar    1  UNL1        0.0602
      5 C           6.8325   -3.1473   28.2083 C.ar    1  UNL1        0.0204
      6 C           7.4102   -3.6875   26.9338 C.ar    1  UNL1        0.0384
      7 C           6.7587   -3.7126   29.5957 C.ar    1  UNL1        0.0234
      8 C           6.0598   -2.7118   30.4675 C.ar    1  UNL1        0.1143
      9 N           5.7015   -1.5280   29.6188 N.ar    1  UNL1       -0.3219
     10 C           4.9868   -0.3580   30.2270 C.3     1  UNL1        0.1276
     11 C           4.6302   -0.3716   31.6839 C.3     1  UNL1        0.1185
     12 N           4.9885   -1.5554   32.5326 N.am    1  UNL1       -0.2688
     13 C           5.7032   -2.7256   31.9244 C.2     1  UNL1        0.2652
     14 O           6.0615   -3.9094   32.7731 O.2     1  UNL1       -0.2683
     15 O           7.9123   -3.4179   24.3990 O.3     1  UNL1       -0.4791
     16 N           5.2795   -3.9701   20.7916 N.3     1  UNL1       -0.2737
     17 C           6.7703   -3.9268   20.6324 C.3     1  UNL1        0.0758
     18 C           7.6480   -3.7428   21.8349 C.3     1  UNL1        0.0609
     19 C           7.0347   -3.6020   23.1965 C.3     1  UNL1        0.1687
     20 C           5.5437   -3.6453   23.3557 C.3     1  UNL1        0.0609
     21 C           4.6662   -3.8294   22.1532 C.3     1  UNL1        0.0758
     22 C           4.5918   -5.3452   18.6972 C.3     1  UNL1        0.0173
     23 C           4.4019   -4.1542   19.5891 C.3     1  UNL1        0.0576
     24 C           3.3343   -3.1472   19.2785 C.3     1  UNL1        0.0173
     25 C           4.6319   -1.5692   33.9896 C.3     1  UNL1        0.1206
     26 C           5.3657   -0.6805   34.9497 C.ar    1  UNL1        0.0008
     27 C           4.6816   -0.1916   36.1919 C.ar    1  UNL1        0.0181
     28 C           5.4154    0.6971   37.1520 C.ar    1  UNL1        0.0986
     29 N           6.8332    1.0969   36.8699 N.ar    1  UNL1       -0.2423
     30 C           7.5174    0.6080   35.6277 C.ar    1  UNL1        0.0986
     31 C           6.7836   -0.2807   34.6676 C.ar    1  UNL1        0.0181
@<TRIPOS>BOND
     1    22    23    1
     2    23    24    1
     3    23    16    1
     4    16    17    1
     5    17    18    1
     6    18    19    1
     7    19    15    1
     8    15     1    1
     9     1     2   ar
    10     2     3   ar
    11     3     4   ar
    12     4     5   ar
    13     5     6   ar
    14     5     7   ar
    15     7     8   ar
    16     8     9   ar
    17     9    10    1
    18    10    11    1
    19    11    12    1
    20    12    25    1
    21    25    26    1
    22    26    27   ar
    23    27    28   ar
    24    28    29   ar
    25    29    30   ar
    26    30    31   ar
    27    12    13   am
    28    13    14    2
    29    19    20    1
    30    20    21    1
    31    21    16    1
    32     6     1   ar
    33    13     8    1
    34     9     4   ar
    35    31    26   ar
@<TRIPOS>MOLECULE
*****
 31 35 0 0 0
SMALL
GASTEIGER

@<TRIPOS>ATOM
      1 C           0.9695    2.1000   27.8684 C.ar    1  UNL1        0.1385
      2 C           2.1710    2.9606   27.6124 C.ar    1  UNL1        0.0384
      3 C           2.6422    3.1918   26.2072 C.ar    1  UNL1        0.0203
      4 C           1.9118    2.5624   25.0581 C.ar    1  UNL1        0.0602
      5 C           0.7102    1.7019   25.3142 C.ar    1  UNL1        0.0204
      6 C           0.2390    1.4707   26.7193 C.ar    1  UNL1        0.0384
      7 C           0.1966    1.2174   23.9908 C.ar    1  UNL1        0.0234
      8 C           1.0807    1.7785   22.9168 C.ar    1  UNL1        0.1143
      9 N           2.1408    2.6098   23.5764 N.ar    1  UNL1       -0.3219
     10 C           3.1776    3.3025   22.7427 C.3     1  UNL1        0.1276
     11 C           3.1544    3.1638   21.2493 C.3     1  UNL1        0.1185
     12 N           2.0943    2.3325   20.5897 N.am    1  UNL1       -0.2688
     13 C           1.0575    1.6399   21.4234 C.2     1  UNL1        0.2652
     14 O          -0.0027    0.8085   20.7637 O.2     1  UNL1       -0.2683
     15 O           0.4982    1.8688   29.2736 O.3     1  UNL1       -0.4791
     16 N           3.1713   -0.2238   32.2276 N.3     1  UNL1       -0.2737
     17 C           2.8686   -0.8642   30.9054 C.3     1  UNL1        0.0758
     18 C           1.9775   -0.1667   29.9207 C.3     1  UNL1        0.0609
     19 C           1.3892    1.1713   30.2583 C.3     1  UNL1        0.1687
     20 C           1.6920    1.8117   31.5805 C.3     1  UNL1        0.0609
     21 C           2.5830    1.1142   32.5651 C.3     1  UNL1        0.0758
     22 C           4.4290   -2.3607   33.0033 C.3     1  UNL1        0.0173
     23 C           4.0623   -0.9213   33.2122 C.3     1  UNL1        0.0576
     24 C           4.5867   -0.1794   34.4058 C.3     1  UNL1        0.0173
     25 C           2.0711    2.1939   19.0962 C.3     1  UNL1        0.1206
     26 C           3.1047    1.3552   18.4047 C.ar    1  UNL1        0.0008
     27 C           4.4889    1.8933   18.1940 C.ar    1  UNL1        0.0181
     28 C           5.5225    1.0546   17.5025 C.ar    1  UNL1        0.0986
     29 N           5.1719   -0.3222   17.0217 N.ar    1  UNL1       -0.2423
     30 C           3.7877   -0.8604   17.2323 C.ar    1  UNL1        0.0986
     31 C           2.7541   -0.0217   17.9238 C.ar    1  UNL1        0.0181
@<TRIPOS>BOND
     1    22    23    1
     2    23    24    1
     3    23    16    1
     4    16    17    1
     5    17    18    1
     6    18    19    1
     7    19    15    1
     8    15     1    1
     9     1     2   ar
    10     2     3   ar
    11     3     4   ar
    12     4     5   ar
    13     5     6   ar
    14     5     7   ar
    15     7     8   ar
    16     8     9   ar
    17     9    10    1
    18    10    11    1
    19    11    12    1
    20    12    25    1
    21    25    26    1
    22    26    27   ar
    23    27    28   ar
    24    28    29   ar
    25    29    30   ar
    26    30    31   ar
    27    12    13   am
    28    13    14    2
    29    19    20    1
    30    20    21    1
    31    21    16    1
    32     6     1   ar
    33    13     8    1
    34     9     4   ar
    35    31    26   ar
