@<TRIPOS>MOLECULE
*****
 37 41 0 0 0
SMALL
GASTEIGER

@<TRIPOS>ATOM
      1 O           4.4456   -4.2531   22.1626 O.2     1  UNL1       -0.2683
      2 C           5.8289   -3.7317   21.9087 C.2     1  UNL1        0.2652
      3 C           6.7410   -3.6997   23.0992 C.ar    1  UNL1        0.1143
      4 C           6.3285   -4.1521   24.4686 C.ar    1  UNL1        0.0248
      5 C           7.4993   -3.9713   25.3886 C.ar    1  UNL1        0.0366
      6 C           8.6354   -3.4072   24.5879 C.ar    1  UNL1        0.0775
      7 N           8.1667   -3.2393   23.1729 N.ar    1  UNL1       -0.3224
      8 C           9.0325   -2.6974   22.0745 C.3     1  UNL1        0.1080
      9 C           8.6864   -2.4818   20.6309 C.3     1  UNL1        0.0460
     10 C           7.3891   -2.7551   19.9293 C.3     1  UNL1        0.0961
     11 N           6.1174   -3.3113   20.4980 N.am    1  UNL1       -0.2702
     12 C           7.5289   -4.2975   26.8524 C.ar    1  UNL1        0.0872
     13 C           7.5997   -5.7270   27.3011 C.ar    1  UNL1        0.0400
     14 C           7.6293   -6.0531   28.7649 C.ar    1  UNL1        0.1034
     15 N           7.5881   -4.9496   29.7801 N.ar    1  UNL1       -0.2123
     16 C           7.5173   -3.5200   29.3315 C.ar    1  UNL1        0.2168
     17 N           7.4877   -3.1940   27.8676 N.ar    1  UNL1       -0.2138
     18 N           7.4761   -2.4165   30.3466 N.pl3   1  UNL1       -0.3044
     19 H           8.2625   -1.8389   30.4781 H       1  UNL1        0.1496
     20 C           6.2367   -2.1930   31.1615 C.3     1  UNL1        0.0771
     21 C           5.7723   -3.0387   32.3100 C.3     1  UNL1        0.0517
     22 C           4.4927   -2.4529   32.8292 C.3     1  UNL1        0.1446
     23 O           3.6818   -2.9820   33.9748 O.3     1  UNL1       -0.3816
     24 C           4.1663   -1.2452   32.0016 C.3     1  UNL1        0.1892
     25 F           2.9718   -0.3545   32.1744 F       1  UNL1       -0.2346
     26 C           5.2443   -1.0845   30.9709 C.3     1  UNL1        0.0574
     27 H           2.9019   -2.4202   34.1056 H       1  UNL1        0.2105
     28 C           4.9842   -3.4679   19.5277 C.3     1  UNL1        0.1274
     29 C           4.1633   -2.2756   19.1346 C.ar    1  UNL1       -0.0018
     30 C           4.4021   -1.6026   17.8156 C.ar    1  UNL1       -0.0026
     31 C           3.5812   -0.4102   17.4224 C.ar    1  UNL1       -0.0003
     32 C           2.5215    0.1091   18.3485 C.ar    1  UNL1       -0.0000
     33 C           2.2828   -0.5640   19.6676 C.ar    1  UNL1       -0.0003
     34 C           3.1037   -1.7563   20.0606 C.ar    1  UNL1       -0.0026
     35 C           4.6720   -4.8167   18.9505 C.3     1  UNL1        0.1614
     36 O           3.8291   -5.7867   19.7242 O.3     1  UNL1       -0.3799
     37 H           4.3027   -6.0588   20.5258 H       1  UNL1        0.2105
@<TRIPOS>BOND
     1     1     2    2
     2     2     3    1
     3     3     4   ar
     4     4     5   ar
     5     5    12    1
     6    12    13   ar
     7    13    14   ar
     8    14    15   ar
     9    15    16   ar
    10    16    18    1
    11    20    18    1
    12    20    21    1
    13    21    22    1
    14    22    23    1
    15    22    24    1
    16    24    25    1
    17    24    26    1
    18    16    17   ar
    19     5     6   ar
    20     6     7   ar
    21     7     8    1
    22     8     9    1
    23     9    10    1
    24    10    11    1
    25    11    28    1
    26    28    35    1
    27    35    36    1
    28    28    29    1
    29    29    30   ar
    30    30    31   ar
    31    31    32   ar
    32    32    33   ar
    33    33    34   ar
    34    11     2   am
    35    34    29   ar
    36     7     3   ar
    37    17    12   ar
    38    26    20    1
    39    18    19    1
    40    23    27    1
    41    36    37    1
@<TRIPOS>MOLECULE
*****
 37 41 0 0 0
SMALL
GASTEIGER

@<TRIPOS>ATOM
      1 O           5.3214   -4.2674   21.1182 O.2     1  UNL1       -0.2683
      2 C           6.1656   -3.1156   21.5771 C.2     1  UNL1        0.2652
      3 C           6.9065   -3.3241   22.8646 C.ar    1  UNL1        0.1143
      4 C           6.8304   -4.5896   23.6662 C.ar    1  UNL1        0.0248
      5 C           7.6989   -4.4237   24.8779 C.ar    1  UNL1        0.0366
      6 C           8.3118   -3.0557   24.8251 C.ar    1  UNL1        0.0775
      7 N           7.8221   -2.3761   23.5808 N.ar    1  UNL1       -0.3224
      8 C           8.2230   -0.9855   23.1865 C.3     1  UNL1        0.1080
      9 C           7.8073   -0.1994   21.9784 C.3     1  UNL1        0.0460
     10 C           6.8880   -0.6099   20.8664 C.3     1  UNL1        0.0961
     11 N           6.1574   -1.9076   20.6878 N.am    1  UNL1       -0.2702
     12 C           7.9163   -5.4463   25.9535 C.ar    1  UNL1        0.0872
     13 C           7.5176   -6.8739   25.7229 C.ar    1  UNL1        0.0400
     14 C           7.7351   -7.8964   26.7986 C.ar    1  UNL1        0.1034
     15 N           8.3513   -7.4915   28.1049 N.ar    1  UNL1       -0.2123
     16 C           8.7500   -6.0640   28.3355 C.ar    1  UNL1        0.2168
     17 N           8.5325   -5.0415   27.2598 N.ar    1  UNL1       -0.2138
     18 N           9.3662   -5.6590   29.6417 N.pl3   1  UNL1       -0.3044
     19 H          10.2838   -5.9401   29.8613 H       1  UNL1        0.1496
     20 C           8.5842   -4.8258   30.6135 C.3     1  UNL1        0.0771
     21 C           7.1563   -5.0479   31.0157 C.3     1  UNL1        0.0517
     22 C           6.7824   -3.9836   32.0044 C.3     1  UNL1        0.1446
     23 O           5.4463   -3.8266   32.6678 O.3     1  UNL1       -0.3816
     24 C           7.9792   -3.1037   32.2132 C.3     1  UNL1        0.1892
     25 F           8.0500   -1.9125   33.1221 F       1  UNL1       -0.2346
     26 C           9.0928   -3.6243   31.3535 C.3     1  UNL1        0.0574
     27 H           5.4684   -3.0603   33.2620 H       1  UNL1        0.2105
     28 C           5.3060   -2.0113   19.4572 C.3     1  UNL1        0.1274
     29 C           3.9799   -1.3123   19.4017 C.ar    1  UNL1       -0.0018
     30 C           2.9828   -1.5069   20.5051 C.ar    1  UNL1       -0.0026
     31 C           1.6568   -0.8079   20.4497 C.ar    1  UNL1       -0.0003
     32 C           1.3279    0.0858   19.2906 C.ar    1  UNL1       -0.0000
     33 C           2.3252    0.2803   18.1871 C.ar    1  UNL1       -0.0003
     34 C           3.6511   -0.4187   18.2427 C.ar    1  UNL1       -0.0026
     35 C           5.7805   -2.8139   18.2822 C.3     1  UNL1        0.1614
     36 O           6.8524   -2.2690   17.3855 O.3     1  UNL1       -0.3799
     37 H           6.5188   -1.4847   16.9223 H       1  UNL1        0.2105
@<TRIPOS>BOND
     1     1     2    2
     2     2     3    1
     3     3     4   ar
     4     4     5   ar
     5     5    12    1
     6    12    13   ar
     7    13    14   ar
     8    14    15   ar
     9    15    16   ar
    10    16    18    1
    11    20    18    1
    12    20    21    1
    13    21    22    1
    14    22    23    1
    15    22    24    1
    16    24    25    1
    17    24    26    1
    18    16    17   ar
    19     5     6   ar
    20     6     7   ar
    21     7     8    1
    22     8     9    1
    23     9    10    1
    24    10    11    1
    25    11    28    1
    26    28    35    1
    27    35    36    1
    28    28    29    1
    29    29    30   ar
    30    30    31   ar
    31    31    32   ar
    32    32    33   ar
    33    33    34   ar
    34    11     2   am
    35    34    29   ar
    36     7     3   ar
    37    17    12   ar
    38    26    20    1
    39    18    19    1
    40    23    27    1
    41    36    37    1
@<TRIPOS>MOLECULE
*****
 37 41 0 0 0
SMALL
GASTEIGER

@<TRIPOS>ATOM
      1 O           1.9012   -1.3394   19.8440 O.2     1  UNL1       -0.2683
      2 C           2.7897   -0.1380   19.7138 C.2     1  UNL1        0.2652
      3 C           2.0896    1.1881   19.6745 C.ar    1  UNL1        0.1143
      4 C           0.5995    1.3386   19.7576 C.ar    1  UNL1        0.0248
      5 C           0.2767    2.8017   19.6862 C.ar    1  UNL1        0.0366
      6 C           1.5673    3.5555   19.5590 C.ar    1  UNL1        0.0775
      7 N           2.6877    2.5582   19.5518 N.ar    1  UNL1       -0.3224
      8 C           4.1336    2.9407   19.4381 C.3     1  UNL1        0.1080
      9 C           5.3386    2.0475   19.4191 C.3     1  UNL1        0.0460
     10 C           5.3952    0.5513   19.5090 C.3     1  UNL1        0.0961
     11 N           4.2609   -0.4213   19.6402 N.am    1  UNL1       -0.2702
     12 C          -1.0958    3.4051   19.7337 C.ar    1  UNL1        0.0872
     13 C          -1.3774    4.6863   19.0062 C.ar    1  UNL1        0.0400
     14 C          -2.7499    5.2896   19.0537 C.ar    1  UNL1        0.1034
     15 N          -3.8407    4.6119   19.8288 N.ar    1  UNL1       -0.2123
     16 C          -3.5591    3.3308   20.5564 C.ar    1  UNL1        0.2168
     17 N          -2.1866    2.7274   20.5088 N.ar    1  UNL1       -0.2138
     18 N          -4.6499    2.6531   21.3315 N.pl3   1  UNL1       -0.3044
     19 H          -5.0583    1.8264   20.9865 H       1  UNL1        0.1496
     20 C          -5.1184    3.2349   22.6322 C.3     1  UNL1        0.0771
     21 C          -4.4225    3.1105   23.9552 C.3     1  UNL1        0.0517
     22 C          -5.2390    3.8421   24.9790 C.3     1  UNL1        0.1446
     23 O          -4.9124    3.9739   26.4371 O.3     1  UNL1       -0.3816
     24 C          -6.4396    4.4186   24.2888 C.3     1  UNL1        0.1892
     25 F          -7.5242    5.2282   24.9354 F       1  UNL1       -0.2346
     26 C          -6.3649    4.0434   22.8383 C.3     1  UNL1        0.0574
     27 H          -5.6021    4.4952   26.8770 H       1  UNL1        0.2105
     28 C           4.6489   -1.8687   19.7065 C.3     1  UNL1        0.1274
     29 C           5.1016   -2.4650   21.0064 C.ar    1  UNL1       -0.0018
     30 C           6.3436   -3.3046   21.0542 C.ar    1  UNL1       -0.0026
     31 C           6.7963   -3.9009   22.3539 C.ar    1  UNL1       -0.0003
     32 C           6.0069   -3.6575   23.6061 C.ar    1  UNL1       -0.0000
     33 C           4.7648   -2.8179   23.5582 C.ar    1  UNL1       -0.0003
     34 C           4.3122   -2.2217   22.2584 C.ar    1  UNL1       -0.0026
     35 C           4.5843   -2.7199   18.4731 C.3     1  UNL1        0.1614
     36 O           4.4321   -2.0779   17.1260 O.3     1  UNL1       -0.3799
     37 H           3.5659   -1.6450   17.0701 H       1  UNL1        0.2105
@<TRIPOS>BOND
     1     1     2    2
     2     2     3    1
     3     3     4   ar
     4     4     5   ar
     5     5    12    1
     6    12    13   ar
     7    13    14   ar
     8    14    15   ar
     9    15    16   ar
    10    16    18    1
    11    20    18    1
    12    20    21    1
    13    21    22    1
    14    22    23    1
    15    22    24    1
    16    24    25    1
    17    24    26    1
    18    16    17   ar
    19     5     6   ar
    20     6     7   ar
    21     7     8    1
    22     8     9    1
    23     9    10    1
    24    10    11    1
    25    11    28    1
    26    28    35    1
    27    35    36    1
    28    28    29    1
    29    29    30   ar
    30    30    31   ar
    31    31    32   ar
    32    32    33   ar
    33    33    34   ar
    34    11     2   am
    35    34    29   ar
    36     7     3   ar
    37    17    12   ar
    38    26    20    1
    39    18    19    1
    40    23    27    1
    41    36    37    1
@<TRIPOS>MOLECULE
*****
 37 41 0 0 0
SMALL
GASTEIGER

@<TRIPOS>ATOM
      1 O           3.7225   -2.2275   21.9067 O.2     1  UNL1       -0.2683
      2 C           3.4629   -1.4744   20.6358 C.2     1  UNL1        0.2652
      3 C           2.6199   -0.2410   20.7707 C.ar    1  UNL1        0.1143
      4 C           2.0571    0.2364   22.0766 C.ar    1  UNL1        0.0248
      5 C           1.2758    1.4896   21.8141 C.ar    1  UNL1        0.0366
      6 C           1.3557    1.7868   20.3460 C.ar    1  UNL1        0.0775
      7 N           2.1864    0.7171   19.7011 N.ar    1  UNL1       -0.3224
      8 C           2.4888    0.6787   18.2325 C.3     1  UNL1        0.1080
      9 C           3.2995   -0.3275   17.4706 C.3     1  UNL1        0.0460
     10 C           4.0079   -1.5437   17.9893 C.3     1  UNL1        0.0961
     11 N           4.0807   -2.0542   19.3978 N.am    1  UNL1       -0.2702
     12 C           0.5433    2.3030   22.8397 C.ar    1  UNL1        0.0872
     13 C          -0.6522    3.1154   22.4385 C.ar    1  UNL1        0.0400
     14 C          -1.3847    3.9287   23.4641 C.ar    1  UNL1        0.1034
     15 N          -0.9218    3.9297   24.8909 N.ar    1  UNL1       -0.2123
     16 C           0.2736    3.1173   25.2921 C.ar    1  UNL1        0.2168
     17 N           1.0061    2.3040   24.2665 N.ar    1  UNL1       -0.2138
     18 N           0.7365    3.1183   26.7189 N.pl3   1  UNL1       -0.3044
     19 H           1.1826    3.9131   27.0912 H       1  UNL1        0.1496
     20 C           0.5198    1.9082   27.5784 C.3     1  UNL1        0.0771
     21 C           1.5188    1.3067   28.5219 C.3     1  UNL1        0.0517
     22 C           0.8825    0.1139   29.1720 C.3     1  UNL1        0.1446
     23 O           1.5255   -0.7854   30.1858 O.3     1  UNL1       -0.3816
     24 C          -0.5096   -0.0218   28.6302 C.3     1  UNL1        0.1892
     25 F          -1.5032   -1.0805   29.0071 F       1  UNL1       -0.2346
     26 C          -0.7338    1.0873   27.6453 C.3     1  UNL1        0.0574
     27 H           0.8998   -1.4797   30.4451 H       1  UNL1        0.2105
     28 C           4.8763   -3.3104   19.5947 C.3     1  UNL1        0.1274
     29 C           6.3562   -3.2322   19.8267 C.ar    1  UNL1       -0.0018
     30 C           6.9697   -3.9367   21.0002 C.ar    1  UNL1       -0.0026
     31 C           8.4495   -3.8585   21.2322 C.ar    1  UNL1       -0.0003
     32 C           9.3160   -3.0757   20.2906 C.ar    1  UNL1       -0.0000
     33 C           8.7025   -2.3711   19.1171 C.ar    1  UNL1       -0.0003
     34 C           7.2227   -2.4494   18.8851 C.ar    1  UNL1       -0.0026
     35 C           4.1922   -4.6448   19.5595 C.3     1  UNL1        0.1614
     36 O           4.8621   -5.8139   18.9005 O.3     1  UNL1       -0.3799
     37 H           4.9410   -5.6468   17.9483 H       1  UNL1        0.2105
@<TRIPOS>BOND
     1     1     2    2
     2     2     3    1
     3     3     4   ar
     4     4     5   ar
     5     5    12    1
     6    12    13   ar
     7    13    14   ar
     8    14    15   ar
     9    15    16   ar
    10    16    18    1
    11    20    18    1
    12    20    21    1
    13    21    22    1
    14    22    23    1
    15    22    24    1
    16    24    25    1
    17    24    26    1
    18    16    17   ar
    19     5     6   ar
    20     6     7   ar
    21     7     8    1
    22     8     9    1
    23     9    10    1
    24    10    11    1
    25    11    28    1
    26    28    35    1
    27    35    36    1
    28    28    29    1
    29    29    30   ar
    30    30    31   ar
    31    31    32   ar
    32    32    33   ar
    33    33    34   ar
    34    11     2   am
    35    34    29   ar
    36     7     3   ar
    37    17    12   ar
    38    26    20    1
    39    18    19    1
    40    23    27    1
    41    36    37    1
@<TRIPOS>MOLECULE
*****
 37 41 0 0 0
SMALL
GASTEIGER

@<TRIPOS>ATOM
      1 O           6.1899   -4.3980   21.6966 O.2     1  UNL1       -0.2683
      2 C           5.4052   -3.3510   22.4301 C.2     1  UNL1        0.2652
      3 C           5.7245   -3.2007   23.8880 C.ar    1  UNL1        0.1143
      4 C           6.7556   -4.0273   24.5976 C.ar    1  UNL1        0.0248
      5 C           6.7907   -3.5924   26.0328 C.ar    1  UNL1        0.0366
      6 C           5.7814   -2.4971   26.2101 C.ar    1  UNL1        0.0775
      7 N           5.1224   -2.2549   24.8846 N.ar    1  UNL1       -0.3224
      8 C           4.0524   -1.2261   24.6694 C.3     1  UNL1        0.1080
      9 C           3.3201   -0.8887   23.4045 C.3     1  UNL1        0.0460
     10 C           3.4771   -1.4969   22.0423 C.3     1  UNL1        0.0961
     11 N           4.4050   -2.5928   21.6087 N.am    1  UNL1       -0.2702
     12 C           7.6792   -4.1543   27.1028 C.ar    1  UNL1        0.0872
     13 C           8.6041   -5.2926   26.7885 C.ar    1  UNL1        0.0400
     14 C           9.4926   -5.8544   27.8585 C.ar    1  UNL1        0.1034
     15 N           9.4562   -5.2780   29.2429 N.ar    1  UNL1       -0.2123
     16 C           8.5313   -4.1397   29.5572 C.ar    1  UNL1        0.2168
     17 N           7.6428   -3.5779   28.4871 N.ar    1  UNL1       -0.2138
     18 N           8.4948   -3.5632   30.9415 N.pl3   1  UNL1       -0.3044
     19 H           9.3133   -3.5434   31.4882 H       1  UNL1        0.1496
     20 C           7.2112   -3.0169   31.4927 C.3     1  UNL1        0.0771
     21 C           6.2529   -3.7484   32.3852 C.3     1  UNL1        0.0517
     22 C           5.1100   -2.8269   32.6924 C.3     1  UNL1        0.1446
     23 O           3.9234   -3.1496   33.5514 O.3     1  UNL1       -0.3816
     24 C           5.3619   -1.5257   31.9898 C.3     1  UNL1        0.1892
     25 F           4.4714   -0.3190   32.0228 F       1  UNL1       -0.2346
     26 C           6.6606   -1.6432   31.2483 C.3     1  UNL1        0.0574
     27 H           3.3319   -2.3817   33.5875 H       1  UNL1        0.2105
     28 C           4.3218   -2.9819   20.1624 C.3     1  UNL1        0.1274
     29 C           4.7961   -2.0328   19.1020 C.ar    1  UNL1       -0.0018
     30 C           3.8081   -1.3907   18.1739 C.ar    1  UNL1       -0.0026
     31 C           4.2824   -0.4417   17.1135 C.ar    1  UNL1       -0.0003
     32 C           5.7448   -0.1349   16.9812 C.ar    1  UNL1       -0.0000
     33 C           6.7327   -0.7770   17.9094 C.ar    1  UNL1       -0.0003
     34 C           6.2584   -1.7260   18.9698 C.ar    1  UNL1       -0.0026
     35 C           3.7643   -4.3199   19.7766 C.3     1  UNL1        0.1614
     36 O           4.6782   -5.3939   19.2654 O.3     1  UNL1       -0.3799
     37 H           5.0519   -5.1217   18.4127 H       1  UNL1        0.2105
@<TRIPOS>BOND
     1     1     2    2
     2     2     3    1
     3     3     4   ar
     4     4     5   ar
     5     5    12    1
     6    12    13   ar
     7    13    14   ar
     8    14    15   ar
     9    15    16   ar
    10    16    18    1
    11    20    18    1
    12    20    21    1
    13    21    22    1
    14    22    23    1
    15    22    24    1
    16    24    25    1
    17    24    26    1
    18    16    17   ar
    19     5     6   ar
    20     6     7   ar
    21     7     8    1
    22     8     9    1
    23     9    10    1
    24    10    11    1
    25    11    28    1
    26    28    35    1
    27    35    36    1
    28    28    29    1
    29    29    30   ar
    30    30    31   ar
    31    31    32   ar
    32    32    33   ar
    33    33    34   ar
    34    11     2   am
    35    34    29   ar
    36     7     3   ar
    37    17    12   ar
    38    26    20    1
    39    18    19    1
    40    23    27    1
    41    36    37    1
@<TRIPOS>MOLECULE
*****
 37 41 0 0 0
SMALL
GASTEIGER

@<TRIPOS>ATOM
      1 O           6.5428   -1.5601   22.9080 O.2     1  UNL1       -0.2683
      2 C           5.7553   -2.1671   21.7850 C.2     1  UNL1        0.2652
      3 C           4.3986   -1.5733   21.5462 C.ar    1  UNL1        0.1143
      4 C           3.8356   -0.4454   22.3591 C.ar    1  UNL1        0.0248
      5 C           2.4691   -0.1283   21.8279 C.ar    1  UNL1        0.0366
      6 C           2.1876   -1.0603   20.6868 C.ar    1  UNL1        0.0775
      7 N           3.3801   -1.9534   20.5127 N.ar    1  UNL1       -0.3224
      8 C           3.4666   -3.0210   19.4627 C.3     1  UNL1        0.1080
      9 C           4.5931   -3.9724   19.1868 C.3     1  UNL1        0.0460
     10 C           5.9112   -4.0910   19.8929 C.3     1  UNL1        0.0961
     11 N           6.4285   -3.2876   21.0491 N.am    1  UNL1       -0.2702
     12 C           1.5461    0.9342   22.3468 C.ar    1  UNL1        0.0872
     13 C           0.5271    1.5525   21.4361 C.ar    1  UNL1        0.0400
     14 C          -0.3959    2.6150   21.9550 C.ar    1  UNL1        0.1034
     15 N          -0.2998    3.0592   23.3845 N.ar    1  UNL1       -0.2123
     16 C           0.7192    2.4409   24.2952 C.ar    1  UNL1        0.2168
     17 N           1.6422    1.3784   23.7762 N.ar    1  UNL1       -0.2138
     18 N           0.8154    2.8851   25.7246 N.pl3   1  UNL1       -0.3044
     19 H           1.1549    3.7840   25.9391 H       1  UNL1        0.1496
     20 C           0.3941    1.9597   26.8274 C.3     1  UNL1        0.0771
     21 C           1.3031    1.0888   27.6431 C.3     1  UNL1        0.0517
     22 C           0.4607    0.3335   28.6279 C.3     1  UNL1        0.1446
     23 O           0.9602   -0.6527   29.6417 O.3     1  UNL1       -0.3816
     24 C          -0.9690    0.7376   28.4210 C.3     1  UNL1        0.1892
     25 F          -2.1501    0.2264   29.1915 F       1  UNL1       -0.2346
     26 C          -1.0101    1.7427   27.3081 C.3     1  UNL1        0.0574
     27 H           0.2117   -0.9976   30.1534 H       1  UNL1        0.2105
     28 C           7.8002   -3.6529   21.5337 C.3     1  UNL1        0.1274
     29 C           7.9794   -4.8006   22.4828 C.ar    1  UNL1       -0.0018
     30 C           7.3352   -4.7618   23.8367 C.ar    1  UNL1       -0.0026
     31 C           7.5143   -5.9095   24.7858 C.ar    1  UNL1       -0.0003
     32 C           8.3377   -7.0961   24.3807 C.ar    1  UNL1       -0.0000
     33 C           8.9819   -7.1349   23.0267 C.ar    1  UNL1       -0.0003
     34 C           8.8027   -5.9872   22.0777 C.ar    1  UNL1       -0.0026
     35 C           8.9928   -2.8705   21.0693 C.3     1  UNL1        0.1614
     36 O           9.0313   -1.3823   21.2532 O.3     1  UNL1       -0.3799
     37 H           8.3441   -0.9710   20.7059 H       1  UNL1        0.2105
@<TRIPOS>BOND
     1     1     2    2
     2     2     3    1
     3     3     4   ar
     4     4     5   ar
     5     5    12    1
     6    12    13   ar
     7    13    14   ar
     8    14    15   ar
     9    15    16   ar
    10    16    18    1
    11    20    18    1
    12    20    21    1
    13    21    22    1
    14    22    23    1
    15    22    24    1
    16    24    25    1
    17    24    26    1
    18    16    17   ar
    19     5     6   ar
    20     6     7   ar
    21     7     8    1
    22     8     9    1
    23     9    10    1
    24    10    11    1
    25    11    28    1
    26    28    35    1
    27    35    36    1
    28    28    29    1
    29    29    30   ar
    30    30    31   ar
    31    31    32   ar
    32    32    33   ar
    33    33    34   ar
    34    11     2   am
    35    34    29   ar
    36     7     3   ar
    37    17    12   ar
    38    26    20    1
    39    18    19    1
    40    23    27    1
    41    36    37    1
@<TRIPOS>MOLECULE
*****
 37 41 0 0 0
SMALL
GASTEIGER

@<TRIPOS>ATOM
      1 O           2.7050   -2.3754   19.9781 O.2     1  UNL1       -0.2683
      2 C           3.7012   -1.4577   19.3338 C.2     1  UNL1        0.2652
      3 C           3.1995   -0.0843   18.9992 C.ar    1  UNL1        0.1143
      4 C           1.7986    0.3742   19.2772 C.ar    1  UNL1        0.0248
      5 C           1.6734    1.7931   18.8072 C.ar    1  UNL1        0.0366
      6 C           2.9969    2.2117   18.2387 C.ar    1  UNL1        0.0775
      7 N           3.9401    1.0513   18.3574 N.ar    1  UNL1       -0.3224
      8 C           5.3653    1.0940   17.8917 C.3     1  UNL1        0.1080
      9 C           6.4020    0.0116   17.9528 C.3     1  UNL1        0.0460
     10 C           6.2695   -1.3808   18.4947 C.3     1  UNL1        0.0961
     11 N           5.0676   -2.0347   19.1093 N.am    1  UNL1       -0.2702
     12 C           0.4411    2.6442   18.8910 C.ar    1  UNL1        0.0872
     13 C           0.1826    3.6941   17.8514 C.ar    1  UNL1        0.0400
     14 C          -1.0498    4.5452   17.9353 C.ar    1  UNL1        0.1034
     15 N          -2.0237    4.3463   19.0586 N.ar    1  UNL1       -0.2123
     16 C          -1.7652    3.2963   20.0982 C.ar    1  UNL1        0.2168
     17 N          -0.5328    2.4453   20.0144 N.ar    1  UNL1       -0.2138
     18 N          -2.7390    3.0974   21.2216 N.pl3   1  UNL1       -0.3044
     19 H          -2.4330    2.7178   22.0769 H       1  UNL1        0.1496
     20 C          -4.1791    3.4767   21.0418 C.3     1  UNL1        0.0771
     21 C          -5.1376    3.8428   22.1360 C.3     1  UNL1        0.0517
     22 C          -6.4644    4.1490   21.5067 C.3     1  UNL1        0.1446
     23 O          -7.7108    4.5598   22.2330 O.3     1  UNL1       -0.3816
     24 C          -6.3259    3.9722   20.0236 C.3     1  UNL1        0.1892
     25 F          -7.4095    4.1752   19.0065 F       1  UNL1       -0.2346
     26 C          -4.9134    3.5567   19.7363 C.3     1  UNL1        0.0574
     27 H          -8.4272    4.6971   21.5936 H       1  UNL1        0.2105
     28 C           5.2568   -3.4532   19.5588 C.3     1  UNL1        0.1274
     29 C           5.9415   -3.7419   20.8619 C.ar    1  UNL1       -0.0018
     30 C           7.3806   -4.1644   20.8755 C.ar    1  UNL1       -0.0026
     31 C           8.0653   -4.4532   22.1785 C.ar    1  UNL1       -0.0003
     32 C           7.3107   -4.3193   23.4680 C.ar    1  UNL1       -0.0000
     33 C           5.8715   -3.8967   23.4544 C.ar    1  UNL1       -0.0003
     34 C           5.1870   -3.6080   22.1514 C.ar    1  UNL1       -0.0026
     35 C           4.7615   -4.5829   18.7054 C.3     1  UNL1        0.1614
     36 O           4.3008   -5.8594   19.3444 O.3     1  UNL1       -0.3799
     37 H           5.0536   -6.2969   19.7721 H       1  UNL1        0.2105
@<TRIPOS>BOND
     1     1     2    2
     2     2     3    1
     3     3     4   ar
     4     4     5   ar
     5     5    12    1
     6    12    13   ar
     7    13    14   ar
     8    14    15   ar
     9    15    16   ar
    10    16    18    1
    11    20    18    1
    12    20    21    1
    13    21    22    1
    14    22    23    1
    15    22    24    1
    16    24    25    1
    17    24    26    1
    18    16    17   ar
    19     5     6   ar
    20     6     7   ar
    21     7     8    1
    22     8     9    1
    23     9    10    1
    24    10    11    1
    25    11    28    1
    26    28    35    1
    27    35    36    1
    28    28    29    1
    29    29    30   ar
    30    30    31   ar
    31    31    32   ar
    32    32    33   ar
    33    33    34   ar
    34    11     2   am
    35    34    29   ar
    36     7     3   ar
    37    17    12   ar
    38    26    20    1
    39    18    19    1
    40    23    27    1
    41    36    37    1
@<TRIPOS>MOLECULE
*****
 37 41 0 0 0
SMALL
GASTEIGER

@<TRIPOS>ATOM
      1 O           5.6857   -1.4096   29.6772 O.2     1  UNL1       -0.2683
      2 C           6.1501   -2.7783   30.0782 C.2     1  UNL1        0.2652
      3 C           6.5803   -3.6746   28.9550 C.ar    1  UNL1        0.1143
      4 C           6.5601   -3.2606   27.5134 C.ar    1  UNL1        0.0248
      5 C           7.0569   -4.4139   26.6930 C.ar    1  UNL1        0.0366
      6 C           7.3841   -5.5407   27.6275 C.ar    1  UNL1        0.0775
      7 N           7.0896   -5.0837   29.0255 N.ar    1  UNL1       -0.3224
      8 C           7.2944   -5.9446   30.2366 C.3     1  UNL1        0.1080
      9 C           7.0405   -5.6090   31.6764 C.3     1  UNL1        0.0460
     10 C           6.5190   -4.3296   32.2606 C.3     1  UNL1        0.0961
     11 N           6.1228   -3.0698   31.5494 N.am    1  UNL1       -0.2702
     12 C           7.2011   -4.4365   25.2001 C.ar    1  UNL1        0.0872
     13 C           7.9360   -5.5621   24.5346 C.ar    1  UNL1        0.0400
     14 C           8.0802   -5.5847   23.0416 C.ar    1  UNL1        0.1034
     15 N           7.4895   -4.4817   22.2143 N.ar    1  UNL1       -0.2123
     16 C           6.7546   -3.3561   22.8798 C.ar    1  UNL1        0.2168
     17 N           6.6105   -3.3336   24.3727 N.ar    1  UNL1       -0.2138
     18 N           6.1639   -2.2531   22.0525 N.pl3   1  UNL1       -0.3044
     19 H           6.2889   -1.3146   22.3221 H       1  UNL1        0.1496
     20 C           5.3828   -2.5802   20.8144 C.3     1  UNL1        0.0771
     21 C           5.5016   -1.8887   19.4887 C.3     1  UNL1        0.0517
     22 C           4.5380   -2.5373   18.5396 C.3     1  UNL1        0.1446
     23 O           4.3258   -2.1598   17.1035 O.3     1  UNL1       -0.3816
     24 C           3.8237   -3.6298   19.2788 C.3     1  UNL1        0.1892
     25 F           2.7719   -4.5365   18.7116 F       1  UNL1       -0.2346
     26 C           4.3459   -3.6563   20.6848 C.3     1  UNL1        0.0574
     27 H           3.6479   -2.7345   16.7148 H       1  UNL1        0.2105
     28 C           5.6347   -1.9540   32.4250 C.3     1  UNL1        0.1274
     29 C           6.6166   -1.1153   33.1883 C.ar    1  UNL1       -0.0018
     30 C           6.2080   -0.4708   34.4796 C.ar    1  UNL1       -0.0026
     31 C           7.1898    0.3678   35.2429 C.ar    1  UNL1       -0.0003
     32 C           8.5804    0.5619   34.7149 C.ar    1  UNL1       -0.0000
     33 C           8.9889   -0.0826   33.4235 C.ar    1  UNL1       -0.0003
     34 C           8.0071   -0.9213   32.6602 C.ar    1  UNL1       -0.0026
     35 C           4.1648   -1.6768   32.5373 C.3     1  UNL1        0.1614
     36 O           3.4839   -0.8154   31.5153 O.3     1  UNL1       -0.3799
     37 H           3.8251    0.0905   31.5769 H       1  UNL1        0.2105
@<TRIPOS>BOND
     1     1     2    2
     2     2     3    1
     3     3     4   ar
     4     4     5   ar
     5     5    12    1
     6    12    13   ar
     7    13    14   ar
     8    14    15   ar
     9    15    16   ar
    10    16    18    1
    11    20    18    1
    12    20    21    1
    13    21    22    1
    14    22    23    1
    15    22    24    1
    16    24    25    1
    17    24    26    1
    18    16    17   ar
    19     5     6   ar
    20     6     7   ar
    21     7     8    1
    22     8     9    1
    23     9    10    1
    24    10    11    1
    25    11    28    1
    26    28    35    1
    27    35    36    1
    28    28    29    1
    29    29    30   ar
    30    30    31   ar
    31    31    32   ar
    32    32    33   ar
    33    33    34   ar
    34    11     2   am
    35    34    29   ar
    36     7     3   ar
    37    17    12   ar
    38    26    20    1
    39    18    19    1
    40    23    27    1
    41    36    37    1
@<TRIPOS>MOLECULE
*****
 37 41 0 0 0
SMALL
GASTEIGER

@<TRIPOS>ATOM
      1 O           1.1448   -0.9748   20.0026 O.2     1  UNL1       -0.2683
      2 C           2.2201   -0.0469   19.5205 C.2     1  UNL1        0.2652
      3 C           1.7508    1.2824   19.0075 C.ar    1  UNL1        0.1143
      4 C           0.3077    1.6892   18.9655 C.ar    1  UNL1        0.0248
      5 C           0.2330    3.0742   18.3943 C.ar    1  UNL1        0.0366
      6 C           1.6300    3.5234   18.0834 C.ar    1  UNL1        0.0775
      7 N           2.5681    2.4159   18.4624 N.ar    1  UNL1       -0.3224
      8 C           4.0564    2.5003   18.2956 C.3     1  UNL1        0.1080
      9 C           5.0951    1.4719   18.6327 C.3     1  UNL1        0.0460
     10 C           4.9019    0.1051   19.2199 C.3     1  UNL1        0.0961
     11 N           3.6225   -0.5708   19.6150 N.am    1  UNL1       -0.2702
     12 C          -1.0188    3.8703   18.1730 C.ar    1  UNL1        0.0872
     13 C          -1.5716    4.0290   16.7876 C.ar    1  UNL1        0.0400
     14 C          -2.8235    4.8251   16.5664 C.ar    1  UNL1        0.1034
     15 N          -3.5226    5.4626   17.7303 N.ar    1  UNL1       -0.2123
     16 C          -2.9698    5.3040   19.1157 C.ar    1  UNL1        0.2168
     17 N          -1.7179    4.5078   19.3370 N.ar    1  UNL1       -0.2138
     18 N          -3.6688    5.9414   20.2797 N.pl3   1  UNL1       -0.3044
     19 H          -3.5805    6.9092   20.4371 H       1  UNL1        0.1496
     20 C          -4.5024    5.1042   21.2039 C.3     1  UNL1        0.0771
     21 C          -5.9941    5.1692   21.3483 C.3     1  UNL1        0.0517
     22 C          -6.4043    4.1602   22.3796 C.3     1  UNL1        0.1446
     23 O          -7.8065    3.8877   22.8376 O.3     1  UNL1       -0.3816
     24 C          -5.1663    3.4716   22.8727 C.3     1  UNL1        0.1892
     25 F          -5.1130    2.3895   23.9101 F       1  UNL1       -0.2346
     26 C          -3.9908    4.0550   22.1460 C.3     1  UNL1        0.0574
     27 H          -7.7968    3.1892   23.5106 H       1  UNL1        0.2105
     28 C           3.7640   -1.9534   20.1791 C.3     1  UNL1        0.1274
     29 C           4.1449   -2.1409   21.6178 C.ar    1  UNL1       -0.0018
     30 C           5.0797   -3.2471   22.0081 C.ar    1  UNL1       -0.0026
     31 C           5.4607   -3.4347   23.4467 C.ar    1  UNL1       -0.0003
     32 C           4.9068   -2.5159   24.4952 C.ar    1  UNL1       -0.0000
     33 C           3.9720   -1.4097   24.1049 C.ar    1  UNL1       -0.0003
     34 C           3.5911   -1.2222   22.6662 C.ar    1  UNL1       -0.0026
     35 C           3.5246   -3.1484   19.3048 C.3     1  UNL1        0.1614
     36 O           4.4579   -3.4455   18.1687 O.3     1  UNL1       -0.3799
     37 H           4.3922   -2.7421   17.5039 H       1  UNL1        0.2105
@<TRIPOS>BOND
     1     1     2    2
     2     2     3    1
     3     3     4   ar
     4     4     5   ar
     5     5    12    1
     6    12    13   ar
     7    13    14   ar
     8    14    15   ar
     9    15    16   ar
    10    16    18    1
    11    20    18    1
    12    20    21    1
    13    21    22    1
    14    22    23    1
    15    22    24    1
    16    24    25    1
    17    24    26    1
    18    16    17   ar
    19     5     6   ar
    20     6     7   ar
    21     7     8    1
    22     8     9    1
    23     9    10    1
    24    10    11    1
    25    11    28    1
    26    28    35    1
    27    35    36    1
    28    28    29    1
    29    29    30   ar
    30    30    31   ar
    31    31    32   ar
    32    32    33   ar
    33    33    34   ar
    34    11     2   am
    35    34    29   ar
    36     7     3   ar
    37    17    12   ar
    38    26    20    1
    39    18    19    1
    40    23    27    1
    41    36    37    1
