@<TRIPOS>MOLECULE
*****
 17 18 0 0 0
SMALL
GASTEIGER

@<TRIPOS>ATOM
      1 C         -10.2734  -18.5632   23.8855 C.ar    1  UNL1        0.1386
      2 C          -9.8519  -19.7810   23.1179 C.ar    1  UNL1        0.0370
      3 C          -8.5691  -19.7709   22.3406 C.ar    1  UNL1        0.0062
      4 C          -7.7077  -18.5430   22.3309 C.ar    1  UNL1        0.0373
      5 C          -8.1291  -17.3252   23.0985 C.ar    1  UNL1        0.0062
      6 C          -9.4120  -17.3353   23.8758 C.ar    1  UNL1        0.0370
      7 C          -6.4248  -18.5328   21.5537 C.ar    1  UNL1        0.1806
      8 N          -5.0433  -18.4581   22.1332 N.ar    1  UNL1       -0.1084
      9 N          -4.0629  -18.4747   20.9981 N.ar    1  UNL1       -0.0229
     10 N          -4.8384  -18.5597   19.7170 N.ar    1  UNL1       -0.0464
     11 N          -6.2982  -18.5956   20.0603 N.ar    1  UNL1       -0.2388
     12 H          -7.0425  -18.6508   19.4183 H       1  UNL1        0.1923
     13 O         -11.5562  -18.5734   24.6628 O.3     1  UNL1       -0.4755
     14 C         -12.8499  -18.2430   23.9793 C.3     1  UNL1        0.2054
     15 C         -12.8675  -17.2726   22.8356 C.3     1  UNL1        0.0473
     16 C         -11.5583  -17.3428   20.5925 C.3     1  UNL1        0.0001
     17 C         -12.7289  -17.7705   21.4274 C.3     1  UNL1        0.0038
@<TRIPOS>BOND
     1    16    17    1
     2    17    15    1
     3    15    14    1
     4    14    13    1
     5    13     1    1
     6     1     2   ar
     7     2     3   ar
     8     3     4   ar
     9     4     7    1
    10     7     8   ar
    11     8     9   ar
    12     9    10   ar
    13    10    11   ar
    14     4     5   ar
    15     5     6   ar
    16     6     1   ar
    17    11     7   ar
    18    11    12    1
@<TRIPOS>MOLECULE
*****
 17 18 0 0 0
SMALL
GASTEIGER

@<TRIPOS>ATOM
      1 C          -6.3932  -19.8393   21.8883 C.ar    1  UNL1        0.1386
      2 C          -5.9179  -20.5305   20.6448 C.ar    1  UNL1        0.0370
      3 C          -4.5754  -20.1942   20.0663 C.ar    1  UNL1        0.0062
      4 C          -3.7082  -19.1668   20.7314 C.ar    1  UNL1        0.0373
      5 C          -4.1835  -18.4757   21.9749 C.ar    1  UNL1        0.0062
      6 C          -5.5260  -18.8119   22.5533 C.ar    1  UNL1        0.0370
      7 C          -2.3657  -18.8306   20.1529 C.ar    1  UNL1        0.1806
      8 N          -1.0488  -18.9320   20.8639 N.ar    1  UNL1       -0.1084
      9 N           0.0264  -18.4979   19.9123 N.ar    1  UNL1       -0.0229
     10 N          -0.6259  -18.1283   18.6132 N.ar    1  UNL1       -0.0464
     11 N          -2.1043  -18.3339   18.7619 N.ar    1  UNL1       -0.2388
     12 H          -2.7838  -18.1713   18.0683 H       1  UNL1        0.1923
     13 O          -7.7357  -20.1756   22.4667 O.3     1  UNL1       -0.4755
     14 C          -8.8720  -19.2048   22.3388 C.3     1  UNL1        0.2054
     15 C         -10.2698  -19.7091   22.1339 C.3     1  UNL1        0.0473
     16 C          -9.9757  -19.5275   19.5589 C.3     1  UNL1        0.0001
     17 C         -10.8526  -19.7633   20.7528 C.3     1  UNL1        0.0038
@<TRIPOS>BOND
     1    16    17    1
     2    17    15    1
     3    15    14    1
     4    14    13    1
     5    13     1    1
     6     1     2   ar
     7     2     3   ar
     8     3     4   ar
     9     4     7    1
    10     7     8   ar
    11     8     9   ar
    12     9    10   ar
    13    10    11   ar
    14     4     5   ar
    15     5     6   ar
    16     6     1   ar
    17    11     7   ar
    18    11    12    1
@<TRIPOS>MOLECULE
*****
 17 18 0 0 0
SMALL
GASTEIGER

@<TRIPOS>ATOM
      1 C         -10.4168  -18.5902   20.5681 C.ar    1  UNL1        0.1386
      2 C          -9.9426  -19.4357   19.4235 C.ar    1  UNL1        0.0370
      3 C          -8.4834  -19.7513   19.2783 C.ar    1  UNL1        0.0062
      4 C          -7.4984  -19.2215   20.2777 C.ar    1  UNL1        0.0373
      5 C          -7.9725  -18.3760   21.4224 C.ar    1  UNL1        0.0062
      6 C          -9.4317  -18.0603   21.5675 C.ar    1  UNL1        0.0370
      7 C          -6.0392  -19.5372   20.1325 C.ar    1  UNL1        0.1806
      8 N          -4.9534  -18.5561   19.8030 N.ar    1  UNL1       -0.1084
      9 N          -3.6527  -19.3019   19.7582 N.ar    1  UNL1       -0.0229
     10 N          -3.9346  -20.7439   20.0600 N.ar    1  UNL1       -0.0464
     11 N          -5.4095  -20.8893   20.2914 N.ar    1  UNL1       -0.2388
     12 H          -5.8814  -21.7254   20.5092 H       1  UNL1        0.1923
     13 O         -11.8760  -18.2745   20.7133 O.3     1  UNL1       -0.4755
     14 C         -12.3061  -16.9217   21.1979 C.3     1  UNL1        0.2054
     15 C         -12.6580  -16.7193   22.6419 C.3     1  UNL1        0.0473
     16 C         -11.9753  -18.6125   24.2850 C.3     1  UNL1        0.0001
     17 C         -13.0299  -17.8956   23.4953 C.3     1  UNL1        0.0038
@<TRIPOS>BOND
     1    16    17    1
     2    17    15    1
     3    15    14    1
     4    14    13    1
     5    13     1    1
     6     1     2   ar
     7     2     3   ar
     8     3     4   ar
     9     4     7    1
    10     7     8   ar
    11     8     9   ar
    12     9    10   ar
    13    10    11   ar
    14     4     5   ar
    15     5     6   ar
    16     6     1   ar
    17    11     7   ar
    18    11    12    1
@<TRIPOS>MOLECULE
*****
 17 18 0 0 0
SMALL
GASTEIGER

@<TRIPOS>ATOM
      1 C          -8.5278  -19.0016   21.1041 C.ar    1  UNL1        0.1386
      2 C          -7.7254  -19.5591   19.9661 C.ar    1  UNL1        0.0370
      3 C          -6.2331  -19.6603   20.0793 C.ar    1  UNL1        0.0062
      4 C          -5.5432  -19.2040   21.3306 C.ar    1  UNL1        0.0373
      5 C          -6.3457  -18.6465   22.4687 C.ar    1  UNL1        0.0062
      6 C          -7.8380  -18.5453   22.3554 C.ar    1  UNL1        0.0370
      7 C          -4.0509  -19.3052   21.4439 C.ar    1  UNL1        0.1806
      8 N          -3.1924  -20.3811   20.8477 N.ar    1  UNL1       -0.1084
      9 N          -1.7660  -20.0891   21.2086 N.ar    1  UNL1       -0.0229
     10 N          -1.7430  -18.8327   22.0277 N.ar    1  UNL1       -0.0464
     11 N          -3.1551  -18.3483   22.1731 N.ar    1  UNL1       -0.2388
     12 H          -3.4434  -17.5435   22.6615 H       1  UNL1        0.1923
     13 O         -10.0201  -18.9004   20.9909 O.3     1  UNL1       -0.4755
     14 C         -10.8975  -19.6505   21.9487 C.3     1  UNL1        0.2054
     15 C         -11.4180  -18.9696   23.1797 C.3     1  UNL1        0.0473
     16 C         -13.7206  -17.9670   23.8454 C.3     1  UNL1        0.0001
     17 C         -12.4463  -17.8842   23.0584 C.3     1  UNL1        0.0038
@<TRIPOS>BOND
     1    16    17    1
     2    17    15    1
     3    15    14    1
     4    14    13    1
     5    13     1    1
     6     1     2   ar
     7     2     3   ar
     8     3     4   ar
     9     4     7    1
    10     7     8   ar
    11     8     9   ar
    12     9    10   ar
    13    10    11   ar
    14     4     5   ar
    15     5     6   ar
    16     6     1   ar
    17    11     7   ar
    18    11    12    1
@<TRIPOS>MOLECULE
*****
 17 18 0 0 0
SMALL
GASTEIGER

@<TRIPOS>ATOM
      1 C          -7.1899  -18.3368   22.1778 C.ar    1  UNL1        0.1386
      2 C          -7.8878  -17.0356   22.4414 C.ar    1  UNL1        0.0370
      3 C          -9.3034  -17.0307   22.9373 C.ar    1  UNL1        0.0062
      4 C         -10.0212  -18.3272   23.1696 C.ar    1  UNL1        0.0373
      5 C          -9.3233  -19.6285   22.9060 C.ar    1  UNL1        0.0062
      6 C          -7.9076  -19.6333   22.4101 C.ar    1  UNL1        0.0370
      7 C         -11.4368  -18.3223   23.6655 C.ar    1  UNL1        0.1806
      8 N         -12.6251  -17.7708   22.9349 N.ar    1  UNL1       -0.1084
      9 N         -13.8354  -17.9758   23.7969 N.ar    1  UNL1       -0.0229
     10 N         -13.3952  -18.6540   25.0603 N.ar    1  UNL1       -0.0464
     11 N         -11.9128  -18.8682   24.9791 N.ar    1  UNL1       -0.2388
     12 H         -11.3508  -19.2925   25.6671 H       1  UNL1        0.1923
     13 O          -5.7742  -18.3417   21.6819 O.3     1  UNL1       -0.4755
     14 C          -4.7124  -19.0697   22.4516 C.3     1  UNL1        0.2054
     15 C          -3.5211  -19.6341   21.7359 C.3     1  UNL1        0.0473
     16 C          -2.9159  -18.7779   19.3587 C.3     1  UNL1        0.0001
     17 C          -3.5532  -19.8058   20.2460 C.3     1  UNL1        0.0038
@<TRIPOS>BOND
     1    16    17    1
     2    17    15    1
     3    15    14    1
     4    14    13    1
     5    13     1    1
     6     1     2   ar
     7     2     3   ar
     8     3     4   ar
     9     4     7    1
    10     7     8   ar
    11     8     9   ar
    12     9    10   ar
    13    10    11   ar
    14     4     5   ar
    15     5     6   ar
    16     6     1   ar
    17    11     7   ar
    18    11    12    1
@<TRIPOS>MOLECULE
*****
 17 18 0 0 0
SMALL
GASTEIGER

@<TRIPOS>ATOM
      1 C          -6.5410  -20.0369   20.8066 C.ar    1  UNL1        0.1386
      2 C          -7.0208  -19.2456   21.9871 C.ar    1  UNL1        0.0370
      3 C          -8.3616  -18.5744   21.9452 C.ar    1  UNL1        0.0062
      4 C          -9.2226  -18.6946   20.7228 C.ar    1  UNL1        0.0373
      5 C          -8.7428  -19.4859   19.5424 C.ar    1  UNL1        0.0062
      6 C          -7.4020  -20.1571   19.5843 C.ar    1  UNL1        0.0370
      7 C         -10.5634  -18.0234   20.6809 C.ar    1  UNL1        0.1806
      8 N         -10.9244  -16.8257   19.8531 N.ar    1  UNL1       -0.1084
      9 N         -12.3627  -16.4942   20.1200 N.ar    1  UNL1       -0.0229
     10 N         -12.8908  -17.4870   21.1127 N.ar    1  UNL1       -0.0464
     11 N         -11.7787  -18.4321   21.4594 N.ar    1  UNL1       -0.2388
     12 H         -11.8364  -19.1880   22.0875 H       1  UNL1        0.1923
     13 O          -5.2002  -20.7081   20.8486 O.3     1  UNL1       -0.4755
     14 C          -4.1199  -20.2856   19.8975 C.3     1  UNL1        0.2054
     15 C          -3.4988  -18.9262   20.0240 C.3     1  UNL1        0.0473
     16 C          -1.1985  -17.7772   19.6513 C.3     1  UNL1        0.0001
     17 C          -2.3805  -18.5244   19.1085 C.3     1  UNL1        0.0038
@<TRIPOS>BOND
     1    16    17    1
     2    17    15    1
     3    15    14    1
     4    14    13    1
     5    13     1    1
     6     1     2   ar
     7     2     3   ar
     8     3     4   ar
     9     4     7    1
    10     7     8   ar
    11     8     9   ar
    12     9    10   ar
    13    10    11   ar
    14     4     5   ar
    15     5     6   ar
    16     6     1   ar
    17    11     7   ar
    18    11    12    1
@<TRIPOS>MOLECULE
*****
 17 18 0 0 0
SMALL
GASTEIGER

@<TRIPOS>ATOM
      1 C          -6.5488  -19.4789   21.4829 C.ar    1  UNL1        0.1386
      2 C          -6.2888  -19.1685   20.0387 C.ar    1  UNL1        0.0370
      3 C          -4.8877  -18.9153   19.5664 C.ar    1  UNL1        0.0062
      4 C          -3.7468  -18.9726   20.5385 C.ar    1  UNL1        0.0373
      5 C          -4.0068  -19.2830   21.9827 C.ar    1  UNL1        0.0062
      6 C          -5.4079  -19.5361   22.4550 C.ar    1  UNL1        0.0370
      7 C          -2.3457  -18.7194   20.0662 C.ar    1  UNL1        0.1806
      8 N          -1.0912  -18.9897   20.8428 N.ar    1  UNL1       -0.1084
      9 N           0.0767  -18.5888   19.9910 N.ar    1  UNL1       -0.0229
     10 N          -0.4561  -18.0709   18.6880 N.ar    1  UNL1       -0.0464
     11 N          -1.9532  -18.1516   18.7345 N.ar    1  UNL1       -0.2388
     12 H          -2.5700  -17.8796   18.0169 H       1  UNL1        0.1923
     13 O          -7.9499  -19.7321   21.9552 O.3     1  UNL1       -0.4755
     14 C          -8.8698  -18.5788   22.2266 C.3     1  UNL1        0.2054
     15 C          -8.6317  -17.6927   23.4133 C.3     1  UNL1        0.0473
     16 C          -7.8430  -15.3302   24.1527 C.3     1  UNL1        0.0001
     17 C          -7.6489  -16.5633   23.3209 C.3     1  UNL1        0.0038
@<TRIPOS>BOND
     1    16    17    1
     2    17    15    1
     3    15    14    1
     4    14    13    1
     5    13     1    1
     6     1     2   ar
     7     2     3   ar
     8     3     4   ar
     9     4     7    1
    10     7     8   ar
    11     8     9   ar
    12     9    10   ar
    13    10    11   ar
    14     4     5   ar
    15     5     6   ar
    16     6     1   ar
    17    11     7   ar
    18    11    12    1
@<TRIPOS>MOLECULE
*****
 17 18 0 0 0
SMALL
GASTEIGER

@<TRIPOS>ATOM
      1 C         -12.4350   -5.7299   17.4246 C.ar    1  UNL1        0.1386
      2 C         -13.1776   -5.6590   18.7259 C.ar    1  UNL1        0.0370
      3 C         -14.0774   -6.7861   19.1384 C.ar    1  UNL1        0.0062
      4 C         -14.2345   -7.9841   18.2495 C.ar    1  UNL1        0.0373
      5 C         -13.4919   -8.0550   16.9482 C.ar    1  UNL1        0.0062
      6 C         -12.5921   -6.9279   16.5358 C.ar    1  UNL1        0.0370
      7 C         -15.1343   -9.1111   18.6619 C.ar    1  UNL1        0.1806
      8 N         -15.3187  -10.4061   17.9276 N.ar    1  UNL1       -0.1084
      9 N         -16.3061  -11.2364   18.6929 N.ar    1  UNL1       -0.0229
     10 N         -16.7319  -10.4547   19.9002 N.ar    1  UNL1       -0.0464
     11 N         -16.0077   -9.1412   19.8810 N.ar    1  UNL1       -0.2388
     12 H         -16.0910   -8.4246   20.5510 H       1  UNL1        0.1923
     13 O         -11.5352   -4.6029   17.0122 O.3     1  UNL1       -0.4755
     14 C         -10.0780   -4.6385   17.3661 C.3     1  UNL1        0.2054
     15 C          -9.6569   -4.7072   18.8042 C.3     1  UNL1        0.0473
     16 C          -9.5317   -7.2980   18.6546 C.3     1  UNL1        0.0001
     17 C          -9.3004   -6.0282   19.4190 C.3     1  UNL1        0.0038
@<TRIPOS>BOND
     1    16    17    1
     2    17    15    1
     3    15    14    1
     4    14    13    1
     5    13     1    1
     6     1     2   ar
     7     2     3   ar
     8     3     4   ar
     9     4     7    1
    10     7     8   ar
    11     8     9   ar
    12     9    10   ar
    13    10    11   ar
    14     4     5   ar
    15     5     6   ar
    16     6     1   ar
    17    11     7   ar
    18    11    12    1
@<TRIPOS>MOLECULE
*****
 17 18 0 0 0
SMALL
GASTEIGER

@<TRIPOS>ATOM
      1 C          -4.2745  -19.8150   21.5688 C.ar    1  UNL1        0.1386
      2 C          -5.0689  -18.8772   22.4286 C.ar    1  UNL1        0.0370
      3 C          -6.5321  -18.6766   22.1663 C.ar    1  UNL1        0.0062
      4 C          -7.2009  -19.4139   21.0443 C.ar    1  UNL1        0.0373
      5 C          -6.4065  -20.3518   20.1845 C.ar    1  UNL1        0.0062
      6 C          -4.9433  -20.5523   20.4467 C.ar    1  UNL1        0.0370
      7 C          -8.6641  -19.2133   20.7820 C.ar    1  UNL1        0.1806
      8 N          -9.7720  -19.4029   21.7753 N.ar    1  UNL1       -0.1084
      9 N         -11.0690  -19.0947   21.0876 N.ar    1  UNL1       -0.0229
     10 N         -10.7627  -18.7147   19.6693 N.ar    1  UNL1       -0.0464
     11 N          -9.2764  -18.7880   19.4804 N.ar    1  UNL1       -0.2388
     12 H          -8.7884  -18.5914   18.6483 H       1  UNL1        0.1923
     13 O          -2.8113  -20.0156   21.8310 O.3     1  UNL1       -0.4755
     14 C          -1.8842  -18.8366   21.8500 C.3     1  UNL1        0.2054
     15 C          -1.3244  -18.3020   20.5651 C.3     1  UNL1        0.0473
     16 C          -1.9601  -17.5805   18.1515 C.3     1  UNL1        0.0001
     17 C          -2.2026  -17.5237   19.6307 C.3     1  UNL1        0.0038
@<TRIPOS>BOND
     1    16    17    1
     2    17    15    1
     3    15    14    1
     4    14    13    1
     5    13     1    1
     6     1     2   ar
     7     2     3   ar
     8     3     4   ar
     9     4     7    1
    10     7     8   ar
    11     8     9   ar
    12     9    10   ar
    13    10    11   ar
    14     4     5   ar
    15     5     6   ar
    16     6     1   ar
    17    11     7   ar
    18    11    12    1
