@<TRIPOS>MOLECULE
*****
 34 37 0 0 0
SMALL
GASTEIGER

@<TRIPOS>ATOM
      1 C           7.6345   -4.2077   22.8181 C.ar    1  UNL1        0.0503
      2 C           6.8641   -3.9253   24.0738 C.ar    1  UNL1        0.0143
      3 C           6.8736   -4.9177   25.1986 C.ar    1  UNL1       -0.0029
      4 C           7.6535   -6.1924   25.0676 C.ar    1  UNL1       -0.0208
      5 C           8.4238   -6.4747   23.8119 C.ar    1  UNL1       -0.0029
      6 C           8.4143   -5.4823   22.6871 C.ar    1  UNL1        0.0143
      7 O           5.9316   -4.6999   20.3978 O.2     1  UNL1       -0.2727
      8 C           6.7736   -3.4614   20.4832 C.2     1  UNL1        0.2493
      9 N           7.6250   -3.2153   21.6933 N.am    1  UNL1       -0.2823
     10 H           8.1777   -2.4025   21.7493 H       1  UNL1        0.1549
     11 C           6.7641   -2.4690   19.3584 C.3     1  UNL1        0.1957
     12 N           5.5060   -1.7220   19.0279 N.ar    1  UNL1       -0.2695
     13 C           4.3025   -1.8510   19.9138 C.ar    1  UNL1        0.0819
     14 C           3.0445   -1.1039   19.5833 C.ar    1  UNL1        0.0396
     15 C           2.9900   -0.2279   18.3669 C.ar    1  UNL1        0.1052
     16 N           4.1935   -0.0989   17.4810 N.ar    1  UNL1       -0.1907
     17 C           5.4515   -0.8459   17.8115 C.ar    1  UNL1        0.3506
     18 O           6.6551   -0.7169   16.9256 O.2     1  UNL1       -0.2444
     19 C           7.6630   -7.1848   26.1924 C.3     1  UNL1        0.0420
     20 C           7.9204   -6.7243   27.5966 C.3     1  UNL1        0.0585
     21 C           9.2562   -6.6748   28.2772 C.3     1  UNL1        0.0175
     22 C           9.0487   -6.1525   29.6680 C.3     1  UNL1        0.0199
     23 C           7.5846   -5.8792   29.8469 C.3     1  UNL1        0.0855
     24 N           6.8873   -6.2326   28.5667 N.3     1  UNL1       -0.2971
     25 H           6.4210   -5.4085   28.1876 H       1  UNL1        0.1233
     26 C           6.9324   -5.3462   31.0879 C.3     1  UNL1        0.1470
     27 O           6.5720   -6.2792   32.2058 O.3     1  UNL1       -0.3787
     28 H           6.1620   -5.7766   32.9270 H       1  UNL1        0.2108
     29 C           6.6405   -3.8800   31.2114 C.ar    1  UNL1        0.0055
     30 C           6.8552   -2.9712   30.0374 C.ar    1  UNL1       -0.0019
     31 C           6.5633   -1.5051   30.1608 C.ar    1  UNL1       -0.0002
     32 C           6.0568   -0.9477   31.4580 C.ar    1  UNL1       -0.0000
     33 C           5.8422   -1.8565   32.6318 C.ar    1  UNL1       -0.0002
     34 C           6.1340   -3.3226   32.5085 C.ar    1  UNL1       -0.0019
@<TRIPOS>BOND
     1     7     8    2
     2     8    11    1
     3    11    12    1
     4    12    13   ar
     5    13    14   ar
     6    14    15   ar
     7    15    16   ar
     8    16    17   ar
     9    17    18    2
    10     8     9   am
    11     9     1    1
    12     1     2   ar
    13     2     3   ar
    14     3     4   ar
    15     4    19    1
    16    20    19    1
    17    20    21    1
    18    21    22    1
    19    23    22    1
    20    23    26    1
    21    26    27    1
    22    26    29    1
    23    29    30   ar
    24    30    31   ar
    25    31    32   ar
    26    32    33   ar
    27    33    34   ar
    28    23    24    1
    29     4     5   ar
    30     5     6   ar
    31    17    12   ar
    32     6     1   ar
    33    24    20    1
    34    34    29   ar
    35     9    10    1
    36    27    28    1
    37    24    25    1
@<TRIPOS>MOLECULE
*****
 34 37 0 0 0
SMALL
GASTEIGER

@<TRIPOS>ATOM
      1 C           7.0544   -4.9212   25.2556 C.ar    1  UNL1        0.0503
      2 C           6.3075   -3.7382   24.7145 C.ar    1  UNL1        0.0143
      3 C           6.4617   -3.3488   23.2741 C.ar    1  UNL1       -0.0029
      4 C           7.3626   -4.1424   22.3749 C.ar    1  UNL1       -0.0208
      5 C           8.1093   -5.3254   22.9160 C.ar    1  UNL1       -0.0029
      6 C           7.9552   -5.7148   24.3564 C.ar    1  UNL1        0.0143
      7 O           9.2133   -4.2541   27.2290 O.2     1  UNL1       -0.2727
      8 C           7.9797   -4.9771   27.6827 C.2     1  UNL1        0.2493
      9 N           6.9003   -5.3106   26.6960 N.am    1  UNL1       -0.2823
     10 H           6.0907   -5.7851   26.9937 H       1  UNL1        0.1549
     11 C           7.8256   -5.3665   29.1230 C.3     1  UNL1        0.1957
     12 N           7.3218   -4.3659   30.1207 N.ar    1  UNL1       -0.2695
     13 C           7.3016   -2.9066   29.7746 C.ar    1  UNL1        0.0819
     14 C           6.7978   -1.9062   30.7722 C.ar    1  UNL1        0.0396
     15 C           6.3142   -2.3651   32.1159 C.ar    1  UNL1        0.1052
     16 N           6.3344   -3.8244   32.4620 N.ar    1  UNL1       -0.1907
     17 C           6.8382   -4.8249   31.4644 C.ar    1  UNL1        0.3506
     18 O           6.8584   -6.2843   31.8104 O.2     1  UNL1       -0.2444
     19 C           7.5167   -3.7531   20.9345 C.3     1  UNL1        0.0420
     20 C           6.3018   -3.5519   20.0779 C.3     1  UNL1        0.0585
     21 C           5.3253   -4.6147   19.6695 C.3     1  UNL1        0.0175
     22 C           4.2702   -3.9724   18.8184 C.3     1  UNL1        0.0199
     23 C           4.5947   -2.5126   18.7009 C.3     1  UNL1        0.0855
     24 N           5.8503   -2.2528   19.4793 N.3     1  UNL1       -0.2971
     25 H           5.6648   -1.5764   20.2199 H       1  UNL1        0.1233
     26 C           3.8027   -1.4919   17.9389 C.3     1  UNL1        0.1470
     27 O           4.0760   -1.2658   16.4815 O.3     1  UNL1       -0.3787
     28 H           3.4811   -0.5780   16.1438 H       1  UNL1        0.2108
     29 C           2.7373   -0.6972   18.6342 C.ar    1  UNL1        0.0055
     30 C           2.2216   -1.1424   19.9705 C.ar    1  UNL1       -0.0019
     31 C           1.1561   -0.3478   20.6659 C.ar    1  UNL1       -0.0002
     32 C           0.6064    0.8919   20.0248 C.ar    1  UNL1       -0.0000
     33 C           1.1221    1.3370   18.6885 C.ar    1  UNL1       -0.0002
     34 C           2.1876    0.5424   17.9932 C.ar    1  UNL1       -0.0019
@<TRIPOS>BOND
     1     7     8    2
     2     8    11    1
     3    11    12    1
     4    12    13   ar
     5    13    14   ar
     6    14    15   ar
     7    15    16   ar
     8    16    17   ar
     9    17    18    2
    10     8     9   am
    11     9     1    1
    12     1     2   ar
    13     2     3   ar
    14     3     4   ar
    15     4    19    1
    16    20    19    1
    17    20    21    1
    18    21    22    1
    19    23    22    1
    20    23    26    1
    21    26    27    1
    22    26    29    1
    23    29    30   ar
    24    30    31   ar
    25    31    32   ar
    26    32    33   ar
    27    33    34   ar
    28    23    24    1
    29     4     5   ar
    30     5     6   ar
    31    17    12   ar
    32     6     1   ar
    33    24    20    1
    34    34    29   ar
    35     9    10    1
    36    27    28    1
    37    24    25    1
@<TRIPOS>MOLECULE
*****
 34 37 0 0 0
SMALL
GASTEIGER

@<TRIPOS>ATOM
      1 C           4.8197   -1.0886   25.4777 C.ar    1  UNL1        0.0503
      2 C           5.7579   -2.2504   25.3358 C.ar    1  UNL1        0.0143
      3 C           5.6566   -3.1549   24.1436 C.ar    1  UNL1       -0.0029
      4 C           4.6170   -2.8977   23.0932 C.ar    1  UNL1       -0.0208
      5 C           3.6789   -1.7359   23.2351 C.ar    1  UNL1       -0.0029
      6 C           3.7802   -0.8314   24.4274 C.ar    1  UNL1        0.0143
      7 O           3.0224   -1.5156   27.8415 O.2     1  UNL1       -0.2727
      8 C           4.0224   -0.3975   27.8519 C.2     1  UNL1        0.2493
      9 N           4.9210   -0.1840   26.6700 N.am    1  UNL1       -0.2823
     10 H           5.5773    0.5498   26.6768 H       1  UNL1        0.1549
     11 C           4.1238    0.5071   29.0442 C.3     1  UNL1        0.1957
     12 N           2.8801    1.0666   29.6689 N.ar    1  UNL1       -0.2695
     13 C           1.9184    1.8654   28.8400 C.ar    1  UNL1        0.0819
     14 C           0.6748    2.4249   29.4647 C.ar    1  UNL1        0.0396
     15 C           0.3929    2.1856   30.9184 C.ar    1  UNL1        0.1052
     16 N           1.3545    1.3869   31.7474 N.ar    1  UNL1       -0.1907
     17 C           2.5981    0.8274   31.1226 C.ar    1  UNL1        0.3506
     18 O           3.5598    0.0285   31.9516 O.2     1  UNL1       -0.2444
     19 C           4.5157   -3.8022   21.9009 C.3     1  UNL1        0.0420
     20 C           4.6699   -3.2409   20.5184 C.3     1  UNL1        0.0585
     21 C           5.7467   -3.5978   19.5370 C.3     1  UNL1        0.0175
     22 C           5.5166   -2.8017   18.2866 C.3     1  UNL1        0.0199
     23 C           4.2976   -1.9528   18.4953 C.3     1  UNL1        0.0855
     24 N           3.7743   -2.2243   19.8746 N.3     1  UNL1       -0.2971
     25 H           2.8227   -2.5873   19.8186 H       1  UNL1        0.1233
     26 C           3.7058   -0.9999   17.4996 C.3     1  UNL1        0.1470
     27 O           3.6763   -1.3591   16.0436 O.3     1  UNL1       -0.3787
     28 H           3.2637   -0.6391   15.5413 H       1  UNL1        0.2108
     29 C           3.1435    0.3124   17.9598 C.ar    1  UNL1        0.0055
     30 C           1.6725    0.4480   18.2201 C.ar    1  UNL1       -0.0019
     31 C           1.1101    1.7602   18.6803 C.ar    1  UNL1       -0.0002
     32 C           2.0188    2.9369   18.8802 C.ar    1  UNL1       -0.0000
     33 C           3.4897    2.8012   18.6199 C.ar    1  UNL1       -0.0002
     34 C           4.0521    1.4890   18.1597 C.ar    1  UNL1       -0.0019
@<TRIPOS>BOND
     1     7     8    2
     2     8    11    1
     3    11    12    1
     4    12    13   ar
     5    13    14   ar
     6    14    15   ar
     7    15    16   ar
     8    16    17   ar
     9    17    18    2
    10     8     9   am
    11     9     1    1
    12     1     2   ar
    13     2     3   ar
    14     3     4   ar
    15     4    19    1
    16    20    19    1
    17    20    21    1
    18    21    22    1
    19    23    22    1
    20    23    26    1
    21    26    27    1
    22    26    29    1
    23    29    30   ar
    24    30    31   ar
    25    31    32   ar
    26    32    33   ar
    27    33    34   ar
    28    23    24    1
    29     4     5   ar
    30     5     6   ar
    31    17    12   ar
    32     6     1   ar
    33    24    20    1
    34    34    29   ar
    35     9    10    1
    36    27    28    1
    37    24    25    1
@<TRIPOS>MOLECULE
*****
 34 37 0 0 0
SMALL
GASTEIGER

@<TRIPOS>ATOM
      1 C           6.0711   -2.3360   25.5345 C.ar    1  UNL1        0.0503
      2 C           4.8458   -1.7715   24.8786 C.ar    1  UNL1        0.0143
      3 C           4.3521   -2.3516   23.5865 C.ar    1  UNL1       -0.0029
      4 C           5.0836   -3.4962   22.9502 C.ar    1  UNL1       -0.0208
      5 C           6.3088   -4.0607   23.6061 C.ar    1  UNL1       -0.0029
      6 C           6.8026   -3.4806   24.8982 C.ar    1  UNL1        0.0143
      7 O           5.9162   -3.9492   28.0592 O.2     1  UNL1       -0.2727
      8 C           6.4874   -2.5625   28.0890 C.2     1  UNL1        0.2493
      9 N           6.5648   -1.7559   26.8267 N.am    1  UNL1       -0.2823
     10 H           6.9397   -0.8458   26.8463 H       1  UNL1        0.1549
     11 C           6.9811   -1.9823   29.3812 C.3     1  UNL1        0.1957
     12 N           6.1523   -2.1085   30.6251 N.ar    1  UNL1       -0.2695
     13 C           5.0342   -1.1423   30.8825 C.ar    1  UNL1        0.0819
     14 C           4.2055   -1.2685   32.1264 C.ar    1  UNL1        0.0396
     15 C           4.4949   -2.3609   33.1128 C.ar    1  UNL1        0.1052
     16 N           5.6130   -3.3270   32.8554 N.ar    1  UNL1       -0.1907
     17 C           6.4417   -3.2008   31.6115 C.ar    1  UNL1        0.3506
     18 O           7.5599   -4.1670   31.3540 O.2     1  UNL1       -0.2444
     19 C           4.5899   -4.0763   21.6580 C.3     1  UNL1        0.0420
     20 C           4.7826   -3.3227   20.3754 C.3     1  UNL1        0.0585
     21 C           6.0234   -3.3196   19.5326 C.3     1  UNL1        0.0175
     22 C           5.7760   -2.4348   18.3467 C.3     1  UNL1        0.0199
     23 C           4.3823   -1.8912   18.4568 C.3     1  UNL1        0.0855
     24 N           3.7684   -2.4399   19.7106 N.3     1  UNL1       -0.2971
     25 H           2.9358   -2.9821   19.4798 H       1  UNL1        0.1233
     26 C           3.7190   -0.9620   17.4840 C.3     1  UNL1        0.1470
     27 O           3.6349   -1.3310   16.0325 O.3     1  UNL1       -0.3787
     28 H           3.1794   -0.6264   15.5456 H       1  UNL1        0.2108
     29 C           3.1398    0.3364   17.9624 C.ar    1  UNL1        0.0055
     30 C           1.6659    0.4517   18.2161 C.ar    1  UNL1       -0.0019
     31 C           1.0867    1.7500   18.6946 C.ar    1  UNL1       -0.0002
     32 C           1.9812    2.9329   18.9193 C.ar    1  UNL1       -0.0000
     33 C           3.4551    2.8174   18.6656 C.ar    1  UNL1       -0.0002
     34 C           4.0343    1.5192   18.1872 C.ar    1  UNL1       -0.0019
@<TRIPOS>BOND
     1     7     8    2
     2     8    11    1
     3    11    12    1
     4    12    13   ar
     5    13    14   ar
     6    14    15   ar
     7    15    16   ar
     8    16    17   ar
     9    17    18    2
    10     8     9   am
    11     9     1    1
    12     1     2   ar
    13     2     3   ar
    14     3     4   ar
    15     4    19    1
    16    20    19    1
    17    20    21    1
    18    21    22    1
    19    23    22    1
    20    23    26    1
    21    26    27    1
    22    26    29    1
    23    29    30   ar
    24    30    31   ar
    25    31    32   ar
    26    32    33   ar
    27    33    34   ar
    28    23    24    1
    29     4     5   ar
    30     5     6   ar
    31    17    12   ar
    32     6     1   ar
    33    24    20    1
    34    34    29   ar
    35     9    10    1
    36    27    28    1
    37    24    25    1
@<TRIPOS>MOLECULE
*****
 34 37 0 0 0
SMALL
GASTEIGER

@<TRIPOS>ATOM
      1 C           5.2464   -3.2474   23.0942 C.ar    1  UNL1        0.0503
      2 C           6.4528   -4.1334   22.9959 C.ar    1  UNL1        0.0143
      3 C           7.4361   -4.1897   24.1273 C.ar    1  UNL1       -0.0029
      4 C           7.2129   -3.3600   25.3569 C.ar    1  UNL1       -0.0208
      5 C           6.0065   -2.4741   25.4551 C.ar    1  UNL1       -0.0029
      6 C           5.0232   -2.4178   24.3237 C.ar    1  UNL1        0.0143
      7 O           5.8497   -1.5962   20.6632 O.2     1  UNL1       -0.2727
      8 C           4.5647   -2.3656   20.7473 C.2     1  UNL1        0.2493
      9 N           4.2631   -3.1911   21.9628 N.am    1  UNL1       -0.2823
     10 H           3.4197   -3.6960   22.0180 H       1  UNL1        0.1549
     11 C           3.5815   -2.3093   19.6160 C.3     1  UNL1        0.1957
     12 N           2.7323   -1.0883   19.4203 N.ar    1  UNL1       -0.2695
     13 C           1.4751   -0.9131   20.2195 C.ar    1  UNL1        0.0819
     14 C           0.6261    0.3078   20.0238 C.ar    1  UNL1        0.0396
     15 C           1.0342    1.3536   19.0290 C.ar    1  UNL1        0.1052
     16 N           2.2914    1.1785   18.2299 N.ar    1  UNL1       -0.1907
     17 C           3.1405   -0.0424   18.4255 C.ar    1  UNL1        0.3506
     18 O           4.3978   -0.2176   17.6263 O.2     1  UNL1       -0.2444
     19 C           8.1962   -3.4163   26.4883 C.3     1  UNL1        0.0420
     20 C           7.8947   -4.2424   27.7035 C.3     1  UNL1        0.0585
     21 C           7.9220   -5.7402   27.7803 C.3     1  UNL1        0.0175
     22 C           7.5572   -6.1393   29.1795 C.3     1  UNL1        0.0199
     23 C           7.3046   -4.8881   29.9674 C.3     1  UNL1        0.0855
     24 N           7.5132   -3.7158   29.0552 N.3     1  UNL1       -0.2971
     25 H           8.2591   -3.1227   29.4188 H       1  UNL1        0.1233
     26 C           6.9123   -4.8210   31.4136 C.3     1  UNL1        0.1470
     27 O           6.5241   -6.0722   32.1442 O.3     1  UNL1       -0.3787
     28 H           6.3009   -5.8542   33.0627 H       1  UNL1        0.2108
     29 C           6.9080   -3.5027   32.1293 C.ar    1  UNL1        0.0055
     30 C           8.2017   -2.7964   32.4076 C.ar    1  UNL1       -0.0019
     31 C           8.1976   -1.4781   33.1232 C.ar    1  UNL1       -0.0002
     32 C           6.8997   -0.8662   33.5606 C.ar    1  UNL1       -0.0000
     33 C           5.6062   -1.5726   33.2823 C.ar    1  UNL1       -0.0002
     34 C           5.6103   -2.8909   32.5666 C.ar    1  UNL1       -0.0019
@<TRIPOS>BOND
     1     7     8    2
     2     8    11    1
     3    11    12    1
     4    12    13   ar
     5    13    14   ar
     6    14    15   ar
     7    15    16   ar
     8    16    17   ar
     9    17    18    2
    10     8     9   am
    11     9     1    1
    12     1     2   ar
    13     2     3   ar
    14     3     4   ar
    15     4    19    1
    16    20    19    1
    17    20    21    1
    18    21    22    1
    19    23    22    1
    20    23    26    1
    21    26    27    1
    22    26    29    1
    23    29    30   ar
    24    30    31   ar
    25    31    32   ar
    26    32    33   ar
    27    33    34   ar
    28    23    24    1
    29     4     5   ar
    30     5     6   ar
    31    17    12   ar
    32     6     1   ar
    33    24    20    1
    34    34    29   ar
    35     9    10    1
    36    27    28    1
    37    24    25    1
@<TRIPOS>MOLECULE
*****
 34 37 0 0 0
SMALL
GASTEIGER

@<TRIPOS>ATOM
      1 C           1.4378    0.7526   18.7497 C.ar    1  UNL1        0.0503
      2 C           2.7296    0.4595   18.0460 C.ar    1  UNL1        0.0143
      3 C           3.5688   -0.7078   18.4741 C.ar    1  UNL1       -0.0029
      4 C           3.1161   -1.5820   19.6059 C.ar    1  UNL1       -0.0208
      5 C           1.8243   -1.2888   20.3096 C.ar    1  UNL1       -0.0029
      6 C           0.9851   -0.1215   19.8815 C.ar    1  UNL1        0.0143
      7 O           1.1177    3.1170   20.5682 O.2     1  UNL1       -0.2727
      8 C           0.4385    3.1021   19.2308 C.2     1  UNL1        0.2493
      9 N           0.5986    1.9198   18.3216 N.am    1  UNL1       -0.2823
     10 H           0.1528    1.9100   17.4438 H       1  UNL1        0.1549
     11 C          -0.4006    4.2693   18.8027 C.3     1  UNL1        0.1957
     12 N          -1.8633    4.0810   18.5286 N.ar    1  UNL1       -0.2695
     13 C          -2.3740    4.1253   17.1189 C.ar    1  UNL1        0.0819
     14 C          -3.8367    3.9370   16.8449 C.ar    1  UNL1        0.0396
     15 C          -4.7886    3.7044   17.9805 C.ar    1  UNL1        0.1052
     16 N          -4.2780    3.6601   19.3902 N.ar    1  UNL1       -0.1907
     17 C          -2.8153    3.8484   19.6642 C.ar    1  UNL1        0.3506
     18 O          -2.3046    3.8041   21.0739 O.2     1  UNL1       -0.2444
     19 C           3.9553   -2.7492   20.0340 C.3     1  UNL1        0.0420
     20 C           4.8497   -2.6305   21.2324 C.3     1  UNL1        0.0585
     21 C           5.9358   -1.6139   21.4246 C.3     1  UNL1        0.0175
     22 C           6.5724   -1.8626   22.7599 C.3     1  UNL1        0.0199
     23 C           5.8796   -3.0329   23.3929 C.3     1  UNL1        0.0855
     24 N           4.8149   -3.5074   22.4489 N.3     1  UNL1       -0.2971
     25 H           3.9009   -3.4419   22.8968 H       1  UNL1        0.1233
     26 C           6.1959   -3.6246   24.7344 C.3     1  UNL1        0.1470
     27 O           5.7697   -2.9163   25.9860 O.3     1  UNL1       -0.3787
     28 H           6.0506   -3.4295   26.7597 H       1  UNL1        0.2108
     29 C           6.9386   -4.9248   24.8244 C.ar    1  UNL1        0.0055
     30 C           7.7535   -5.4051   23.6603 C.ar    1  UNL1       -0.0019
     31 C           8.4961   -6.7052   23.7502 C.ar    1  UNL1       -0.0002
     32 C           8.4239   -7.5250   25.0043 C.ar    1  UNL1       -0.0000
     33 C           7.6091   -7.0446   26.1684 C.ar    1  UNL1       -0.0002
     34 C           6.8664   -5.7445   26.0785 C.ar    1  UNL1       -0.0019
@<TRIPOS>BOND
     1     7     8    2
     2     8    11    1
     3    11    12    1
     4    12    13   ar
     5    13    14   ar
     6    14    15   ar
     7    15    16   ar
     8    16    17   ar
     9    17    18    2
    10     8     9   am
    11     9     1    1
    12     1     2   ar
    13     2     3   ar
    14     3     4   ar
    15     4    19    1
    16    20    19    1
    17    20    21    1
    18    21    22    1
    19    23    22    1
    20    23    26    1
    21    26    27    1
    22    26    29    1
    23    29    30   ar
    24    30    31   ar
    25    31    32   ar
    26    32    33   ar
    27    33    34   ar
    28    23    24    1
    29     4     5   ar
    30     5     6   ar
    31    17    12   ar
    32     6     1   ar
    33    24    20    1
    34    34    29   ar
    35     9    10    1
    36    27    28    1
    37    24    25    1
@<TRIPOS>MOLECULE
*****
 34 37 0 0 0
SMALL
GASTEIGER

@<TRIPOS>ATOM
      1 C           2.9320    0.7400   18.6987 C.ar    1  UNL1        0.0503
      2 C           3.4938    2.1270   18.5941 C.ar    1  UNL1        0.0143
      3 C           2.5779    3.2913   18.3582 C.ar    1  UNL1       -0.0029
      4 C           1.1003    3.0686   18.2271 C.ar    1  UNL1       -0.0208
      5 C           0.5386    1.6817   18.3317 C.ar    1  UNL1       -0.0029
      6 C           1.4545    0.5174   18.5675 C.ar    1  UNL1        0.0143
      7 O           3.8822   -0.9140   16.3832 O.2     1  UNL1       -0.2727
      8 C           4.3230   -1.2513   17.7768 C.2     1  UNL1        0.2493
      9 N           3.8479   -0.4243   18.9345 N.am    1  UNL1       -0.2823
     10 H           4.1372   -0.6456   19.8491 H       1  UNL1        0.1549
     11 C           5.2388   -2.4156   18.0126 C.3     1  UNL1        0.1957
     12 N           5.4732   -2.9150   19.4076 N.ar    1  UNL1       -0.2695
     13 C           6.7287   -2.5398   20.1375 C.ar    1  UNL1        0.0819
     14 C           6.9629   -3.0392   21.5324 C.ar    1  UNL1        0.0396
     15 C           5.9417   -3.9138   22.1973 C.ar    1  UNL1        0.1052
     16 N           4.6862   -4.2890   21.4673 N.ar    1  UNL1       -0.1907
     17 C           4.4519   -3.7896   20.0725 C.ar    1  UNL1        0.3506
     18 O           3.1964   -4.1648   19.3425 O.2     1  UNL1       -0.2444
     19 C           0.1844    4.2329   17.9913 C.3     1  UNL1        0.0420
     20 C          -1.0336    4.4145   18.8478 C.3     1  UNL1        0.0585
     21 C          -1.2153    5.4553   19.9126 C.3     1  UNL1        0.0175
     22 C          -2.5777    5.2713   20.5128 C.3     1  UNL1        0.0199
     23 C          -3.2379    4.1168   19.8189 C.3     1  UNL1        0.0855
     24 N          -2.2835    3.5873   18.7899 N.3     1  UNL1       -0.2971
     25 H          -2.7016    3.6563   17.8621 H       1  UNL1        0.1233
     26 C          -4.6111    3.5852   20.1040 C.3     1  UNL1        0.1470
     27 O          -5.3956    2.9124   19.0167 O.3     1  UNL1       -0.3787
     28 H          -6.2554    2.6300   19.3658 H       1  UNL1        0.2108
     29 C          -5.2002    3.7262   21.4763 C.ar    1  UNL1        0.0055
     30 C          -6.5441    4.3685   21.6531 C.ar    1  UNL1       -0.0019
     31 C          -7.1332    4.5096   23.0253 C.ar    1  UNL1       -0.0002
     32 C          -6.3783    4.0084   24.2207 C.ar    1  UNL1       -0.0000
     33 C          -5.0344    3.3662   24.0438 C.ar    1  UNL1       -0.0002
     34 C          -4.4454    3.2251   22.6716 C.ar    1  UNL1       -0.0019
@<TRIPOS>BOND
     1     7     8    2
     2     8    11    1
     3    11    12    1
     4    12    13   ar
     5    13    14   ar
     6    14    15   ar
     7    15    16   ar
     8    16    17   ar
     9    17    18    2
    10     8     9   am
    11     9     1    1
    12     1     2   ar
    13     2     3   ar
    14     3     4   ar
    15     4    19    1
    16    20    19    1
    17    20    21    1
    18    21    22    1
    19    23    22    1
    20    23    26    1
    21    26    27    1
    22    26    29    1
    23    29    30   ar
    24    30    31   ar
    25    31    32   ar
    26    32    33   ar
    27    33    34   ar
    28    23    24    1
    29     4     5   ar
    30     5     6   ar
    31    17    12   ar
    32     6     1   ar
    33    24    20    1
    34    34    29   ar
    35     9    10    1
    36    27    28    1
    37    24    25    1
@<TRIPOS>MOLECULE
*****
 34 37 0 0 0
SMALL
GASTEIGER

@<TRIPOS>ATOM
      1 C           5.5138   -1.1670   30.7299 C.ar    1  UNL1        0.0503
      2 C           5.1558   -1.9720   31.9439 C.ar    1  UNL1        0.0143
      3 C           5.8486   -3.2754   32.2107 C.ar    1  UNL1       -0.0029
      4 C           6.8994   -3.7739   31.2633 C.ar    1  UNL1       -0.0208
      5 C           7.2574   -2.9689   30.0493 C.ar    1  UNL1       -0.0029
      6 C           6.5646   -1.6655   29.7826 C.ar    1  UNL1        0.0143
      7 O           2.7815   -1.1465   29.4913 O.2     1  UNL1       -0.2727
      8 C           3.4549    0.1467   29.8439 C.2     1  UNL1        0.2493
      9 N           4.8210    0.1364   30.4631 N.am    1  UNL1       -0.2823
     10 H           5.2630    0.9851   30.6945 H       1  UNL1        0.1549
     11 C           2.7621    1.4501   29.5772 C.3     1  UNL1        0.1957
     12 N           1.6646    1.5211   28.5570 N.ar    1  UNL1       -0.2695
     13 C           1.9986    1.7267   27.1092 C.ar    1  UNL1        0.0819
     14 C           0.9012    1.7977   26.0892 C.ar    1  UNL1        0.0396
     15 C          -0.5302    1.6632   26.5169 C.ar    1  UNL1        0.1052
     16 N          -0.8642    1.4576   27.9647 N.ar    1  UNL1       -0.1907
     17 C           0.2332    1.3866   28.9848 C.ar    1  UNL1        0.3506
     18 O          -0.1007    1.1810   30.4327 O.2     1  UNL1       -0.2444
     19 C           7.5922   -5.0773   31.5300 C.3     1  UNL1        0.0420
     20 C           8.0580   -5.9271   30.3850 C.3     1  UNL1        0.0585
     21 C           9.4249   -6.5252   30.2300 C.3     1  UNL1        0.0175
     22 C           9.4505   -7.2957   28.9433 C.3     1  UNL1        0.0199
     23 C           8.0994   -7.1738   28.3031 C.3     1  UNL1        0.0855
     24 N           7.2388   -6.3280   29.1941 N.3     1  UNL1       -0.2971
     25 H           6.4248   -6.8623   29.4979 H       1  UNL1        0.1233
     26 C           7.6822   -7.7896   27.0006 C.3     1  UNL1        0.1470
     27 O           7.0612   -9.1549   26.9813 O.3     1  UNL1       -0.3787
     28 H           6.8522   -9.4021   26.0669 H       1  UNL1        0.2108
     29 C           7.8859   -7.0402   25.7172 C.ar    1  UNL1        0.0055
     30 C           7.4042   -5.6253   25.5905 C.ar    1  UNL1       -0.0019
     31 C           7.6079   -4.8759   24.3072 C.ar    1  UNL1       -0.0002
     32 C           8.2932   -5.5414   23.1507 C.ar    1  UNL1       -0.0000
     33 C           8.7748   -6.9562   23.2775 C.ar    1  UNL1       -0.0002
     34 C           8.5711   -7.7056   24.5608 C.ar    1  UNL1       -0.0019
@<TRIPOS>BOND
     1     7     8    2
     2     8    11    1
     3    11    12    1
     4    12    13   ar
     5    13    14   ar
     6    14    15   ar
     7    15    16   ar
     8    16    17   ar
     9    17    18    2
    10     8     9   am
    11     9     1    1
    12     1     2   ar
    13     2     3   ar
    14     3     4   ar
    15     4    19    1
    16    20    19    1
    17    20    21    1
    18    21    22    1
    19    23    22    1
    20    23    26    1
    21    26    27    1
    22    26    29    1
    23    29    30   ar
    24    30    31   ar
    25    31    32   ar
    26    32    33   ar
    27    33    34   ar
    28    23    24    1
    29     4     5   ar
    30     5     6   ar
    31    17    12   ar
    32     6     1   ar
    33    24    20    1
    34    34    29   ar
    35     9    10    1
    36    27    28    1
    37    24    25    1
@<TRIPOS>MOLECULE
*****
 34 37 0 0 0
SMALL
GASTEIGER

@<TRIPOS>ATOM
      1 C           0.7652    1.3777   19.0927 C.ar    1  UNL1        0.0503
      2 C           0.1170    1.4082   20.4452 C.ar    1  UNL1        0.0143
      3 C          -0.8553    2.4982   20.7864 C.ar    1  UNL1       -0.0029
      4 C          -1.1795    3.5577   19.7752 C.ar    1  UNL1       -0.0208
      5 C          -0.5314    3.5271   18.4228 C.ar    1  UNL1       -0.0029
      6 C           0.4409    2.4371   18.0816 C.ar    1  UNL1        0.0143
      7 O           3.6690    1.6891   19.7788 O.2     1  UNL1       -0.2727
      8 C           3.1894    0.4433   19.0945 C.2     1  UNL1        0.2493
      9 N           1.7375    0.2877   18.7515 N.am    1  UNL1       -0.2823
     10 H           1.4227   -0.5299   18.3024 H       1  UNL1        0.1549
     11 C           4.1617   -0.6467   18.7533 C.3     1  UNL1        0.1957
     12 N           4.4269   -1.7495   19.7349 N.ar    1  UNL1       -0.2695
     13 C           3.9179   -1.6399   21.1416 C.ar    1  UNL1        0.0819
     14 C           4.1831   -2.7428   22.1231 C.ar    1  UNL1        0.0396
     15 C           4.9572   -3.9552   21.6979 C.ar    1  UNL1        0.1052
     16 N           5.4661   -4.0648   20.2912 N.ar    1  UNL1       -0.1907
     17 C           5.2010   -2.9620   19.3097 C.ar    1  UNL1        0.3506
     18 O           5.7099   -3.0715   17.9029 O.2     1  UNL1       -0.2444
     19 C          -2.1519    4.6477   20.1164 C.3     1  UNL1        0.0420
     20 C          -3.5389    4.3005   20.5701 C.3     1  UNL1        0.0585
     21 C          -4.5888    3.6126   19.7488 C.3     1  UNL1        0.0175
     22 C          -5.8183    3.4671   20.5958 C.3     1  UNL1        0.0199
     23 C          -5.5281    4.0652   21.9405 C.3     1  UNL1        0.0855
     24 N          -4.1194    4.5802   21.9246 N.3     1  UNL1       -0.2971
     25 H          -3.5696    4.1066   22.6414 H       1  UNL1        0.1233
     26 C          -6.4796    4.1359   23.0978 C.3     1  UNL1        0.1470
     27 O          -7.9407    3.8715   22.8848 O.3     1  UNL1       -0.3787
     28 H          -8.4112    3.9573   23.7287 H       1  UNL1        0.2108
     29 C          -5.9702    4.4709   24.4684 C.ar    1  UNL1        0.0055
     30 C          -4.8370    3.6859   25.0598 C.ar    1  UNL1       -0.0019
     31 C          -4.3275    4.0209   26.4302 C.ar    1  UNL1       -0.0002
     32 C          -4.9512    5.1407   27.2093 C.ar    1  UNL1       -0.0000
     33 C          -6.0844    5.9256   26.6179 C.ar    1  UNL1       -0.0002
     34 C          -6.5938    5.5906   25.2474 C.ar    1  UNL1       -0.0019
@<TRIPOS>BOND
     1     7     8    2
     2     8    11    1
     3    11    12    1
     4    12    13   ar
     5    13    14   ar
     6    14    15   ar
     7    15    16   ar
     8    16    17   ar
     9    17    18    2
    10     8     9   am
    11     9     1    1
    12     1     2   ar
    13     2     3   ar
    14     3     4   ar
    15     4    19    1
    16    20    19    1
    17    20    21    1
    18    21    22    1
    19    23    22    1
    20    23    26    1
    21    26    27    1
    22    26    29    1
    23    29    30   ar
    24    30    31   ar
    25    31    32   ar
    26    32    33   ar
    27    33    34   ar
    28    23    24    1
    29     4     5   ar
    30     5     6   ar
    31    17    12   ar
    32     6     1   ar
    33    24    20    1
    34    34    29   ar
    35     9    10    1
    36    27    28    1
    37    24    25    1
