@<TRIPOS>MOLECULE
*****
 37 38 0 0 0
SMALL
GASTEIGER

@<TRIPOS>ATOM
      1 P          -6.1721  -15.5410   24.3303 P.3     1  UNL1        0.3697
      2 O          -5.4805  -14.7890   25.4285 O.2     1  UNL1       -0.2553
      3 O          -4.9405  -16.3719   24.1236 O.3     1  UNL1       -0.3218
      4 H          -4.2533  -16.0926   24.7487 H       1  UNL1        0.2198
      5 C          -6.8637  -16.2929   23.2320 C.3     1  UNL1        0.2579
      6 O          -6.9890  -17.7857   23.3085 O.3     1  UNL1       -0.3426
      7 C          -6.6718  -18.6275   22.1082 C.3     1  UNL1        0.1387
      8 C          -7.5246  -18.5311   20.8780 C.3     1  UNL1        0.0342
      9 C          -5.5018  -19.5658   22.1382 C.3     1  UNL1        0.1384
     10 N          -4.3910  -19.4115   21.1421 N.ar    1  UNL1       -0.2918
     11 C          -4.1209  -20.3151   19.9756 C.ar    1  UNL1        0.1798
     12 N          -2.9182  -19.7885   19.2502 N.ar    1  UNL1       -0.2195
     13 C          -2.4449  -18.5596   19.9683 C.ar    1  UNL1        0.1481
     14 C          -1.3028  -17.6226   19.7086 C.ar    1  UNL1        0.1480
     15 N          -0.3926  -17.8556   18.5393 N.pl3   1  UNL1       -0.3413
     16 N          -1.0708  -16.4527   20.6182 N.ar    1  UNL1       -0.2078
     17 C          -1.9811  -16.2197   21.7874 C.ar    1  UNL1        0.2015
     18 N          -3.1232  -17.1566   22.0472 N.ar    1  UNL1       -0.2048
     19 C          -3.3552  -18.3266   21.1376 C.ar    1  UNL1        0.1674
     20 H          -0.5448  -18.6235   17.9424 H       1  UNL1        0.1438
     21 H           0.3571  -17.2406   18.3689 H       1  UNL1        0.1438
     22 O          -7.4037  -14.7100   24.5369 O.3     1  UNL1       -0.2926
     23 C          -8.6108  -15.3090   25.1957 C.3     1  UNL1        0.1514
     24 C          -8.4433  -16.3080   26.3020 C.3     1  UNL1        0.0326
     25 C          -9.1749  -17.6164   26.2481 C.3     1  UNL1        0.0026
     26 C          -9.7738  -18.0882   24.9563 C.3     1  UNL1        0.0001
     27 C          -9.9189  -19.5570   24.6891 C.3     1  UNL1        0.0000
     28 C          -9.8180  -20.0776   23.2860 C.3     1  UNL1        0.0000
     29 C         -11.0202  -20.0544   22.3891 C.3     1  UNL1        0.0000
     30 C         -10.8509  -20.1856   20.9045 C.3     1  UNL1        0.0000
     31 C         -10.6767  -18.9595   20.0582 C.3     1  UNL1        0.0000
     32 C         -11.6067  -17.7945   20.2252 C.3     1  UNL1        0.0000
     33 C         -11.1259  -16.5410   20.8943 C.3     1  UNL1        0.0000
     34 C         -11.4305  -16.3001   22.3432 C.3     1  UNL1        0.0000
     35 C         -12.7991  -16.5960   22.8812 C.3     1  UNL1        0.0000
     36 C         -14.3608  -18.1226   24.2885 C.3     1  UNL1        0.0000
     37 C         -13.0763  -17.9134   23.5427 C.3     1  UNL1        0.0000
@<TRIPOS>BOND
     1    36    37    1
     2    37    35    1
     3    35    34    1
     4    34    33    1
     5    33    32    1
     6    32    31    1
     7    31    30    1
     8    30    29    1
     9    29    28    1
    10    28    27    1
    11    27    26    1
    12    26    25    1
    13    25    24    1
    14    24    23    1
    15    23    22    1
    16    22     1    1
    17     1     2    2
    18     1     3    1
    19     1     5    1
    20     5     6    1
    21     6     7    1
    22     7     8    1
    23     7     9    1
    24     9    10    1
    25    10    11   ar
    26    11    12   ar
    27    12    13   ar
    28    13    14   ar
    29    14    15    1
    30    14    16   ar
    31    16    17   ar
    32    17    18   ar
    33    18    19   ar
    34    19    10   ar
    35    19    13   ar
    36     3     4    1
    37    15    20    1
    38    15    21    1
@<TRIPOS>MOLECULE
*****
 37 38 0 0 0
SMALL
GASTEIGER

@<TRIPOS>ATOM
      1 P          -5.6809  -15.7451   24.0592 P.3     1  UNL1        0.3697
      2 O          -5.2962  -14.7781   25.1394 O.2     1  UNL1       -0.2553
      3 O          -4.4354  -16.5375   24.3249 O.3     1  UNL1       -0.3218
      4 H          -3.9323  -16.1188   25.0407 H       1  UNL1        0.2198
      5 C          -6.0657  -16.7121   22.9790 C.3     1  UNL1        0.2579
      6 O          -6.1985  -18.1729   23.2924 O.3     1  UNL1       -0.3426
      7 C          -6.4994  -19.1510   22.1958 C.3     1  UNL1        0.1387
      8 C          -7.7035  -20.0402   22.2934 C.3     1  UNL1        0.0342
      9 C          -5.5963  -19.2399   21.0013 C.3     1  UNL1        0.1384
     10 N          -4.1161  -19.0602   21.1652 N.ar    1  UNL1       -0.2918
     11 C          -3.3164  -19.4027   22.3871 C.ar    1  UNL1        0.1798
     12 N          -1.8818  -19.0606   22.1130 N.ar    1  UNL1       -0.2195
     13 C          -1.7950  -18.5067   20.7217 C.ar    1  UNL1        0.1481
     14 C          -0.6370  -18.0026   19.9126 C.ar    1  UNL1        0.1480
     15 N           0.7439  -18.0029   20.4984 N.pl3   1  UNL1       -0.3413
     16 N          -0.8598  -17.4983   18.5176 N.ar    1  UNL1       -0.2078
     17 C          -2.2407  -17.4980   17.9318 C.ar    1  UNL1        0.2015
     18 N          -3.3988  -18.0021   18.7410 N.ar    1  UNL1       -0.2048
     19 C          -3.1759  -18.5065   20.1359 C.ar    1  UNL1        0.1674
     20 H           0.8902  -18.3339   21.4139 H       1  UNL1        0.1438
     21 H           1.5040  -17.6720   19.9673 H       1  UNL1        0.1438
     22 O          -6.9265  -14.9527   23.7935 O.3     1  UNL1       -0.2926
     23 C          -8.0666  -14.9985   24.7672 C.3     1  UNL1        0.1514
     24 C          -8.4699  -16.3026   25.3890 C.3     1  UNL1        0.0326
     25 C          -9.3718  -17.2416   24.6440 C.3     1  UNL1        0.0026
     26 C          -9.9158  -18.4604   25.3286 C.3     1  UNL1        0.0001
     27 C         -10.6497  -19.5011   24.5360 C.3     1  UNL1        0.0000
     28 C         -11.4956  -19.0945   23.3659 C.3     1  UNL1        0.0000
     29 C         -12.6845  -18.2036   23.5735 C.3     1  UNL1        0.0000
     30 C         -12.8716  -16.9898   22.7123 C.3     1  UNL1        0.0000
     31 C         -11.6852  -16.3397   22.0645 C.3     1  UNL1        0.0000
     32 C         -11.6155  -16.2249   20.5705 C.3     1  UNL1        0.0000
     33 C         -11.3285  -17.4390   19.7376 C.3     1  UNL1        0.0000
     34 C         -10.1522  -18.3109   20.0633 C.3     1  UNL1        0.0000
     35 C         -10.1240  -19.7368   19.5987 C.3     1  UNL1        0.0000
     36 C          -9.1962  -20.9952   17.5238 C.3     1  UNL1        0.0000
     37 C          -8.9598  -20.2425   18.7995 C.3     1  UNL1        0.0000
@<TRIPOS>BOND
     1    36    37    1
     2    37    35    1
     3    35    34    1
     4    34    33    1
     5    33    32    1
     6    32    31    1
     7    31    30    1
     8    30    29    1
     9    29    28    1
    10    28    27    1
    11    27    26    1
    12    26    25    1
    13    25    24    1
    14    24    23    1
    15    23    22    1
    16    22     1    1
    17     1     2    2
    18     1     3    1
    19     1     5    1
    20     5     6    1
    21     6     7    1
    22     7     8    1
    23     7     9    1
    24     9    10    1
    25    10    11   ar
    26    11    12   ar
    27    12    13   ar
    28    13    14   ar
    29    14    15    1
    30    14    16   ar
    31    16    17   ar
    32    17    18   ar
    33    18    19   ar
    34    19    10   ar
    35    19    13   ar
    36     3     4    1
    37    15    20    1
    38    15    21    1
@<TRIPOS>MOLECULE
*****
 37 38 0 0 0
SMALL
GASTEIGER

@<TRIPOS>ATOM
      1 P           5.8103   -3.7567   23.5100 P.3     1  UNL1        0.3697
      2 O           4.4120   -3.3054   23.2081 O.2     1  UNL1       -0.2553
      3 O           5.6766   -3.2344   24.9098 O.3     1  UNL1       -0.3218
      4 H           4.7953   -2.8467   25.0274 H       1  UNL1        0.2198
      5 C           7.2086   -4.2080   23.8120 C.3     1  UNL1        0.2579
      6 O           7.6539   -5.5850   23.4178 O.3     1  UNL1       -0.3426
      7 C           8.7130   -6.2876   24.2145 C.3     1  UNL1        0.1387
      8 C           9.1477   -7.6705   23.8291 C.3     1  UNL1        0.0342
      9 C           9.3374   -5.6072   25.3966 C.3     1  UNL1        0.1384
     10 N           8.8430   -5.9054   26.7811 N.ar    1  UNL1       -0.2918
     11 C           9.0886   -7.1684   27.5520 C.ar    1  UNL1        0.1798
     12 N           8.4136   -7.0365   28.8850 N.ar    1  UNL1       -0.2195
     13 C           7.7509   -5.6919   28.9380 C.ar    1  UNL1        0.1481
     14 C           6.9400   -5.0137   30.0022 C.ar    1  UNL1        0.1480
     15 N           6.6747   -5.7128   31.3025 N.pl3   1  UNL1       -0.3413
     16 N           6.3946   -3.6366   29.7661 N.ar    1  UNL1       -0.2078
     17 C           6.6599   -2.9375   28.4658 C.ar    1  UNL1        0.2015
     18 N           7.4708   -3.6156   27.4015 N.ar    1  UNL1       -0.2048
     19 C           8.0162   -4.9928   27.6376 C.ar    1  UNL1        0.1674
     20 H           7.0327   -6.6167   31.4575 H       1  UNL1        0.1438
     21 H           6.1425   -5.2677   32.0010 H       1  UNL1        0.1438
     22 O           5.9440   -4.2790   22.1103 O.3     1  UNL1       -0.2926
     23 C           5.4171   -3.4774   20.9571 C.3     1  UNL1        0.1514
     24 C           4.8815   -4.1744   19.7417 C.3     1  UNL1        0.0326
     25 C           4.7114   -3.4183   18.4575 C.3     1  UNL1        0.0026
     26 C           5.0344   -1.9546   18.4005 C.3     1  UNL1        0.0001
     27 C           6.4182   -1.5055   18.0356 C.3     1  UNL1        0.0000
     28 C           6.6205   -0.1978   17.3291 C.3     1  UNL1        0.0000
     29 C           5.4663    0.7430   17.1475 C.3     1  UNL1        0.0000
     30 C           5.1007    1.7015   18.2418 C.3     1  UNL1        0.0000
     31 C           3.6731    1.8243   18.6853 C.3     1  UNL1        0.0000
     32 C           2.6378    0.8795   18.1511 C.3     1  UNL1        0.0000
     33 C           1.2627    0.8569   18.7500 C.3     1  UNL1        0.0000
     34 C           0.9193   -0.1564   19.8014 C.3     1  UNL1        0.0000
     35 C           1.9409   -1.1671   20.2312 C.3     1  UNL1        0.0000
     36 C           2.5494    0.2708   22.3078 C.3     1  UNL1        0.0000
     37 C           2.8601   -0.8638   21.3771 C.3     1  UNL1        0.0000
@<TRIPOS>BOND
     1    36    37    1
     2    37    35    1
     3    35    34    1
     4    34    33    1
     5    33    32    1
     6    32    31    1
     7    31    30    1
     8    30    29    1
     9    29    28    1
    10    28    27    1
    11    27    26    1
    12    26    25    1
    13    25    24    1
    14    24    23    1
    15    23    22    1
    16    22     1    1
    17     1     2    2
    18     1     3    1
    19     1     5    1
    20     5     6    1
    21     6     7    1
    22     7     8    1
    23     7     9    1
    24     9    10    1
    25    10    11   ar
    26    11    12   ar
    27    12    13   ar
    28    13    14   ar
    29    14    15    1
    30    14    16   ar
    31    16    17   ar
    32    17    18   ar
    33    18    19   ar
    34    19    10   ar
    35    19    13   ar
    36     3     4    1
    37    15    20    1
    38    15    21    1
@<TRIPOS>MOLECULE
*****
 37 38 0 0 0
SMALL
GASTEIGER

@<TRIPOS>ATOM
      1 P           6.9396   -5.5393   27.4499 P.3     1  UNL1        0.3697
      2 O           6.6214   -6.6899   26.5418 O.2     1  UNL1       -0.2553
      3 O           5.5739   -5.6442   28.0613 O.3     1  UNL1       -0.3218
      4 H           5.0855   -6.3683   27.6394 H       1  UNL1        0.2198
      5 C           7.2578   -4.3887   28.3581 C.3     1  UNL1        0.2579
      6 O           6.8812   -4.4516   29.8087 O.3     1  UNL1       -0.3426
      7 C           6.6021   -3.1877   30.5667 C.3     1  UNL1        0.1387
      8 C           6.4867   -3.2199   32.0619 C.3     1  UNL1        0.0342
      9 C           6.4384   -1.8916   29.8295 C.3     1  UNL1        0.1384
     10 N           5.1375   -1.5716   29.1549 N.ar    1  UNL1       -0.2918
     11 C           4.7547   -1.9479   27.7542 C.ar    1  UNL1        0.1798
     12 N           3.3715   -1.4280   27.4962 N.ar    1  UNL1       -0.2195
     13 C           2.8995   -0.7304   28.7374 C.ar    1  UNL1        0.1481
     14 C           1.6168   -0.0258   29.0665 C.ar    1  UNL1        0.1480
     15 N           0.5254    0.0630   28.0414 N.pl3   1  UNL1       -0.3413
     16 N           1.4256    0.5899   30.4209 N.ar    1  UNL1       -0.2078
     17 C           2.5170    0.5012   31.4460 C.ar    1  UNL1        0.2015
     18 N           3.7997   -0.2034   31.1168 N.ar    1  UNL1       -0.2048
     19 C           3.9909   -0.8192   29.7625 C.ar    1  UNL1        0.1674
     20 H           0.6509   -0.3412   27.1525 H       1  UNL1        0.1438
     21 H          -0.3164    0.5254   28.2575 H       1  UNL1        0.1438
     22 O           8.3053   -5.4344   26.8385 O.3     1  UNL1       -0.2926
     23 C           8.4515   -5.2377   25.3587 C.3     1  UNL1        0.1514
     24 C           8.5941   -3.8545   24.7964 C.3     1  UNL1        0.0326
     25 C           7.5219   -3.2902   23.9121 C.3     1  UNL1        0.0026
     26 C           6.0970   -3.7235   24.0911 C.3     1  UNL1        0.0001
     27 C           4.9787   -2.7860   23.7441 C.3     1  UNL1        0.0000
     28 C           4.3658   -2.8236   22.3756 C.3     1  UNL1        0.0000
     29 C           4.6215   -3.9927   21.4711 C.3     1  UNL1        0.0000
     30 C           3.9444   -4.0692   20.1348 C.3     1  UNL1        0.0000
     31 C           4.7632   -4.2144   18.8863 C.3     1  UNL1        0.0000
     32 C           5.2512   -2.9942   18.1633 C.3     1  UNL1        0.0000
     33 C           6.1008   -1.9872   18.8803 C.3     1  UNL1        0.0000
     34 C           5.5665   -0.6121   19.1513 C.3     1  UNL1        0.0000
     35 C           4.1051   -0.3263   18.9710 C.3     1  UNL1        0.0000
     36 C           1.8742   -1.0414   20.0943 C.3     1  UNL1        0.0000
     37 C           3.1893   -0.3229   20.1590 C.3     1  UNL1        0.0000
@<TRIPOS>BOND
     1    36    37    1
     2    37    35    1
     3    35    34    1
     4    34    33    1
     5    33    32    1
     6    32    31    1
     7    31    30    1
     8    30    29    1
     9    29    28    1
    10    28    27    1
    11    27    26    1
    12    26    25    1
    13    25    24    1
    14    24    23    1
    15    23    22    1
    16    22     1    1
    17     1     2    2
    18     1     3    1
    19     1     5    1
    20     5     6    1
    21     6     7    1
    22     7     8    1
    23     7     9    1
    24     9    10    1
    25    10    11   ar
    26    11    12   ar
    27    12    13   ar
    28    13    14   ar
    29    14    15    1
    30    14    16   ar
    31    16    17   ar
    32    17    18   ar
    33    18    19   ar
    34    19    10   ar
    35    19    13   ar
    36     3     4    1
    37    15    20    1
    38    15    21    1
@<TRIPOS>MOLECULE
*****
 37 38 0 0 0
SMALL
GASTEIGER

@<TRIPOS>ATOM
      1 P           3.4652   -0.4727   26.6215 P.3     1  UNL1        0.3697
      2 O           3.4988   -1.6703   27.5239 O.2     1  UNL1       -0.2553
      3 O           3.3788    0.4270   27.8186 O.3     1  UNL1       -0.3218
      4 H           3.3807   -0.1092   28.6269 H       1  UNL1        0.2198
      5 C           3.4315    0.7250   25.7190 C.3     1  UNL1        0.2579
      6 O           2.3314    1.7356   25.8545 O.3     1  UNL1       -0.3426
      7 C           0.9649    1.4337   25.3147 C.3     1  UNL1        0.1387
      8 C           0.7656    1.2463   23.8399 C.3     1  UNL1        0.0342
      9 C          -0.2025    1.3192   26.2499 C.3     1  UNL1        0.1384
     10 N           0.0293    1.1813   27.7254 N.ar    1  UNL1       -0.2918
     11 C           0.0426   -0.1034   28.4996 C.ar    1  UNL1        0.1798
     12 N           0.3100    0.2253   29.9385 N.ar    1  UNL1       -0.2195
     13 C           0.4620    1.7132   30.0536 C.ar    1  UNL1        0.1481
     14 C           0.7360    2.6063   31.2272 C.ar    1  UNL1        0.1480
     15 N           0.9094    2.0154   32.5949 N.pl3   1  UNL1       -0.3413
     16 N           0.8365    4.0902   31.0329 N.ar    1  UNL1       -0.2078
     17 C           0.6630    4.6811   29.6652 C.ar    1  UNL1        0.2015
     18 N           0.3890    3.7880   28.4916 N.ar    1  UNL1       -0.2048
     19 C           0.2885    2.3040   28.6858 C.ar    1  UNL1        0.1674
     20 H           0.8435    1.0414   32.7224 H       1  UNL1        0.1438
     21 H           1.0893    2.6016   33.3652 H       1  UNL1        0.1438
     22 O           3.5515   -1.3723   25.4243 O.3     1  UNL1       -0.2926
     23 C           3.8584   -0.7963   24.0738 C.3     1  UNL1        0.1514
     24 C           3.6663   -1.6298   22.8416 C.3     1  UNL1        0.0326
     25 C           3.5276   -0.9681   21.5026 C.3     1  UNL1        0.0026
     26 C           2.1669   -0.7566   20.9079 C.3     1  UNL1        0.0001
     27 C           2.0001   -0.6991   19.4183 C.3     1  UNL1        0.0000
     28 C           1.6870    0.6059   18.7484 C.3     1  UNL1        0.0000
     29 C           2.7972    1.5448   18.3793 C.3     1  UNL1        0.0000
     30 C           4.2233    1.0857   18.4525 C.3     1  UNL1        0.0000
     31 C           4.7648    0.1515   17.4113 C.3     1  UNL1        0.0000
     32 C           6.0068   -0.6424   17.6891 C.3     1  UNL1        0.0000
     33 C           6.1999   -1.2886   19.0289 C.3     1  UNL1        0.0000
     34 C           5.8960   -2.7463   19.2092 C.3     1  UNL1        0.0000
     35 C           4.7947   -3.3865   18.4172 C.3     1  UNL1        0.0000
     36 C           3.5573   -5.2137   19.7885 C.3     1  UNL1        0.0000
     37 C           3.5580   -3.8752   19.1113 C.3     1  UNL1        0.0000
@<TRIPOS>BOND
     1    36    37    1
     2    37    35    1
     3    35    34    1
     4    34    33    1
     5    33    32    1
     6    32    31    1
     7    31    30    1
     8    30    29    1
     9    29    28    1
    10    28    27    1
    11    27    26    1
    12    26    25    1
    13    25    24    1
    14    24    23    1
    15    23    22    1
    16    22     1    1
    17     1     2    2
    18     1     3    1
    19     1     5    1
    20     5     6    1
    21     6     7    1
    22     7     8    1
    23     7     9    1
    24     9    10    1
    25    10    11   ar
    26    11    12   ar
    27    12    13   ar
    28    13    14   ar
    29    14    15    1
    30    14    16   ar
    31    16    17   ar
    32    17    18   ar
    33    18    19   ar
    34    19    10   ar
    35    19    13   ar
    36     3     4    1
    37    15    20    1
    38    15    21    1
@<TRIPOS>MOLECULE
*****
 37 38 0 0 0
SMALL
GASTEIGER

@<TRIPOS>ATOM
      1 P           4.5329   -4.1170   19.5243 P.3     1  UNL1        0.3697
      2 O           3.1878   -4.5198   18.9966 O.2     1  UNL1       -0.2553
      3 O           4.1908   -4.7184   20.8552 O.3     1  UNL1       -0.3218
      4 H           3.2970   -5.0936   20.8204 H       1  UNL1        0.2198
      5 C           5.8780   -3.7142   20.0521 C.3     1  UNL1        0.2579
      6 O           6.7521   -4.7276   20.7294 O.3     1  UNL1       -0.3426
      7 C           7.7919   -4.2824   21.7146 C.3     1  UNL1        0.1387
      8 C           9.2457   -4.5134   21.4266 C.3     1  UNL1        0.0342
      9 C           7.3777   -3.6061   22.9880 C.3     1  UNL1        0.1384
     10 N           7.2985   -4.3921   24.2632 N.ar    1  UNL1       -0.2918
     11 C           7.6506   -5.8407   24.4293 C.ar    1  UNL1        0.1798
     12 N           7.4230   -6.2112   25.8649 N.ar    1  UNL1       -0.2195
     13 C           6.9303   -4.9916   26.5860 C.ar    1  UNL1        0.1481
     14 C           6.5418   -4.7596   28.0160 C.ar    1  UNL1        0.1480
     15 N           6.6187   -5.8840   29.0060 N.pl3   1  UNL1       -0.3413
     16 N           6.0763   -3.4034   28.4562 N.ar    1  UNL1       -0.2078
     17 C           5.9994   -2.2790   27.4662 C.ar    1  UNL1        0.2015
     18 N           6.3879   -2.5110   26.0361 N.ar    1  UNL1       -0.2048
     19 C           6.8534   -3.8673   25.5960 C.ar    1  UNL1        0.1674
     20 H           6.9242   -6.7742   28.7171 H       1  UNL1        0.1438
     21 H           6.3637   -5.7317   29.9446 H       1  UNL1        0.1438
     22 O           4.8750   -3.5156   18.1935 O.3     1  UNL1       -0.2926
     23 C           5.1971   -2.0542   18.0913 C.3     1  UNL1        0.1514
     24 C           4.1494   -1.0857   17.6283 C.3     1  UNL1        0.0326
     25 C           4.4610    0.3800   17.5594 C.3     1  UNL1        0.0026
     26 C           4.0316    1.2910   18.6710 C.3     1  UNL1        0.0001
     27 C           2.7761    2.1004   18.5349 C.3     1  UNL1        0.0000
     28 C           1.4469    1.4121   18.4370 C.3     1  UNL1        0.0000
     29 C           0.5756    1.2876   19.6517 C.3     1  UNL1        0.0000
     30 C           0.4791   -0.0233   20.3744 C.3     1  UNL1        0.0000
     31 C           1.5561   -1.0537   20.2058 C.3     1  UNL1        0.0000
     32 C           2.7717   -1.0186   21.0838 C.3     1  UNL1        0.0000
     33 C           2.7718   -0.1864   22.3317 C.3     1  UNL1        0.0000
     34 C           3.3964    1.1774   22.3237 C.3     1  UNL1        0.0000
     35 C           2.8003    2.2803   23.1472 C.3     1  UNL1        0.0000
     36 C           0.2125    2.4191   23.3315 C.3     1  UNL1        0.0000
     37 C           1.5003    2.9052   22.7354 C.3     1  UNL1        0.0000
@<TRIPOS>BOND
     1    36    37    1
     2    37    35    1
     3    35    34    1
     4    34    33    1
     5    33    32    1
     6    32    31    1
     7    31    30    1
     8    30    29    1
     9    29    28    1
    10    28    27    1
    11    27    26    1
    12    26    25    1
    13    25    24    1
    14    24    23    1
    15    23    22    1
    16    22     1    1
    17     1     2    2
    18     1     3    1
    19     1     5    1
    20     5     6    1
    21     6     7    1
    22     7     8    1
    23     7     9    1
    24     9    10    1
    25    10    11   ar
    26    11    12   ar
    27    12    13   ar
    28    13    14   ar
    29    14    15    1
    30    14    16   ar
    31    16    17   ar
    32    17    18   ar
    33    18    19   ar
    34    19    10   ar
    35    19    13   ar
    36     3     4    1
    37    15    20    1
    38    15    21    1
