@<TRIPOS>MOLECULE
*****
 27 28 0 0 0
SMALL
GASTEIGER

@<TRIPOS>ATOM
      1 C          -8.3486  -16.4881   23.0124 C.ar    1  UNL1        0.0191
      2 C          -7.7146  -17.7577   22.5263 C.ar    1  UNL1        0.0063
      3 C          -6.2546  -18.0059   22.7645 C.ar    1  UNL1        0.0581
      4 C          -5.4286  -16.9847   23.4888 C.ar    1  UNL1        0.2297
      5 N          -6.0626  -15.7151   23.9749 N.ar    1  UNL1       -0.2098
      6 C          -7.5226  -15.4669   23.7367 C.ar    1  UNL1        0.1020
      7 C         -10.4210  -16.5816   21.4483 C.2     1  UNL1       -0.0069
      8 C          -9.8086  -16.2399   22.7742 C.2     1  UNL1       -0.0014
      9 C         -11.8810  -16.3334   21.2101 C.3     1  UNL1        0.0939
     10 C         -12.3598  -15.9238   19.8488 C.3     1  UNL1        0.0262
     11 C         -13.9548  -17.9695   24.1718 C.3     1  UNL1        0.0946
     12 C         -12.9736  -17.8082   23.0488 C.2     1  UNL1        0.2232
     13 O         -12.1039  -18.9604   22.6416 O.2     1  UNL1       -0.2751
     14 N         -12.8622  -16.4947   22.3331 N.am    1  UNL1       -0.3022
     15 H         -13.4330  -15.7384   22.6004 H       1  UNL1        0.1497
     16 O          -3.9686  -17.2329   23.7270 O.3     1  UNL1       -0.4352
     17 C          -3.0474  -17.4615   22.5655 C.ar    1  UNL1        0.1578
     18 C          -2.2648  -16.3173   21.9924 C.ar    1  UNL1        0.0415
     19 C          -1.3436  -16.5459   20.8309 C.ar    1  UNL1        0.0401
     20 C          -1.2050  -17.9187   20.2425 C.ar    1  UNL1        0.1397
     21 C          -1.9876  -19.0628   20.8155 C.ar    1  UNL1        0.0514
     22 C          -2.9088  -18.8343   21.9771 C.ar    1  UNL1        0.0952
     23 CL         -3.6914  -19.9785   22.5501 Cl      1  UNL1       -0.0790
     24 O          -0.2838  -18.1472   19.0809 O.3     1  UNL1       -0.4724
     25 C          -0.7179  -17.7736   17.6946 C.3     1  UNL1        0.2434
     26 C          -2.1782  -17.6661   17.3694 C.3     1  UNL1        0.2403
     27 F          -2.9879  -16.5303   17.9214 F       1  UNL1       -0.2302
@<TRIPOS>BOND
     1    11    12    1
     2    12    13    2
     3    12    14   am
     4    14     9    1
     5     9    10    1
     6     9     7    1
     7     7     8    2
     8     8     1    1
     9     1     2   ar
    10     2     3   ar
    11     3     4   ar
    12     4    16    1
    13    16    17    1
    14    17    18   ar
    15    18    19   ar
    16    19    20   ar
    17    20    24    1
    18    24    25    1
    19    25    26    1
    20    26    27    1
    21    20    21   ar
    22    21    22   ar
    23    22    23    1
    24     4     5   ar
    25     5     6   ar
    26     6     1   ar
    27    22    17   ar
    28    14    15    1
@<TRIPOS>MOLECULE
*****
 27 28 0 0 0
SMALL
GASTEIGER

@<TRIPOS>ATOM
      1 C          -4.3152  -19.5126   20.6659 C.ar    1  UNL1        0.0191
      2 C          -5.2424  -20.6283   20.2844 C.ar    1  UNL1        0.0063
      3 C          -6.5372  -20.8118   21.0191 C.ar    1  UNL1        0.0581
      4 C          -6.9048  -19.8797   22.1353 C.ar    1  UNL1        0.2297
      5 N          -5.9777  -18.7640   22.5168 N.ar    1  UNL1       -0.2098
      6 C          -4.6829  -18.5805   21.7821 C.ar    1  UNL1        0.1020
      7 C          -2.8451  -18.1669   18.9993 C.2     1  UNL1       -0.0069
      8 C          -3.0204  -19.3290   19.9312 C.2     1  UNL1       -0.0014
      9 C          -1.5503  -17.9833   18.2646 C.3     1  UNL1        0.0939
     10 C          -1.5581  -17.5644   16.8242 C.3     1  UNL1        0.0262
     11 C           1.4378  -17.6001   20.8481 C.3     1  UNL1        0.0946
     12 C           0.1352  -17.3648   20.1425 C.2     1  UNL1        0.2232
     13 O          -0.7844  -16.2756   20.6092 O.2     1  UNL1       -0.2751
     14 N          -0.2477  -18.2187   18.9702 N.am    1  UNL1       -0.3022
     15 H           0.3559  -18.9336   18.6639 H       1  UNL1        0.1497
     16 O          -8.1997  -20.0632   22.8700 O.3     1  UNL1       -0.4352
     17 C          -9.4223  -19.3114   22.4343 C.ar    1  UNL1        0.1578
     18 C         -10.1767  -19.7491   21.2138 C.ar    1  UNL1        0.0415
     19 C         -11.3993  -18.9972   20.7782 C.ar    1  UNL1        0.0401
     20 C         -11.8676  -17.8077   21.5629 C.ar    1  UNL1        0.1397
     21 C         -11.1133  -17.3701   22.7833 C.ar    1  UNL1        0.0514
     22 C          -9.8906  -18.1219   23.2190 C.ar    1  UNL1        0.0952
     23 CL         -9.1363  -17.6843   24.4394 Cl      1  UNL1       -0.0790
     24 O         -13.0903  -17.0559   21.1271 O.3     1  UNL1       -0.4724
     25 C         -12.9859  -16.0095   20.0575 C.3     1  UNL1        0.2434
     26 C         -11.6570  -15.7082   19.4304 C.3     1  UNL1        0.2403
     27 F         -10.5124  -15.2471   20.2834 F       1  UNL1       -0.2302
@<TRIPOS>BOND
     1    11    12    1
     2    12    13    2
     3    12    14   am
     4    14     9    1
     5     9    10    1
     6     9     7    1
     7     7     8    2
     8     8     1    1
     9     1     2   ar
    10     2     3   ar
    11     3     4   ar
    12     4    16    1
    13    16    17    1
    14    17    18   ar
    15    18    19   ar
    16    19    20   ar
    17    20    24    1
    18    24    25    1
    19    25    26    1
    20    26    27    1
    21    20    21   ar
    22    21    22   ar
    23    22    23    1
    24     4     5   ar
    25     5     6   ar
    26     6     1   ar
    27    22    17   ar
    28    14    15    1
@<TRIPOS>MOLECULE
*****
 27 28 0 0 0
SMALL
GASTEIGER

@<TRIPOS>ATOM
      1 C           1.4838   -0.1663   19.7381 C.ar    1  UNL1        0.0191
      2 C           1.6320    0.7660   18.5725 C.ar    1  UNL1        0.0063
      3 C           0.8526    2.0470   18.5328 C.ar    1  UNL1        0.0581
      4 C          -0.0750    2.3957   19.6587 C.ar    1  UNL1        0.2297
      5 N          -0.2232    1.4634   20.8244 N.ar    1  UNL1       -0.2098
      6 C           0.5562    0.1824   20.8641 C.ar    1  UNL1        0.1020
      7 C           3.7040   -1.4618   19.3611 C.2     1  UNL1       -0.0069
      8 C           2.2632   -1.4473   19.7778 C.2     1  UNL1       -0.0014
      9 C           4.4834   -2.7428   19.4007 C.3     1  UNL1        0.0939
     10 C           3.8044   -4.0438   19.0901 C.3     1  UNL1        0.0262
     11 C           8.4203   -2.3887   19.0476 C.3     1  UNL1        0.0946
     12 C           6.9620   -2.4086   18.6973 C.2     1  UNL1        0.2232
     13 O           6.5239   -2.1143   17.2932 O.2     1  UNL1       -0.2751
     14 N           5.9418   -2.7229   19.7510 N.am    1  UNL1       -0.3022
     15 H           6.2293   -2.9160   20.6726 H       1  UNL1        0.1497
     16 O          -0.8544    3.6767   19.6191 O.3     1  UNL1       -0.4352
     17 C          -2.3431    3.6436   19.4385 C.ar    1  UNL1        0.1578
     18 C          -3.2343    3.3525   20.6095 C.ar    1  UNL1        0.0415
     19 C          -4.7230    3.3194   20.4290 C.ar    1  UNL1        0.0401
     20 C          -5.3206    3.5773   19.0775 C.ar    1  UNL1        0.1397
     21 C          -4.4294    3.8683   17.9066 C.ar    1  UNL1        0.0514
     22 C          -2.9407    3.9015   18.0871 C.ar    1  UNL1        0.0952
     23 CL         -2.0495    4.1925   16.9162 Cl      1  UNL1       -0.0790
     24 O          -6.8094    3.5442   18.8971 O.3     1  UNL1       -0.4724
     25 C          -7.5671    4.8203   18.6799 C.3     1  UNL1        0.2434
     26 C          -7.7195    5.8025   19.8033 C.3     1  UNL1        0.2403
     27 F          -7.2508    5.4434   21.1823 F       1  UNL1       -0.2302
@<TRIPOS>BOND
     1    11    12    1
     2    12    13    2
     3    12    14   am
     4    14     9    1
     5     9    10    1
     6     9     7    1
     7     7     8    2
     8     8     1    1
     9     1     2   ar
    10     2     3   ar
    11     3     4   ar
    12     4    16    1
    13    16    17    1
    14    17    18   ar
    15    18    19   ar
    16    19    20   ar
    17    20    24    1
    18    24    25    1
    19    25    26    1
    20    26    27    1
    21    20    21   ar
    22    21    22   ar
    23    22    23    1
    24     4     5   ar
    25     5     6   ar
    26     6     1   ar
    27    22    17   ar
    28    14    15    1
@<TRIPOS>MOLECULE
*****
 27 28 0 0 0
SMALL
GASTEIGER

@<TRIPOS>ATOM
      1 C           1.5612   -0.2647   19.7312 C.ar    1  UNL1        0.0191
      2 C           1.7360    0.6792   18.5786 C.ar    1  UNL1        0.0063
      3 C           0.9040    1.9246   18.4962 C.ar    1  UNL1        0.0581
      4 C          -0.1028    2.2262   19.5664 C.ar    1  UNL1        0.2297
      5 N          -0.2776    1.2822   20.7190 N.ar    1  UNL1       -0.2098
      6 C           0.5543    0.0368   20.8014 C.ar    1  UNL1        0.1020
      7 C           3.7940   -1.5130   19.2775 C.2     1  UNL1       -0.0069
      8 C           2.3931   -1.5101   19.8135 C.2     1  UNL1       -0.0014
      9 C           4.6260   -2.7584   19.3598 C.3     1  UNL1        0.0939
     10 C           4.0126   -4.0919   19.0505 C.3     1  UNL1        0.0262
     11 C           8.5582   -2.2868   19.1051 C.3     1  UNL1        0.0946
     12 C           7.1129   -2.3748   18.7135 C.2     1  UNL1        0.2232
     13 O           6.7094   -2.1673   17.2838 O.2     1  UNL1       -0.2751
     14 N           6.0712   -2.6704   19.7515 N.am    1  UNL1       -0.3022
     15 H           6.3361   -2.8066   20.6898 H       1  UNL1        0.1497
     16 O          -0.9347    3.4716   19.4841 O.3     1  UNL1       -0.4352
     17 C          -2.2412    3.5505   20.2167 C.ar    1  UNL1        0.1578
     18 C          -2.2670    3.4754   21.7146 C.ar    1  UNL1        0.0415
     19 C          -3.5735    3.5544   22.4472 C.ar    1  UNL1        0.0401
     20 C          -4.8543    3.7085   21.6820 C.ar    1  UNL1        0.1397
     21 C          -4.8287    3.7837   20.1841 C.ar    1  UNL1        0.0514
     22 C          -3.5221    3.7047   19.4514 C.ar    1  UNL1        0.0952
     23 CL         -3.4965    3.7798   17.9536 Cl      1  UNL1       -0.0790
     24 O          -6.1609    3.7875   22.4146 O.3     1  UNL1       -0.4724
     25 C          -6.3911    4.8743   23.4224 C.3     1  UNL1        0.2434
     26 C          -6.2086    4.5924   24.8843 C.3     1  UNL1        0.2403
     27 F          -5.3506    3.4437   25.3253 F       1  UNL1       -0.2302
@<TRIPOS>BOND
     1    11    12    1
     2    12    13    2
     3    12    14   am
     4    14     9    1
     5     9    10    1
     6     9     7    1
     7     7     8    2
     8     8     1    1
     9     1     2   ar
    10     2     3   ar
    11     3     4   ar
    12     4    16    1
    13    16    17    1
    14    17    18   ar
    15    18    19   ar
    16    19    20   ar
    17    20    24    1
    18    24    25    1
    19    25    26    1
    20    26    27    1
    21    20    21   ar
    22    21    22   ar
    23    22    23    1
    24     4     5   ar
    25     5     6   ar
    26     6     1   ar
    27    22    17   ar
    28    14    15    1
@<TRIPOS>MOLECULE
*****
 27 28 0 0 0
SMALL
GASTEIGER

@<TRIPOS>ATOM
      1 C          -9.1560  -19.1542   20.5781 C.ar    1  UNL1        0.0191
      2 C          -8.4388  -19.6465   19.3562 C.ar    1  UNL1        0.0063
      3 C          -7.0160  -20.1107   19.4576 C.ar    1  UNL1        0.0581
      4 C          -6.3105  -20.0826   20.7810 C.ar    1  UNL1        0.2297
      5 N          -7.0277  -19.5903   22.0029 N.ar    1  UNL1       -0.2098
      6 C          -8.4504  -19.1261   21.9015 C.ar    1  UNL1        0.1020
      7 C         -10.9640  -17.3347   20.9913 C.2     1  UNL1       -0.0069
      8 C         -10.5787  -18.6900   20.4767 C.2     1  UNL1       -0.0014
      9 C         -12.3867  -16.8705   20.8899 C.3     1  UNL1        0.0939
     10 C         -12.7846  -15.9010   19.8166 C.3     1  UNL1        0.0262
     11 C         -14.0404  -18.1947   24.2457 C.3     1  UNL1        0.0946
     12 C         -13.0155  -17.6894   23.2740 C.2     1  UNL1        0.2232
     13 O         -11.5946  -17.4975   23.7146 O.2     1  UNL1       -0.2751
     14 N         -13.4116  -17.3759   21.8616 N.am    1  UNL1       -0.3022
     15 H         -14.3442  -17.5018   21.5724 H       1  UNL1        0.1497
     16 O          -4.8877  -20.5468   20.8824 O.3     1  UNL1       -0.4352
     17 C          -3.7652  -19.5652   20.7200 C.ar    1  UNL1        0.1578
     18 C          -3.1123  -19.3871   19.3813 C.ar    1  UNL1        0.0415
     19 C          -1.9897  -18.4056   19.2190 C.ar    1  UNL1        0.0401
     20 C          -1.5200  -17.6020   20.3953 C.ar    1  UNL1        0.1397
     21 C          -2.1729  -17.7801   21.7340 C.ar    1  UNL1        0.0514
     22 C          -3.2955  -18.7617   21.8964 C.ar    1  UNL1        0.0952
     23 CL         -3.9483  -18.9397   23.2350 Cl      1  UNL1       -0.0790
     24 O          -0.3974  -16.6204   20.2329 O.3     1  UNL1       -0.4724
     25 C           0.9695  -17.1016   19.8458 C.3     1  UNL1        0.2434
     26 C           1.8242  -17.8182   20.8487 C.3     1  UNL1        0.2403
     27 F           3.1504  -17.2438   21.2506 F       1  UNL1       -0.2302
@<TRIPOS>BOND
     1    11    12    1
     2    12    13    2
     3    12    14   am
     4    14     9    1
     5     9    10    1
     6     9     7    1
     7     7     8    2
     8     8     1    1
     9     1     2   ar
    10     2     3   ar
    11     3     4   ar
    12     4    16    1
    13    16    17    1
    14    17    18   ar
    15    18    19   ar
    16    19    20   ar
    17    20    24    1
    18    24    25    1
    19    25    26    1
    20    26    27    1
    21    20    21   ar
    22    21    22   ar
    23    22    23    1
    24     4     5   ar
    25     5     6   ar
    26     6     1   ar
    27    22    17   ar
    28    14    15    1
@<TRIPOS>MOLECULE
*****
 27 28 0 0 0
SMALL
GASTEIGER

@<TRIPOS>ATOM
      1 C           1.4871    0.6940   19.3682 C.ar    1  UNL1        0.0191
      2 C           1.4827    2.0151   18.6580 C.ar    1  UNL1        0.0063
      3 C           0.4263    3.0324   18.9728 C.ar    1  UNL1        0.0581
      4 C          -0.6258    2.7285   19.9978 C.ar    1  UNL1        0.2297
      5 N          -0.6214    1.4074   20.7080 N.ar    1  UNL1       -0.2098
      6 C           0.4350    0.3901   20.3932 C.ar    1  UNL1        0.1020
      7 C           3.6558    0.0188   18.1069 C.2     1  UNL1       -0.0069
      8 C           2.5436   -0.3233   19.0534 C.2     1  UNL1       -0.0014
      9 C           4.7122   -0.9985   17.7922 C.3     1  UNL1        0.0939
     10 C           6.1157   -0.5565   17.5004 C.3     1  UNL1        0.0262
     11 C           4.3359   -4.7819   18.9295 C.3     1  UNL1        0.0946
     12 C           4.6829   -3.3228   18.9526 C.2     1  UNL1        0.2232
     13 O           5.3474   -2.7289   20.1590 O.2     1  UNL1       -0.2751
     14 N           4.3653   -2.4576   17.7691 N.am    1  UNL1       -0.3022
     15 H           3.9291   -2.8474   16.9773 H       1  UNL1        0.1497
     16 O          -1.6823    3.7458   20.3126 O.3     1  UNL1       -0.4352
     17 C          -2.4792    3.6324   21.5782 C.ar    1  UNL1        0.1578
     18 C          -1.8040    3.7998   22.9073 C.ar    1  UNL1        0.0415
     19 C          -2.6009    3.6864   24.1729 C.ar    1  UNL1        0.0401
     20 C          -4.0731    3.4056   24.1097 C.ar    1  UNL1        0.1397
     21 C          -4.7483    3.2382   22.7808 C.ar    1  UNL1        0.0514
     22 C          -3.9513    3.3516   21.5150 C.ar    1  UNL1        0.0952
     23 CL         -4.6265    3.1842   20.1861 Cl      1  UNL1       -0.0790
     24 O          -4.8700    3.2922   25.3755 O.3     1  UNL1       -0.4724
     25 C          -5.0473    4.4906   26.2600 C.3     1  UNL1        0.2434
     26 C          -5.7742    5.6990   25.7489 C.3     1  UNL1        0.2403
     27 F          -6.7294    5.5693   24.5996 F       1  UNL1       -0.2302
@<TRIPOS>BOND
     1    11    12    1
     2    12    13    2
     3    12    14   am
     4    14     9    1
     5     9    10    1
     6     9     7    1
     7     7     8    2
     8     8     1    1
     9     1     2   ar
    10     2     3   ar
    11     3     4   ar
    12     4    16    1
    13    16    17    1
    14    17    18   ar
    15    18    19   ar
    16    19    20   ar
    17    20    24    1
    18    24    25    1
    19    25    26    1
    20    26    27    1
    21    20    21   ar
    22    21    22   ar
    23    22    23    1
    24     4     5   ar
    25     5     6   ar
    26     6     1   ar
    27    22    17   ar
    28    14    15    1
@<TRIPOS>MOLECULE
*****
 27 28 0 0 0
SMALL
GASTEIGER

@<TRIPOS>ATOM
      1 C           2.0216   -0.4335   20.0680 C.ar    1  UNL1        0.0191
      2 C           2.5243    0.8187   19.4129 C.ar    1  UNL1        0.0063
      3 C           1.6426    2.0297   19.3337 C.ar    1  UNL1        0.0581
      4 C           0.2582    1.9884   19.9095 C.ar    1  UNL1        0.2297
      5 N          -0.2445    0.7361   20.5646 N.ar    1  UNL1       -0.2098
      6 C           0.6371   -0.4748   20.6438 C.ar    1  UNL1        0.1020
      7 C           3.8832   -1.9318   19.0485 C.2     1  UNL1       -0.0069
      8 C           2.9033   -1.6444   20.1472 C.2     1  UNL1       -0.0014
      9 C           4.7649   -3.1428   19.1278 C.3     1  UNL1        0.0939
     10 C           4.2190   -4.4928   18.7679 C.3     1  UNL1        0.0262
     11 C           8.6389   -2.2837   19.0710 C.3     1  UNL1        0.0946
     12 C           7.2114   -2.4227   18.6319 C.2     1  UNL1        0.2232
     13 O           6.8030   -1.9809   17.2580 O.2     1  UNL1       -0.2751
     14 N           6.1924   -3.0037   19.5668 N.am    1  UNL1       -0.3022
     15 H           6.4605   -3.2937   20.4686 H       1  UNL1        0.1497
     16 O          -0.6235    3.1993   19.8303 O.3     1  UNL1       -0.4352
     17 C          -1.8157    3.3193   20.7327 C.ar    1  UNL1        0.1578
     18 C          -3.1986    3.1626   20.1732 C.ar    1  UNL1        0.0415
     19 C          -4.3908    3.2826   21.0755 C.ar    1  UNL1        0.0401
     20 C          -4.2001    3.5594   22.5374 C.ar    1  UNL1        0.1397
     21 C          -2.8173    3.7161   23.0969 C.ar    1  UNL1        0.0514
     22 C          -1.6250    3.5961   22.1945 C.ar    1  UNL1        0.0952
     23 CL         -0.2422    3.7528   22.7540 Cl      1  UNL1       -0.0790
     24 O          -5.3924    3.6794   23.4397 O.3     1  UNL1       -0.4724
     25 C          -5.4905    4.8236   24.4047 C.3     1  UNL1        0.2434
     26 C          -5.3162    4.5819   25.8747 C.3     1  UNL1        0.2403
     27 F          -4.2919    3.5977   26.3568 F       1  UNL1       -0.2302
@<TRIPOS>BOND
     1    11    12    1
     2    12    13    2
     3    12    14   am
     4    14     9    1
     5     9    10    1
     6     9     7    1
     7     7     8    2
     8     8     1    1
     9     1     2   ar
    10     2     3   ar
    11     3     4   ar
    12     4    16    1
    13    16    17    1
    14    17    18   ar
    15    18    19   ar
    16    19    20   ar
    17    20    24    1
    18    24    25    1
    19    25    26    1
    20    26    27    1
    21    20    21   ar
    22    21    22   ar
    23    22    23    1
    24     4     5   ar
    25     5     6   ar
    26     6     1   ar
    27    22    17   ar
    28    14    15    1
@<TRIPOS>MOLECULE
*****
 27 28 0 0 0
SMALL
GASTEIGER

@<TRIPOS>ATOM
      1 C           2.6895   -0.2629   19.9583 C.ar    1  UNL1        0.0191
      2 C           1.3079   -0.6872   20.3596 C.ar    1  UNL1        0.0063
      3 C           0.1820    0.3036   20.3347 C.ar    1  UNL1        0.0581
      4 C           0.4378    1.7189   19.9085 C.ar    1  UNL1        0.2297
      5 N           1.8194    2.1432   19.5072 N.ar    1  UNL1       -0.2098
      6 C           2.9452    1.1523   19.5321 C.ar    1  UNL1        0.1020
      7 C           3.7019   -2.5373   19.2155 C.2     1  UNL1       -0.0069
      8 C           3.8154   -1.2538   19.9833 C.2     1  UNL1       -0.0014
      9 C           4.8278   -3.5282   19.2405 C.3     1  UNL1        0.0939
     10 C           4.5876   -4.9471   18.8171 C.3     1  UNL1        0.0262
     11 C           8.5011   -2.0280   19.1630 C.3     1  UNL1        0.0946
     12 C           7.1351   -2.4560   18.7147 C.2     1  UNL1        0.2232
     13 O           6.7106   -2.2397   17.2924 O.2     1  UNL1       -0.2751
     14 N           6.1937   -3.1003   19.6887 N.am    1  UNL1       -0.3022
     15 H           6.4724   -3.2422   20.6222 H       1  UNL1        0.1497
     16 O          -0.6881    2.7097   19.8835 O.3     1  UNL1       -0.4352
     17 C          -1.3787    3.0925   21.1589 C.ar    1  UNL1        0.1578
     18 C          -0.6066    3.1427   22.4440 C.ar    1  UNL1        0.0415
     19 C          -1.2972    3.5256   23.7193 C.ar    1  UNL1        0.0401
     20 C          -2.7598    3.8582   23.7096 C.ar    1  UNL1        0.1397
     21 C          -3.5318    3.8080   22.4246 C.ar    1  UNL1        0.0514
     22 C          -2.8413    3.4251   21.1492 C.ar    1  UNL1        0.0952
     23 CL         -3.6133    3.3749   19.8641 Cl      1  UNL1       -0.0790
     24 O          -3.4504    4.2410   24.9850 O.3     1  UNL1       -0.4724
     25 C          -4.8125    3.6941   25.2937 C.3     1  UNL1        0.2434
     26 C          -6.0362    4.4897   24.9478 C.3     1  UNL1        0.2403
     27 F          -6.7108    4.2901   23.6230 F       1  UNL1       -0.2302
@<TRIPOS>BOND
     1    11    12    1
     2    12    13    2
     3    12    14   am
     4    14     9    1
     5     9    10    1
     6     9     7    1
     7     7     8    2
     8     8     1    1
     9     1     2   ar
    10     2     3   ar
    11     3     4   ar
    12     4    16    1
    13    16    17    1
    14    17    18   ar
    15    18    19   ar
    16    19    20   ar
    17    20    24    1
    18    24    25    1
    19    25    26    1
    20    26    27    1
    21    20    21   ar
    22    21    22   ar
    23    22    23    1
    24     4     5   ar
    25     5     6   ar
    26     6     1   ar
    27    22    17   ar
    28    14    15    1
@<TRIPOS>MOLECULE
*****
 27 28 0 0 0
SMALL
GASTEIGER

@<TRIPOS>ATOM
      1 C           5.3486   -3.1554   23.6284 C.ar    1  UNL1        0.0191
      2 C           6.4765   -4.1404   23.7142 C.ar    1  UNL1        0.0063
      3 C           7.3953   -4.1273   24.8998 C.ar    1  UNL1        0.0581
      4 C           7.1861   -3.1291   25.9997 C.ar    1  UNL1        0.2297
      5 N           6.0582   -2.1440   25.9139 N.ar    1  UNL1       -0.2098
      6 C           5.1394   -2.1572   24.7283 C.ar    1  UNL1        0.1020
      7 C           4.9049   -3.7216   21.1319 C.2     1  UNL1       -0.0069
      8 C           4.4298   -3.1685   22.4428 C.2     1  UNL1       -0.0014
      9 C           3.9862   -3.7347   19.9463 C.3     1  UNL1        0.0939
     10 C           3.6038   -5.0373   19.3082 C.3     1  UNL1        0.0262
     11 C           3.5604   -0.5221   17.6555 C.3     1  UNL1        0.0946
     12 C           4.0967   -1.8115   18.2031 C.2     1  UNL1        0.2232
     13 O           5.2801   -2.4669   17.5549 O.2     1  UNL1       -0.2751
     14 N           3.4498   -2.4454   19.3987 N.am    1  UNL1       -0.3022
     15 H           2.6731   -2.0152   19.8241 H       1  UNL1        0.1497
     16 O           8.1048   -3.1159   27.1853 O.3     1  UNL1       -0.4352
     17 C           7.5388   -3.1684   28.5734 C.ar    1  UNL1        0.1578
     18 C           7.2346   -1.8964   29.3080 C.ar    1  UNL1        0.0415
     19 C           6.6686   -1.9490   30.6960 C.ar    1  UNL1        0.0401
     20 C           6.4067   -3.2735   31.3496 C.ar    1  UNL1        0.1397
     21 C           6.7108   -4.5454   30.6151 C.ar    1  UNL1        0.0514
     22 C           7.2769   -4.4929   29.2269 C.ar    1  UNL1        0.0952
     23 CL          7.5810   -5.7649   28.4924 Cl      1  UNL1       -0.0790
     24 O           5.8406   -3.3259   32.7377 O.3     1  UNL1       -0.4724
     25 C           4.5338   -2.6548   33.0407 C.3     1  UNL1        0.2434
     26 C           4.4786   -1.5373   34.0398 C.3     1  UNL1        0.2403
     27 F           5.7432   -1.0254   34.6632 F       1  UNL1       -0.2302
@<TRIPOS>BOND
     1    11    12    1
     2    12    13    2
     3    12    14   am
     4    14     9    1
     5     9    10    1
     6     9     7    1
     7     7     8    2
     8     8     1    1
     9     1     2   ar
    10     2     3   ar
    11     3     4   ar
    12     4    16    1
    13    16    17    1
    14    17    18   ar
    15    18    19   ar
    16    19    20   ar
    17    20    24    1
    18    24    25    1
    19    25    26    1
    20    26    27    1
    21    20    21   ar
    22    21    22   ar
    23    22    23    1
    24     4     5   ar
    25     5     6   ar
    26     6     1   ar
    27    22    17   ar
    28    14    15    1
