@<TRIPOS>MOLECULE
*****
 39 42 0 0 0
SMALL
GASTEIGER

@<TRIPOS>ATOM
      1 C          -4.7899  -18.8914   21.5158 C.ar    1  UNL1        0.0053
      2 C          -5.0412  -20.3633   21.6577 C.ar    1  UNL1        0.0033
      3 C          -6.4020  -20.8573   22.0502 C.ar    1  UNL1        0.0382
      4 C          -7.5115  -19.8794   22.3008 C.ar    1  UNL1        0.1529
      5 C          -7.2601  -18.4075   22.1589 C.ar    1  UNL1        0.0882
      6 C          -5.8993  -17.9135   21.7664 C.ar    1  UNL1        0.0181
      7 N          -8.3696  -17.4296   22.4096 N.am    1  UNL1       -0.2512
      8 C          -9.7304  -17.9236   22.8021 C.2     1  UNL1        0.2698
      9 O         -10.8399  -16.9457   23.0527 O.2     1  UNL1       -0.2704
     10 C          -9.9818  -19.3956   22.9439 C.3     1  UNL1        0.2197
     11 C         -10.7058  -20.6833   23.2043 C.3     1  UNL1        0.0579
     12 O          -8.8723  -20.3735   22.6933 O.3     1  UNL1       -0.4686
     13 C          -2.7490  -17.3416   21.9438 C.ar    1  UNL1        0.0645
     14 N          -1.3882  -16.8475   21.5513 N.ar    1  UNL1       -0.2183
     15 C          -0.7074  -17.4090   20.3383 C.ar    1  UNL1        0.2145
     16 N           0.6534  -16.9149   19.9459 N.pl3   1  UNL1       -0.3274
     17 N          -1.3874  -18.4647   19.5179 N.ar    1  UNL1       -0.1995
     18 C          -2.7483  -18.9588   19.9104 C.ar    1  UNL1        0.1293
     19 N          -3.4283  -20.0144   19.0899 N.pl3   1  UNL1       -0.3425
     20 C          -3.4290  -18.3972   21.1233 C.ar    1  UNL1        0.0449
     21 H           1.0997  -16.2220   20.4844 H       1  UNL1        0.1452
     22 H           1.1002  -17.2834   19.1498 H       1  UNL1        0.1452
     23 H          -2.9815  -20.3830   18.2938 H       1  UNL1        0.1437
     24 H          -4.3214  -20.3387   19.3475 H       1  UNL1        0.1437
     25 C          -3.5440  -17.6070   24.4030 C.3     1  UNL1        0.0067
     26 C          -3.4298  -16.7800   23.1567 C.3     1  UNL1        0.0460
     27 C         -11.3427  -18.8649   23.2850 C.ar    1  UNL1        0.0219
     28 C         -11.8260  -18.8967   24.7046 C.ar    1  UNL1       -0.0005
     29 C         -13.1869  -18.3660   25.0456 C.ar    1  UNL1       -0.0002
     30 C         -14.0645  -17.8035   23.9671 C.ar    1  UNL1       -0.0000
     31 C         -13.5812  -17.7717   22.5474 C.ar    1  UNL1       -0.0002
     32 C         -12.2203  -18.3024   22.2063 C.ar    1  UNL1       -0.0005
     33 C          -8.1183  -15.9577   22.2677 C.3     1  UNL1        0.1196
     34 C          -7.5112  -15.1876   23.4028 C.3     1  UNL1        0.1113
     35 N          -7.7342  -15.6354   24.8170 N.am    1  UNL1       -0.3026
     36 C          -6.6735  -15.4061   25.8524 C.2     1  UNL1        0.2230
     37 C          -6.8965  -15.8539   27.2665 C.3     1  UNL1        0.0946
     38 O          -5.3896  -14.7290   25.4737 O.2     1  UNL1       -0.2751
     39 H          -8.5768  -16.0798   25.0655 H       1  UNL1        0.1495
@<TRIPOS>BOND
     1    25    26    1
     2    26    13    1
     3    13    14   ar
     4    14    15   ar
     5    15    16    1
     6    15    17   ar
     7    17    18   ar
     8    18    19    1
     9    18    20   ar
    10    20     1    1
    11     1     2   ar
    12     2     3   ar
    13     3     4   ar
    14     4     5   ar
    15     5     6   ar
    16     5     7    1
    17     7    33    1
    18    33    34    1
    19    34    35    1
    20    35    36   am
    21    36    37    1
    22    36    38    2
    23     7     8   am
    24     8     9    2
    25     8    10    1
    26    10    11    1
    27    10    27    1
    28    27    28   ar
    29    28    29   ar
    30    29    30   ar
    31    30    31   ar
    32    31    32   ar
    33    10    12    1
    34    20    13   ar
    35     6     1   ar
    36    32    27   ar
    37    12     4    1
    38    16    21    1
    39    16    22    1
    40    19    23    1
    41    19    24    1
    42    35    39    1
@<TRIPOS>MOLECULE
*****
 39 42 0 0 0
SMALL
GASTEIGER

@<TRIPOS>ATOM
      1 C          -9.6919  -18.9042   22.0827 C.ar    1  UNL1        0.0053
      2 C          -9.6654  -19.7123   20.8193 C.ar    1  UNL1        0.0033
      3 C          -8.3732  -19.9134   20.0847 C.ar    1  UNL1        0.0382
      4 C          -7.1075  -19.3066   20.6135 C.ar    1  UNL1        0.1529
      5 C          -7.1340  -18.4986   21.8769 C.ar    1  UNL1        0.0882
      6 C          -8.4262  -18.2974   22.6115 C.ar    1  UNL1        0.0181
      7 N          -5.8683  -17.8917   22.4057 N.am    1  UNL1       -0.2512
      8 C          -4.5761  -18.0929   21.6711 C.2     1  UNL1        0.2698
      9 O          -3.3103  -17.4860   22.2000 O.2     1  UNL1       -0.2704
     10 C          -4.5495  -18.9009   20.4076 C.3     1  UNL1        0.2197
     11 C          -4.0196  -19.5802   19.1797 C.3     1  UNL1        0.0579
     12 O          -5.8153  -19.5078   19.8788 O.3     1  UNL1       -0.4686
     13 C         -12.1315  -18.0127   22.1415 C.ar    1  UNL1        0.0645
     14 N         -13.4237  -17.8114   22.8761 N.ar    1  UNL1       -0.2183
     15 C         -13.5686  -18.3006   24.2867 C.ar    1  UNL1        0.2145
     16 N         -14.8608  -18.0994   25.0213 N.pl3   1  UNL1       -0.3274
     17 N         -12.4212  -18.9910   24.9627 N.ar    1  UNL1       -0.1995
     18 C         -11.1290  -19.1922   24.2280 C.ar    1  UNL1        0.1293
     19 N          -9.9816  -19.8825   24.9039 N.pl3   1  UNL1       -0.3425
     20 C         -10.9842  -18.7030   22.8174 C.ar    1  UNL1        0.0449
     21 H         -15.6138  -17.6463   24.5777 H       1  UNL1        0.1452
     22 H         -14.9558  -18.4204   25.9472 H       1  UNL1        0.1452
     23 H         -10.0766  -20.2036   25.8297 H       1  UNL1        0.1437
     24 H          -9.1334  -20.0146   24.4217 H       1  UNL1        0.1437
     25 C         -11.5119  -16.1253   20.4669 C.3     1  UNL1        0.0067
     26 C         -11.9867  -17.5235   20.7308 C.3     1  UNL1        0.0460
     27 C          -3.0998  -18.5300   20.5100 C.ar    1  UNL1        0.0219
     28 C          -2.1846  -19.3192   21.3986 C.ar    1  UNL1       -0.0005
     29 C          -0.7348  -18.9482   21.5010 C.ar    1  UNL1       -0.0002
     30 C          -0.2002  -17.7881   20.7148 C.ar    1  UNL1       -0.0000
     31 C          -1.1153  -16.9989   19.8262 C.ar    1  UNL1       -0.0002
     32 C          -2.5651  -17.3698   19.7238 C.ar    1  UNL1       -0.0005
     33 C          -5.8947  -17.0837   23.6692 C.3     1  UNL1        0.1196
     34 C          -6.7269  -15.8380   23.7455 C.3     1  UNL1        0.1113
     35 N          -6.9912  -15.1929   25.0737 N.am    1  UNL1       -0.3026
     36 C          -8.0615  -15.7378   25.9725 C.2     1  UNL1        0.2230
     37 C          -8.3258  -15.0927   27.3006 C.3     1  UNL1        0.0946
     38 O          -8.8674  -16.9279   25.5430 O.2     1  UNL1       -0.2751
     39 H          -6.4623  -14.4118   25.3556 H       1  UNL1        0.1495
@<TRIPOS>BOND
     1    25    26    1
     2    26    13    1
     3    13    14   ar
     4    14    15   ar
     5    15    16    1
     6    15    17   ar
     7    17    18   ar
     8    18    19    1
     9    18    20   ar
    10    20     1    1
    11     1     2   ar
    12     2     3   ar
    13     3     4   ar
    14     4     5   ar
    15     5     6   ar
    16     5     7    1
    17     7    33    1
    18    33    34    1
    19    34    35    1
    20    35    36   am
    21    36    37    1
    22    36    38    2
    23     7     8   am
    24     8     9    2
    25     8    10    1
    26    10    11    1
    27    10    27    1
    28    27    28   ar
    29    28    29   ar
    30    29    30   ar
    31    30    31   ar
    32    31    32   ar
    33    10    12    1
    34    20    13   ar
    35     6     1   ar
    36    32    27   ar
    37    12     4    1
    38    16    21    1
    39    16    22    1
    40    19    23    1
    41    19    24    1
    42    35    39    1
@<TRIPOS>MOLECULE
*****
 39 42 0 0 0
SMALL
GASTEIGER

@<TRIPOS>ATOM
      1 C          -9.4029  -17.3116   23.6177 C.ar    1  UNL1        0.0053
      2 C          -8.7666  -16.1553   24.3304 C.ar    1  UNL1        0.0033
      3 C          -7.3036  -15.8772   24.1514 C.ar    1  UNL1        0.0382
      4 C          -6.4768  -16.7555   23.2597 C.ar    1  UNL1        0.1529
      5 C          -7.1131  -17.9119   22.5471 C.ar    1  UNL1        0.0882
      6 C          -8.5762  -18.1899   22.7261 C.ar    1  UNL1        0.0181
      7 N          -6.2864  -18.7902   21.6554 N.am    1  UNL1       -0.2512
      8 C          -4.8233  -18.5121   21.4764 C.2     1  UNL1        0.2698
      9 O          -3.9965  -19.3904   20.5848 O.2     1  UNL1       -0.2704
     10 C          -4.1869  -17.3557   22.1891 C.3     1  UNL1        0.2197
     11 C          -3.1368  -16.3876   22.6474 C.3     1  UNL1        0.0579
     12 O          -5.0137  -16.4774   23.0808 O.3     1  UNL1       -0.4686
     13 C         -11.3125  -18.7242   24.6706 C.ar    1  UNL1        0.0645
     14 N         -12.7755  -19.0023   24.8496 N.ar    1  UNL1       -0.2183
     15 C         -13.7923  -18.1459   24.1546 C.ar    1  UNL1        0.2145
     16 N         -15.2553  -18.4241   24.3336 N.pl3   1  UNL1       -0.3274
     17 N         -13.3459  -17.0115   23.2807 N.ar    1  UNL1       -0.1995
     18 C         -11.8828  -16.7334   23.1017 C.ar    1  UNL1        0.1293
     19 N         -11.4364  -15.5989   22.2278 N.pl3   1  UNL1       -0.3425
     20 C         -10.8661  -17.5897   23.7967 C.ar    1  UNL1        0.0449
     21 H         -15.5483  -19.1687   24.9072 H       1  UNL1        0.1452
     22 H         -15.9226  -17.8620   23.8775 H       1  UNL1        0.1452
     23 H         -12.1037  -15.0369   21.7717 H       1  UNL1        0.1437
     24 H         -10.4761  -15.4164   22.1103 H       1  UNL1        0.1437
     25 C          -9.7469  -20.7976   24.6818 C.3     1  UNL1        0.0067
     26 C         -10.2957  -19.5805   25.3656 C.3     1  UNL1        0.0460
     27 C          -2.9955  -17.8978   21.4566 C.ar    1  UNL1        0.0219
     28 C          -2.5240  -17.2344   20.1967 C.ar    1  UNL1       -0.0005
     29 C          -1.3325  -17.7765   19.4642 C.ar    1  UNL1       -0.0002
     30 C          -0.6125  -18.9820   19.9916 C.ar    1  UNL1       -0.0000
     31 C          -1.0840  -19.6454   21.2516 C.ar    1  UNL1       -0.0002
     32 C          -2.2754  -19.1034   21.9841 C.ar    1  UNL1       -0.0005
     33 C          -6.9227  -19.9465   20.9428 C.3     1  UNL1        0.1196
     34 C          -7.5273  -19.7494   19.5842 C.3     1  UNL1        0.1113
     35 N          -8.6095  -18.7298   19.3857 N.am    1  UNL1       -0.3026
     36 C         -10.0112  -19.0279   19.8288 C.2     1  UNL1        0.2230
     37 C         -11.0933  -18.0084   19.6302 C.3     1  UNL1        0.0946
     38 O         -10.3307  -20.3456   20.4704 O.2     1  UNL1       -0.2751
     39 H          -8.3997  -17.8650   18.9646 H       1  UNL1        0.1495
@<TRIPOS>BOND
     1    25    26    1
     2    26    13    1
     3    13    14   ar
     4    14    15   ar
     5    15    16    1
     6    15    17   ar
     7    17    18   ar
     8    18    19    1
     9    18    20   ar
    10    20     1    1
    11     1     2   ar
    12     2     3   ar
    13     3     4   ar
    14     4     5   ar
    15     5     6   ar
    16     5     7    1
    17     7    33    1
    18    33    34    1
    19    34    35    1
    20    35    36   am
    21    36    37    1
    22    36    38    2
    23     7     8   am
    24     8     9    2
    25     8    10    1
    26    10    11    1
    27    10    27    1
    28    27    28   ar
    29    28    29   ar
    30    29    30   ar
    31    30    31   ar
    32    31    32   ar
    33    10    12    1
    34    20    13   ar
    35     6     1   ar
    36    32    27   ar
    37    12     4    1
    38    16    21    1
    39    16    22    1
    40    19    23    1
    41    19    24    1
    42    35    39    1
@<TRIPOS>MOLECULE
*****
 39 42 0 0 0
SMALL
GASTEIGER

@<TRIPOS>ATOM
      1 C          -4.9273  -18.7750   21.7364 C.ar    1  UNL1        0.0053
      2 C          -5.1315  -20.2448   21.9553 C.ar    1  UNL1        0.0033
      3 C          -6.4806  -20.7629   22.3567 C.ar    1  UNL1        0.0382
      4 C          -7.6257  -19.8113   22.5393 C.ar    1  UNL1        0.1529
      5 C          -7.4215  -18.3415   22.3203 C.ar    1  UNL1        0.0882
      6 C          -6.0724  -17.8233   21.9189 C.ar    1  UNL1        0.0181
      7 N          -8.5666  -17.3899   22.5029 N.am    1  UNL1       -0.2512
      8 C          -9.9157  -17.9081   22.9043 C.2     1  UNL1        0.2698
      9 O         -11.0607  -16.9564   23.0869 O.2     1  UNL1       -0.2704
     10 C         -10.1199  -19.3779   23.1233 C.3     1  UNL1        0.2197
     11 C         -10.8043  -20.6735   23.4443 C.3     1  UNL1        0.0579
     12 O          -8.9749  -20.3296   22.9407 O.3     1  UNL1       -0.4686
     13 C          -2.9428  -18.7274   20.0602 C.ar    1  UNL1        0.0645
     14 N          -1.5936  -18.2093   19.6587 N.ar    1  UNL1       -0.2183
     15 C          -0.8798  -17.2203   20.5319 C.ar    1  UNL1        0.2145
     16 N           0.4694  -16.7021   20.1304 N.pl3   1  UNL1       -0.3274
     17 N          -1.5151  -16.7496   21.8066 N.ar    1  UNL1       -0.1995
     18 C          -2.8643  -17.2678   22.2081 C.ar    1  UNL1        0.1293
     19 N          -3.4996  -16.7971   23.4827 N.pl3   1  UNL1       -0.3425
     20 C          -3.5781  -18.2567   21.3349 C.ar    1  UNL1        0.0449
     21 H           0.8864  -17.0111   19.2938 H       1  UNL1        0.1452
     22 H           0.9379  -16.0530   20.7035 H       1  UNL1        0.1452
     23 H          -3.0311  -16.1480   24.0558 H       1  UNL1        0.1437
     24 H          -4.3852  -17.1372   23.7462 H       1  UNL1        0.1437
     25 C          -3.5613  -21.1839   19.4827 C.3     1  UNL1        0.0067
     26 C          -3.6567  -19.7164   19.1870 C.3     1  UNL1        0.0460
     27 C         -11.5026  -18.8763   23.4173 C.ar    1  UNL1        0.0219
     28 C         -12.3769  -18.3889   22.3002 C.ar    1  UNL1       -0.0005
     29 C         -13.7597  -17.8872   22.5942 C.ar    1  UNL1       -0.0002
     30 C         -14.2680  -17.8729   24.0053 C.ar    1  UNL1       -0.0000
     31 C         -13.3937  -18.3602   25.1224 C.ar    1  UNL1       -0.0002
     32 C         -12.0110  -18.8619   24.8285 C.ar    1  UNL1       -0.0005
     33 C          -8.3624  -15.9201   22.2840 C.3     1  UNL1        0.1196
     34 C          -7.6324  -15.1035   23.3087 C.3     1  UNL1        0.1113
     35 N          -7.7684  -15.4328   24.7659 N.am    1  UNL1       -0.3026
     36 C          -6.5797  -15.3214   25.6740 C.2     1  UNL1        0.2230
     37 C          -6.7157  -15.6507   27.1311 C.3     1  UNL1        0.0946
     38 O          -5.2551  -14.8807   25.1251 O.2     1  UNL1       -0.2751
     39 H          -8.6377  -15.7220   25.1261 H       1  UNL1        0.1495
@<TRIPOS>BOND
     1    25    26    1
     2    26    13    1
     3    13    14   ar
     4    14    15   ar
     5    15    16    1
     6    15    17   ar
     7    17    18   ar
     8    18    19    1
     9    18    20   ar
    10    20     1    1
    11     1     2   ar
    12     2     3   ar
    13     3     4   ar
    14     4     5   ar
    15     5     6   ar
    16     5     7    1
    17     7    33    1
    18    33    34    1
    19    34    35    1
    20    35    36   am
    21    36    37    1
    22    36    38    2
    23     7     8   am
    24     8     9    2
    25     8    10    1
    26    10    11    1
    27    10    27    1
    28    27    28   ar
    29    28    29   ar
    30    29    30   ar
    31    30    31   ar
    32    31    32   ar
    33    10    12    1
    34    20    13   ar
    35     6     1   ar
    36    32    27   ar
    37    12     4    1
    38    16    21    1
    39    16    22    1
    40    19    23    1
    41    19    24    1
    42    35    39    1
@<TRIPOS>MOLECULE
*****
 39 42 0 0 0
SMALL
GASTEIGER

@<TRIPOS>ATOM
      1 C          -4.9590  -18.9063   21.6514 C.ar    1  UNL1        0.0053
      2 C          -5.1912  -20.3804   21.8026 C.ar    1  UNL1        0.0033
      3 C          -6.5403  -20.8885   22.2169 C.ar    1  UNL1        0.0382
      4 C          -7.6572  -19.9224   22.4798 C.ar    1  UNL1        0.1529
      5 C          -7.4250  -18.4483   22.3286 C.ar    1  UNL1        0.0882
      6 C          -6.0759  -17.9402   21.9144 C.ar    1  UNL1        0.0181
      7 N          -8.5420  -17.4822   22.5916 N.am    1  UNL1       -0.2512
      8 C          -9.8911  -17.9903   23.0058 C.2     1  UNL1        0.2698
      9 O         -11.0080  -17.0242   23.2688 O.2     1  UNL1       -0.2704
     10 C         -10.1234  -19.4645   23.1571 C.3     1  UNL1        0.2197
     11 C         -10.8285  -20.7594   23.4329 C.3     1  UNL1        0.0579
     12 O          -9.0064  -20.4306   22.8941 O.3     1  UNL1       -0.4686
     13 C          -2.9163  -17.3539   22.0610 C.ar    1  UNL1        0.0645
     14 N          -1.5672  -16.8457   21.6469 N.ar    1  UNL1       -0.2183
     15 C          -0.9114  -17.3818   20.4088 C.ar    1  UNL1        0.2145
     16 N           0.4377  -16.8736   19.9946 N.pl3   1  UNL1       -0.3274
     17 N          -1.6049  -18.4260   19.5850 N.ar    1  UNL1       -0.1995
     18 C          -2.9541  -18.9342   19.9992 C.ar    1  UNL1        0.1293
     19 N          -3.6476  -19.9784   19.1754 N.pl3   1  UNL1       -0.3425
     20 C          -3.6097  -18.3981   21.2372 C.ar    1  UNL1        0.0449
     21 H           0.8928  -16.1883   20.5354 H       1  UNL1        0.1452
     22 H           0.8681  -17.2255   19.1821 H       1  UNL1        0.1452
     23 H          -3.2172  -20.3302   18.3628 H       1  UNL1        0.1437
     24 H          -4.5331  -20.3119   19.4472 H       1  UNL1        0.1437
     25 C          -3.5482  -17.6187   24.5672 C.3     1  UNL1        0.0067
     26 C          -3.5720  -16.8178   23.2991 C.3     1  UNL1        0.0460
     27 C         -11.4852  -18.9481   23.5158 C.ar    1  UNL1        0.0219
     28 C         -11.9303  -18.9386   24.9482 C.ar    1  UNL1       -0.0005
     29 C         -13.2922  -18.4222   25.3070 C.ar    1  UNL1       -0.0002
     30 C         -14.2089  -17.9154   24.2335 C.ar    1  UNL1       -0.0000
     31 C         -13.7638  -17.9249   22.8011 C.ar    1  UNL1       -0.0002
     32 C         -12.4020  -18.4413   22.4422 C.ar    1  UNL1       -0.0005
     33 C          -8.3098  -16.0081   22.4404 C.3     1  UNL1        0.1196
     34 C          -8.6766  -15.3185   21.1598 C.3     1  UNL1        0.1113
     35 N         -10.1185  -15.0745   20.8258 N.am    1  UNL1       -0.3026
     36 C         -10.9110  -16.1276   20.1097 C.2     1  UNL1        0.2230
     37 C         -12.3528  -15.8837   19.7756 C.3     1  UNL1        0.0946
     38 O         -10.2617  -17.4248   19.7276 O.2     1  UNL1       -0.2751
     39 H         -10.5446  -14.2231   21.0765 H       1  UNL1        0.1495
@<TRIPOS>BOND
     1    25    26    1
     2    26    13    1
     3    13    14   ar
     4    14    15   ar
     5    15    16    1
     6    15    17   ar
     7    17    18   ar
     8    18    19    1
     9    18    20   ar
    10    20     1    1
    11     1     2   ar
    12     2     3   ar
    13     3     4   ar
    14     4     5   ar
    15     5     6   ar
    16     5     7    1
    17     7    33    1
    18    33    34    1
    19    34    35    1
    20    35    36   am
    21    36    37    1
    22    36    38    2
    23     7     8   am
    24     8     9    2
    25     8    10    1
    26    10    11    1
    27    10    27    1
    28    27    28   ar
    29    28    29   ar
    30    29    30   ar
    31    30    31   ar
    32    31    32   ar
    33    10    12    1
    34    20    13   ar
    35     6     1   ar
    36    32    27   ar
    37    12     4    1
    38    16    21    1
    39    16    22    1
    40    19    23    1
    41    19    24    1
    42    35    39    1
@<TRIPOS>MOLECULE
*****
 39 42 0 0 0
SMALL
GASTEIGER

@<TRIPOS>ATOM
      1 C          -9.7232  -18.8658   21.9812 C.ar    1  UNL1        0.0053
      2 C          -9.7074  -19.6428   20.6983 C.ar    1  UNL1        0.0033
      3 C          -8.4174  -19.8461   19.9605 C.ar    1  UNL1        0.0382
      4 C          -7.1432  -19.2723   20.5055 C.ar    1  UNL1        0.1529
      5 C          -7.1589  -18.4953   21.7884 C.ar    1  UNL1        0.0882
      6 C          -8.4490  -18.2920   22.5263 C.ar    1  UNL1        0.0181
      7 N          -5.8847  -17.9215   22.3335 N.am    1  UNL1       -0.2512
      8 C          -4.5947  -18.1247   21.5956 C.2     1  UNL1        0.2698
      9 O          -3.3204  -17.5510   22.1407 O.2     1  UNL1       -0.2704
     10 C          -4.5788  -18.9018   20.3126 C.3     1  UNL1        0.2197
     11 C          -4.0577  -19.5589   19.0690 C.3     1  UNL1        0.0579
     12 O          -5.8531  -19.4756   19.7676 O.3     1  UNL1       -0.4686
     13 C         -11.1374  -19.1022   24.1478 C.ar    1  UNL1        0.0645
     14 N         -12.4274  -18.8990   24.8858 N.ar    1  UNL1       -0.2183
     15 C         -13.5933  -18.2559   24.1950 C.ar    1  UNL1        0.2145
     16 N         -14.8833  -18.0526   24.9329 N.pl3   1  UNL1       -0.3274
     17 N         -13.4692  -17.8161   22.7663 N.ar    1  UNL1       -0.1995
     18 C         -12.1791  -18.0194   22.0284 C.ar    1  UNL1        0.1293
     19 N         -12.0550  -17.5796   20.5997 N.pl3   1  UNL1       -0.3425
     20 C         -11.0133  -18.6624   22.7192 C.ar    1  UNL1        0.0449
     21 H         -14.9648  -18.3412   25.8706 H       1  UNL1        0.1452
     22 H         -15.6485  -17.6305   24.4796 H       1  UNL1        0.1452
     23 H         -12.8202  -17.1575   20.1463 H       1  UNL1        0.1437
     24 H         -11.2083  -17.7130   20.1154 H       1  UNL1        0.1437
     25 C          -9.6272  -21.1771   24.5531 C.3     1  UNL1        0.0067
     26 C          -9.9715  -19.7454   24.8386 C.3     1  UNL1        0.0460
     27 C          -3.1236  -18.5563   20.4258 C.ar    1  UNL1        0.0219
     28 C          -2.2270  -19.3674   21.3135 C.ar    1  UNL1       -0.0005
     29 C          -0.7717  -19.0217   21.4266 C.ar    1  UNL1       -0.0002
     30 C          -0.2131  -17.8651   20.6521 C.ar    1  UNL1       -0.0000
     31 C          -1.1098  -17.0540   19.7644 C.ar    1  UNL1       -0.0002
     32 C          -2.5650  -17.3995   19.6512 C.ar    1  UNL1       -0.0005
     33 C          -5.9005  -17.1444   23.6164 C.3     1  UNL1        0.1196
     34 C          -6.6401  -15.8418   23.6952 C.3     1  UNL1        0.1113
     35 N          -7.6783  -15.6319   24.7574 N.am    1  UNL1       -0.3026
     36 C          -7.2654  -15.4940   26.1928 C.2     1  UNL1        0.2230
     37 C          -8.3035  -15.2841   27.2550 C.3     1  UNL1        0.0946
     38 O          -5.8143  -15.5660   26.5661 O.2     1  UNL1       -0.2751
     39 H          -8.6306  -15.5847   24.5124 H       1  UNL1        0.1495
@<TRIPOS>BOND
     1    25    26    1
     2    26    13    1
     3    13    14   ar
     4    14    15   ar
     5    15    16    1
     6    15    17   ar
     7    17    18   ar
     8    18    19    1
     9    18    20   ar
    10    20     1    1
    11     1     2   ar
    12     2     3   ar
    13     3     4   ar
    14     4     5   ar
    15     5     6   ar
    16     5     7    1
    17     7    33    1
    18    33    34    1
    19    34    35    1
    20    35    36   am
    21    36    37    1
    22    36    38    2
    23     7     8   am
    24     8     9    2
    25     8    10    1
    26    10    11    1
    27    10    27    1
    28    27    28   ar
    29    28    29   ar
    30    29    30   ar
    31    30    31   ar
    32    31    32   ar
    33    10    12    1
    34    20    13   ar
    35     6     1   ar
    36    32    27   ar
    37    12     4    1
    38    16    21    1
    39    16    22    1
    40    19    23    1
    41    19    24    1
    42    35    39    1
@<TRIPOS>MOLECULE
*****
 39 42 0 0 0
SMALL
GASTEIGER

@<TRIPOS>ATOM
      1 C          -9.4709  -17.3944   23.6306 C.ar    1  UNL1        0.0053
      2 C          -8.8412  -16.2388   24.3504 C.ar    1  UNL1        0.0033
      3 C          -7.3796  -15.9519   24.1738 C.ar    1  UNL1        0.0382
      4 C          -6.5477  -16.8204   23.2774 C.ar    1  UNL1        0.1529
      5 C          -7.1774  -17.9760   22.5576 C.ar    1  UNL1        0.0882
      6 C          -8.6391  -18.2629   22.7342 C.ar    1  UNL1        0.0181
      7 N          -6.3455  -18.8445   21.6612 N.am    1  UNL1       -0.2512
      8 C          -4.8839  -18.5576   21.4845 C.2     1  UNL1        0.2698
      9 O          -4.0520  -19.4261   20.5881 O.2     1  UNL1       -0.2704
     10 C          -4.2541  -17.4020   22.2043 C.3     1  UNL1        0.2197
     11 C          -3.2094  -16.4309   22.6688 C.3     1  UNL1        0.0579
     12 O          -5.0860  -16.5334   23.1007 O.3     1  UNL1       -0.4686
     13 C         -11.9488  -16.9141   23.0143 C.ar    1  UNL1        0.0645
     14 N         -13.4104  -17.2011   23.1909 N.ar    1  UNL1       -0.2183
     15 C         -13.8560  -18.2554   24.1604 C.ar    1  UNL1        0.2145
     16 N         -15.3176  -18.5424   24.3370 N.pl3   1  UNL1       -0.3274
     17 N         -12.8399  -19.0227   24.9534 N.ar    1  UNL1       -0.1995
     18 C         -11.3782  -18.7357   24.7768 C.ar    1  UNL1        0.1293
     19 N         -10.3620  -19.5029   25.5697 N.pl3   1  UNL1       -0.3425
     20 C         -10.9326  -17.6814   23.8073 C.ar    1  UNL1        0.0449
     21 H         -15.9845  -18.0387   23.8166 H       1  UNL1        0.1452
     22 H         -15.6101  -19.2343   24.9734 H       1  UNL1        0.1452
     23 H         -10.6544  -20.1949   26.2060 H       1  UNL1        0.1437
     24 H          -9.4027  -19.3146   25.4538 H       1  UNL1        0.1437
     25 C         -12.0786  -15.8230   20.6600 C.3     1  UNL1        0.0067
     26 C         -11.5032  -15.8598   22.0448 C.3     1  UNL1        0.0460
     27 C          -3.0594  -17.9333   21.4692 C.ar    1  UNL1        0.0219
     28 C          -2.2790  -19.0815   22.0371 C.ar    1  UNL1       -0.0005
     29 C          -1.0843  -19.6128   21.3020 C.ar    1  UNL1       -0.0002
     30 C          -0.6700  -18.9960   19.9990 C.ar    1  UNL1       -0.0000
     31 C          -1.4505  -17.8478   19.4311 C.ar    1  UNL1       -0.0002
     32 C          -2.6452  -17.3164   20.1662 C.ar    1  UNL1       -0.0005
     33 C          -6.9753  -20.0001   20.9414 C.3     1  UNL1        0.1196
     34 C          -7.4665  -19.8295   19.5344 C.3     1  UNL1        0.1113
     35 N          -8.6398  -18.9386   19.2524 N.am    1  UNL1       -0.3026
     36 C         -10.0045  -19.3165   19.7472 C.2     1  UNL1        0.2230
     37 C         -11.1778  -18.4256   19.4653 C.3     1  UNL1        0.0946
     38 O         -10.1958  -20.5854   20.5241 O.2     1  UNL1       -0.2751
     39 H          -8.5143  -18.1058   18.7425 H       1  UNL1        0.1495
@<TRIPOS>BOND
     1    25    26    1
     2    26    13    1
     3    13    14   ar
     4    14    15   ar
     5    15    16    1
     6    15    17   ar
     7    17    18   ar
     8    18    19    1
     9    18    20   ar
    10    20     1    1
    11     1     2   ar
    12     2     3   ar
    13     3     4   ar
    14     4     5   ar
    15     5     6   ar
    16     5     7    1
    17     7    33    1
    18    33    34    1
    19    34    35    1
    20    35    36   am
    21    36    37    1
    22    36    38    2
    23     7     8   am
    24     8     9    2
    25     8    10    1
    26    10    11    1
    27    10    27    1
    28    27    28   ar
    29    28    29   ar
    30    29    30   ar
    31    30    31   ar
    32    31    32   ar
    33    10    12    1
    34    20    13   ar
    35     6     1   ar
    36    32    27   ar
    37    12     4    1
    38    16    21    1
    39    16    22    1
    40    19    23    1
    41    19    24    1
    42    35    39    1
@<TRIPOS>MOLECULE
*****
 39 42 0 0 0
SMALL
GASTEIGER

@<TRIPOS>ATOM
      1 C           0.6618    1.9765   27.0775 C.ar    1  UNL1        0.0053
      2 C          -0.5709    2.3356   26.3021 C.ar    1  UNL1        0.0033
      3 C          -0.6287    2.0803   24.8252 C.ar    1  UNL1        0.0382
      4 C           0.5462    1.4659   24.1236 C.ar    1  UNL1        0.1529
      5 C           1.7789    1.1068   24.8991 C.ar    1  UNL1        0.0882
      6 C           1.8367    1.3621   26.3760 C.ar    1  UNL1        0.0181
      7 N           2.9538    0.4923   24.1976 N.am    1  UNL1       -0.2512
      8 C           2.8960    0.2370   22.7206 C.2     1  UNL1        0.2698
      9 O           4.0709   -0.3774   22.0191 O.2     1  UNL1       -0.2704
     10 C           1.6632    0.5962   21.9451 C.3     1  UNL1        0.2197
     11 C           0.7254    0.7619   20.7862 C.3     1  UNL1        0.0579
     12 O           0.4883    1.2106   22.6466 O.3     1  UNL1       -0.4686
     13 C           0.3629    1.1397   29.5190 C.ar    1  UNL1        0.0645
     14 N           0.4208    1.3949   30.9959 N.ar    1  UNL1       -0.2183
     15 C           0.8355    2.7423   31.5086 C.ar    1  UNL1        0.2145
     16 N           0.8933    2.9975   32.9855 N.pl3   1  UNL1       -0.3274
     17 N           1.1922    3.8344   30.5442 N.ar    1  UNL1       -0.1995
     18 C           1.1344    3.5791   29.0671 C.ar    1  UNL1        0.1293
     19 N           1.4912    4.6712   28.1027 N.pl3   1  UNL1       -0.3425
     20 C           0.7197    2.2318   28.5546 C.ar    1  UNL1        0.0449
     21 H           0.6592    2.2808   33.6185 H       1  UNL1        0.1452
     22 H           1.1655    3.8818   33.3220 H       1  UNL1        0.1452
     23 H           1.7633    5.5555   28.4392 H       1  UNL1        0.1437
     24 H           1.4532    4.5036   27.1333 H       1  UNL1        0.1437
     25 C          -1.5061   -0.5242   28.8202 C.3     1  UNL1        0.0067
     26 C          -0.0517   -0.2077   29.0063 C.3     1  UNL1        0.0460
     27 C           2.5124    0.0393   20.8412 C.ar    1  UNL1        0.0219
     28 C           2.4970   -1.4326   20.5527 C.ar    1  UNL1       -0.0005
     29 C           3.3462   -1.9895   19.4487 C.ar    1  UNL1       -0.0002
     30 C           4.2108   -1.0745   18.6332 C.ar    1  UNL1       -0.0000
     31 C           4.2262    0.3974   18.9217 C.ar    1  UNL1       -0.0002
     32 C           3.3770    0.9544   20.0256 C.ar    1  UNL1       -0.0005
     33 C           4.1865    0.1332   24.9730 C.3     1  UNL1        0.1196
     34 C           4.3813   -1.2707   25.4640 C.3     1  UNL1        0.1113
     35 N           4.5359   -2.3940   24.4819 N.am    1  UNL1       -0.3026
     36 C           5.8885   -2.7183   23.9202 C.2     1  UNL1        0.2230
     37 C           6.0431   -3.8415   22.9382 C.3     1  UNL1        0.0946
     38 O           7.0864   -1.9192   24.3405 O.2     1  UNL1       -0.2751
     39 H           3.7497   -2.9184   24.2061 H       1  UNL1        0.1495
@<TRIPOS>BOND
     1    25    26    1
     2    26    13    1
     3    13    14   ar
     4    14    15   ar
     5    15    16    1
     6    15    17   ar
     7    17    18   ar
     8    18    19    1
     9    18    20   ar
    10    20     1    1
    11     1     2   ar
    12     2     3   ar
    13     3     4   ar
    14     4     5   ar
    15     5     6   ar
    16     5     7    1
    17     7    33    1
    18    33    34    1
    19    34    35    1
    20    35    36   am
    21    36    37    1
    22    36    38    2
    23     7     8   am
    24     8     9    2
    25     8    10    1
    26    10    11    1
    27    10    27    1
    28    27    28   ar
    29    28    29   ar
    30    29    30   ar
    31    30    31   ar
    32    31    32   ar
    33    10    12    1
    34    20    13   ar
    35     6     1   ar
    36    32    27   ar
    37    12     4    1
    38    16    21    1
    39    16    22    1
    40    19    23    1
    41    19    24    1
    42    35    39    1
@<TRIPOS>MOLECULE
*****
 39 42 0 0 0
SMALL
GASTEIGER

@<TRIPOS>ATOM
      1 C          -0.0780    2.7853   27.2478 C.ar    1  UNL1        0.0053
      2 C           0.9702    2.5701   26.1966 C.ar    1  UNL1        0.0033
      3 C           0.6273    2.7508   24.7476 C.ar    1  UNL1        0.0382
      4 C          -0.7638    3.1467   24.3498 C.ar    1  UNL1        0.1529
      5 C          -1.8119    3.3619   25.4009 C.ar    1  UNL1        0.0882
      6 C          -1.4690    3.1812   26.8500 C.ar    1  UNL1        0.0181
      7 N          -3.2030    3.7579   25.0031 N.am    1  UNL1       -0.2512
      8 C          -3.5458    3.9386   23.5541 C.2     1  UNL1        0.2698
      9 O          -4.9369    4.3345   23.1562 O.2     1  UNL1       -0.2704
     10 C          -2.4977    3.7234   22.5028 C.3     1  UNL1        0.2197
     11 C          -1.8551    3.6350   21.1503 C.3     1  UNL1        0.0579
     12 O          -1.1066    3.3275   22.9006 O.3     1  UNL1       -0.4686
     13 C           0.1976    1.2414   29.3192 C.ar    1  UNL1        0.0645
     14 N           0.5405    1.0607   30.7682 N.ar    1  UNL1       -0.2183
     15 C           0.9506    2.2432   31.5951 C.ar    1  UNL1        0.2145
     16 N           1.2934    2.0624   33.0441 N.pl3   1  UNL1       -0.3274
     17 N           1.0178    3.6064   30.9728 N.ar    1  UNL1       -0.1995
     18 C           0.6750    3.7871   29.5237 C.ar    1  UNL1        0.1293
     19 N           0.7422    5.1502   28.9014 N.pl3   1  UNL1       -0.3425
     20 C           0.2649    2.6046   28.6969 C.ar    1  UNL1        0.0449
     21 H           1.2493    1.1677   33.4525 H       1  UNL1        0.1452
     22 H           1.5626    2.8385   33.5868 H       1  UNL1        0.1452
     23 H           1.0114    5.9263   29.4441 H       1  UNL1        0.1437
     24 H           0.5172    5.2689   27.9504 H       1  UNL1        0.1437
     25 C          -1.4979   -0.6546   28.7897 C.3     1  UNL1        0.0067
     26 C          -0.2125    0.0590   28.4923 C.3     1  UNL1        0.0460
     27 C          -3.6655    4.0886   21.6353 C.ar    1  UNL1        0.0219
     28 C          -4.5480    3.0134   21.0738 C.ar    1  UNL1       -0.0005
     29 C          -5.7159    3.3787   20.2062 C.ar    1  UNL1       -0.0002
     30 C          -6.0013    4.8190   19.9001 C.ar    1  UNL1       -0.0000
     31 C          -5.1189    5.8942   20.4616 C.ar    1  UNL1       -0.0002
     32 C          -3.9510    5.5290   21.3292 C.ar    1  UNL1       -0.0005
     33 C          -4.2511    3.9731   26.0543 C.3     1  UNL1        0.1196
     34 C          -4.5984    5.3647   26.4933 C.3     1  UNL1        0.1113
     35 N          -4.1392    5.8659   27.8305 N.am    1  UNL1       -0.3026
     36 C          -2.8026    6.5338   27.9625 C.2     1  UNL1        0.2230
     37 C          -2.3434    7.0350   29.2996 C.3     1  UNL1        0.0946
     38 O          -1.9252    6.7005   26.7572 O.2     1  UNL1       -0.2751
     39 H          -4.7151    5.7564   28.6215 H       1  UNL1        0.1495
@<TRIPOS>BOND
     1    25    26    1
     2    26    13    1
     3    13    14   ar
     4    14    15   ar
     5    15    16    1
     6    15    17   ar
     7    17    18   ar
     8    18    19    1
     9    18    20   ar
    10    20     1    1
    11     1     2   ar
    12     2     3   ar
    13     3     4   ar
    14     4     5   ar
    15     5     6   ar
    16     5     7    1
    17     7    33    1
    18    33    34    1
    19    34    35    1
    20    35    36   am
    21    36    37    1
    22    36    38    2
    23     7     8   am
    24     8     9    2
    25     8    10    1
    26    10    11    1
    27    10    27    1
    28    27    28   ar
    29    28    29   ar
    30    29    30   ar
    31    30    31   ar
    32    31    32   ar
    33    10    12    1
    34    20    13   ar
    35     6     1   ar
    36    32    27   ar
    37    12     4    1
    38    16    21    1
    39    16    22    1
    40    19    23    1
    41    19    24    1
    42    35    39    1
