@<TRIPOS>MOLECULE
*****
 33 37 0 0 0
SMALL
GASTEIGER

@<TRIPOS>ATOM
      1 C           4.6515    0.2419   35.0534 C.ar    1  UNL1        0.1060
      2 C           5.8702   -0.5267   34.6362 C.ar    1  UNL1        0.0215
      3 C           6.0487   -0.9289   33.2022 C.ar    1  UNL1        0.0383
      4 C           5.0085   -0.5625   32.1854 C.ar    1  UNL1        0.1410
      5 C           3.7898    0.2061   32.6026 C.ar    1  UNL1        0.0700
      6 C           3.6113    0.6083   34.0367 C.ar    1  UNL1        0.0242
      7 C           2.7497    0.5725   31.5859 C.2     1  UNL1        0.1795
      8 O           1.5310    1.3410   32.0031 O.2     1  UNL1       -0.2911
      9 C           2.9282    0.1702   30.1518 C.3     1  UNL1        0.1092
     10 C           4.1469   -0.5983   29.7346 C.3     1  UNL1        0.1436
     11 C           3.1068   -0.2320   28.7178 C.3     1  UNL1        0.0620
     12 C           3.2853   -0.6342   27.2839 C.3     1  UNL1        0.0985
     13 N           4.5040   -1.4028   26.8667 N.am    1  UNL1       -0.2640
     14 C           4.6825   -1.8050   25.4326 C.2     1  UNL1        0.3039
     15 O           5.9012   -2.5736   25.0154 O.2     1  UNL1       -0.2526
     16 N           3.6424   -1.4386   24.4159 N.am    1  UNL1       -0.2901
     17 C           5.5441   -1.7691   27.8834 C.3     1  UNL1        0.0985
     18 C           5.3656   -1.3669   29.3174 C.3     1  UNL1        0.0620
     19 O           5.1871   -0.9647   30.7514 O.3     1  UNL1       -0.4819
     20 H           2.8425   -0.9341   24.6897 H       1  UNL1        0.1509
     21 C           4.2944    1.0463   37.9214 C.3     1  UNL1        0.1816
     22 S           4.4729    0.6441   36.4874 S.O2    1  UNL1        0.0105
     23 O           3.4853    1.6931   36.0702 O.2     1  UNL1       -0.1686
     24 O           5.4605   -0.4049   36.9046 O.2     1  UNL1       -0.1686
     25 C           3.8209   -1.8408   22.9818 C.3     1  UNL1        0.0774
     26 C           4.4211   -2.7532   21.9536 C.3     1  UNL1        0.0259
     27 C           3.5298   -1.6250   21.5262 C.3     1  UNL1        0.0420
     28 C           2.8472   -0.8491   20.4391 C.ar    1  UNL1       -0.0208
     29 C           1.4332   -0.3840   20.6242 C.ar    1  UNL1       -0.0042
     30 C           0.7505    0.3920   19.5371 C.ar    1  UNL1       -0.0003
     31 C           1.4818    0.7028   18.2648 C.ar    1  UNL1       -0.0000
     32 C           2.8958    0.2376   18.0797 C.ar    1  UNL1       -0.0003
     33 C           3.5785   -0.5383   19.1669 C.ar    1  UNL1       -0.0042
@<TRIPOS>BOND
     1    21    22    1
     2    22    23    2
     3    22    24    2
     4    22     1    1
     5     1     2   ar
     6     2     3   ar
     7     3     4   ar
     8     4     5   ar
     9     5     6   ar
    10     5     7    1
    11     7     8    2
    12     7     9    1
    13     9    10    1
    14    10    11    1
    15    11    12    1
    16    12    13    1
    17    13    14   am
    18    14    15    2
    19    14    16   am
    20    25    16    1
    21    25    26    1
    22    26    27    1
    23    27    28    1
    24    28    29   ar
    25    29    30   ar
    26    30    31   ar
    27    31    32   ar
    28    32    33   ar
    29    13    17    1
    30    17    18    1
    31    10    19    1
    32     6     1   ar
    33    18    10    1
    34    19     4    1
    35    27    25    1
    36    33    28   ar
    37    16    20    1
@<TRIPOS>MOLECULE
*****
 33 37 0 0 0
SMALL
GASTEIGER

@<TRIPOS>ATOM
      1 C          -7.6949    5.4374   24.1993 C.ar    1  UNL1        0.1060
      2 C          -6.6581    5.3865   25.2822 C.ar    1  UNL1        0.0215
      3 C          -5.2641    4.9324   24.9651 C.ar    1  UNL1        0.0383
      4 C          -4.9068    4.5293   23.5652 C.ar    1  UNL1        0.1410
      5 C          -5.9436    4.5801   22.4823 C.ar    1  UNL1        0.0700
      6 C          -7.3376    5.0342   22.7994 C.ar    1  UNL1        0.0242
      7 C          -5.5863    4.1770   21.0824 C.2     1  UNL1        0.1795
      8 O          -6.6231    4.2279   19.9995 O.2     1  UNL1       -0.2911
      9 C          -4.1923    3.7229   20.7653 C.3     1  UNL1        0.1092
     10 C          -3.1555    3.6720   21.8481 C.3     1  UNL1        0.1436
     11 C          -2.7983    3.2689   20.4482 C.3     1  UNL1        0.0620
     12 C          -1.4043    2.8148   20.1312 C.3     1  UNL1        0.0985
     13 N          -0.3675    2.7639   21.2140 N.am    1  UNL1       -0.2640
     14 C           1.0265    2.3099   20.8969 C.2     1  UNL1        0.3039
     15 O           2.0633    2.2590   21.9798 O.2     1  UNL1       -0.2526
     16 N           1.3838    1.9067   19.4970 N.am    1  UNL1       -0.2901
     17 C          -0.7248    3.1671   22.6139 C.3     1  UNL1        0.0985
     18 C          -2.1188    3.6211   22.9310 C.3     1  UNL1        0.0620
     19 O          -3.5128    4.0752   23.2481 O.3     1  UNL1       -0.4819
     20 H           0.7033    1.9401   18.7863 H       1  UNL1        0.1509
     21 C         -10.4830    6.3454   24.8334 C.3     1  UNL1        0.1816
     22 S          -9.0889    5.8914   24.5164 S.O2    1  UNL1        0.0105
     23 O          -8.5651    7.2513   24.8717 O.2     1  UNL1       -0.1686
     24 O          -9.6126    4.5315   24.1610 O.2     1  UNL1       -0.1686
     25 C           2.7779    1.4526   19.1799 C.3     1  UNL1        0.0774
     26 C           4.2029    1.7741   18.8393 C.3     1  UNL1        0.0259
     27 C           3.7674    0.3448   18.9712 C.3     1  UNL1        0.0420
     28 C           4.0872   -1.1200   18.9268 C.ar    1  UNL1       -0.0208
     29 C           5.3011   -1.6007   18.1883 C.ar    1  UNL1       -0.0042
     30 C           5.6209   -3.0655   18.1439 C.ar    1  UNL1       -0.0003
     31 C           4.7267   -4.0497   18.8381 C.ar    1  UNL1       -0.0000
     32 C           3.5128   -3.5691   19.5766 C.ar    1  UNL1       -0.0003
     33 C           3.1930   -2.1042   19.6210 C.ar    1  UNL1       -0.0042
@<TRIPOS>BOND
     1    21    22    1
     2    22    23    2
     3    22    24    2
     4    22     1    1
     5     1     2   ar
     6     2     3   ar
     7     3     4   ar
     8     4     5   ar
     9     5     6   ar
    10     5     7    1
    11     7     8    2
    12     7     9    1
    13     9    10    1
    14    10    11    1
    15    11    12    1
    16    12    13    1
    17    13    14   am
    18    14    15    2
    19    14    16   am
    20    25    16    1
    21    25    26    1
    22    26    27    1
    23    27    28    1
    24    28    29   ar
    25    29    30   ar
    26    30    31   ar
    27    31    32   ar
    28    32    33   ar
    29    13    17    1
    30    17    18    1
    31    10    19    1
    32     6     1   ar
    33    18    10    1
    34    19     4    1
    35    27    25    1
    36    33    28   ar
    37    16    20    1
@<TRIPOS>MOLECULE
*****
 33 37 0 0 0
SMALL
GASTEIGER

@<TRIPOS>ATOM
      1 C           3.9042    1.1666   36.3300 C.ar    1  UNL1        0.1060
      2 C           5.0105    0.1538   36.3488 C.ar    1  UNL1        0.0215
      3 C           5.4338   -0.5182   35.0764 C.ar    1  UNL1        0.0383
      4 C           4.7507   -0.1775   33.7850 C.ar    1  UNL1        0.1410
      5 C           3.6444    0.8353   33.7663 C.ar    1  UNL1        0.0700
      6 C           3.2212    1.5073   35.0388 C.ar    1  UNL1        0.0242
      7 C           2.9613    1.1760   32.4751 C.2     1  UNL1        0.1795
      8 O           1.8550    2.1888   32.4563 O.2     1  UNL1       -0.2911
      9 C           3.3845    0.5039   31.2025 C.3     1  UNL1        0.1092
     10 C           4.4909   -0.5089   31.2213 C.3     1  UNL1        0.1436
     11 C           3.8078   -0.1682   29.9301 C.3     1  UNL1        0.0620
     12 C           4.2310   -0.8402   28.6576 C.3     1  UNL1        0.0985
     13 N           5.3373   -1.8530   28.6764 N.am    1  UNL1       -0.2640
     14 C           5.7606   -2.5251   27.4039 C.2     1  UNL1        0.3039
     15 O           6.8669   -3.5379   27.4227 O.2     1  UNL1       -0.2526
     16 N           5.0775   -2.1844   26.1127 N.am    1  UNL1       -0.2901
     17 C           6.0204   -2.1937   29.9676 C.3     1  UNL1        0.0985
     18 C           5.5972   -1.5217   31.2401 C.3     1  UNL1        0.0620
     19 O           5.1739   -0.8496   32.5126 O.3     1  UNL1       -0.4819
     20 H           4.3514   -1.5196   26.1004 H       1  UNL1        0.1509
     21 C           3.0577    2.5108   38.8749 C.3     1  UNL1        0.1816
     22 S           3.4810    1.8387   37.6025 S.O2    1  UNL1        0.0105
     23 O           4.8396    1.5881   38.1867 O.2     1  UNL1       -0.1686
     24 O           2.1224    2.0893   37.0182 O.2     1  UNL1       -0.1686
     25 C           5.5007   -2.8564   24.8401 C.3     1  UNL1        0.0774
     26 C           6.4256   -3.7800   24.1043 C.3     1  UNL1        0.0259
     27 C           5.3089   -3.0969   23.3720 C.3     1  UNL1        0.0420
     28 C           4.5534   -2.8413   22.1017 C.ar    1  UNL1       -0.0208
     29 C           3.7281   -1.5971   21.9572 C.ar    1  UNL1       -0.0042
     30 C           2.9726   -1.3415   20.6869 C.ar    1  UNL1       -0.0003
     31 C           3.0424   -2.3301   19.5609 C.ar    1  UNL1       -0.0000
     32 C           3.8677   -3.5743   19.7053 C.ar    1  UNL1       -0.0003
     33 C           4.6232   -3.8299   20.9757 C.ar    1  UNL1       -0.0042
@<TRIPOS>BOND
     1    21    22    1
     2    22    23    2
     3    22    24    2
     4    22     1    1
     5     1     2   ar
     6     2     3   ar
     7     3     4   ar
     8     4     5   ar
     9     5     6   ar
    10     5     7    1
    11     7     8    2
    12     7     9    1
    13     9    10    1
    14    10    11    1
    15    11    12    1
    16    12    13    1
    17    13    14   am
    18    14    15    2
    19    14    16   am
    20    25    16    1
    21    25    26    1
    22    26    27    1
    23    27    28    1
    24    28    29   ar
    25    29    30   ar
    26    30    31   ar
    27    31    32   ar
    28    32    33   ar
    29    13    17    1
    30    17    18    1
    31    10    19    1
    32     6     1   ar
    33    18    10    1
    34    19     4    1
    35    27    25    1
    36    33    28   ar
    37    16    20    1
@<TRIPOS>MOLECULE
*****
 33 37 0 0 0
SMALL
GASTEIGER

@<TRIPOS>ATOM
      1 C           6.9511   -4.0771   21.9902 C.ar    1  UNL1        0.1060
      2 C           6.0667   -3.6350   23.1182 C.ar    1  UNL1        0.0215
      3 C           4.9520   -2.6649   22.8613 C.ar    1  UNL1        0.0383
      4 C           4.7216   -2.1367   21.4763 C.ar    1  UNL1        0.1410
      5 C           5.6060   -2.5788   20.3483 C.ar    1  UNL1        0.0700
      6 C           6.7208   -3.5490   20.6053 C.ar    1  UNL1        0.0242
      7 C           5.3757   -2.0507   18.9634 C.2     1  UNL1        0.1795
      8 O           6.2601   -2.4927   17.8354 O.2     1  UNL1       -0.2911
      9 C           4.2609   -1.0804   18.7065 C.3     1  UNL1        0.1092
     10 C           3.3765   -0.6383   19.8345 C.3     1  UNL1        0.1436
     11 C           3.1462   -0.1102   18.4496 C.3     1  UNL1        0.0620
     12 C           2.0314    0.8599   18.1927 C.3     1  UNL1        0.0985
     13 N           1.1470    1.3020   19.3207 N.am    1  UNL1       -0.2640
     14 C           0.0322    2.2723   19.0637 C.2     1  UNL1        0.3039
     15 O          -0.8522    2.7143   20.1917 O.2     1  UNL1       -0.2526
     16 N          -0.1981    2.8004   17.6788 N.am    1  UNL1       -0.2901
     17 C           1.3773    0.7739   20.7056 C.3     1  UNL1        0.0985
     18 C           2.4921   -0.1963   20.9625 C.3     1  UNL1        0.0620
     19 O           3.6069   -1.1665   21.2194 O.3     1  UNL1       -0.4819
     20 H           0.3824    2.5102   16.9385 H       1  UNL1        0.1509
     21 C           9.1807   -6.0176   22.5040 C.3     1  UNL1        0.1816
     22 S           8.0659   -5.0473   22.2471 S.O2    1  UNL1        0.0105
     23 O           8.7375   -4.6115   20.9787 O.2     1  UNL1       -0.1686
     24 O           7.3943   -5.4831   23.5155 O.2     1  UNL1       -0.1686
     25 C          -1.3129    3.7706   17.4218 C.3     1  UNL1        0.0774
     26 C          -1.8761    4.9279   16.6514 C.3     1  UNL1        0.0259
     27 C          -2.6805    4.2938   17.7472 C.3     1  UNL1        0.0420
     28 C          -3.9346    4.2298   18.5677 C.ar    1  UNL1       -0.0208
     29 C          -3.9218    4.6928   19.9944 C.ar    1  UNL1       -0.0042
     30 C          -5.1759    4.6288   20.8149 C.ar    1  UNL1       -0.0003
     31 C          -6.4427    4.1018   20.2087 C.ar    1  UNL1       -0.0000
     32 C          -6.4554    3.6387   18.7820 C.ar    1  UNL1       -0.0003
     33 C          -5.2013    3.7028   17.9615 C.ar    1  UNL1       -0.0042
@<TRIPOS>BOND
     1    21    22    1
     2    22    23    2
     3    22    24    2
     4    22     1    1
     5     1     2   ar
     6     2     3   ar
     7     3     4   ar
     8     4     5   ar
     9     5     6   ar
    10     5     7    1
    11     7     8    2
    12     7     9    1
    13     9    10    1
    14    10    11    1
    15    11    12    1
    16    12    13    1
    17    13    14   am
    18    14    15    2
    19    14    16   am
    20    25    16    1
    21    25    26    1
    22    26    27    1
    23    27    28    1
    24    28    29   ar
    25    29    30   ar
    26    30    31   ar
    27    31    32   ar
    28    32    33   ar
    29    13    17    1
    30    17    18    1
    31    10    19    1
    32     6     1   ar
    33    18    10    1
    34    19     4    1
    35    27    25    1
    36    33    28   ar
    37    16    20    1
@<TRIPOS>MOLECULE
*****
 33 37 0 0 0
SMALL
GASTEIGER

@<TRIPOS>ATOM
      1 C           6.7891   -3.7956   22.6845 C.ar    1  UNL1        0.1060
      2 C           6.5908   -2.8778   23.8543 C.ar    1  UNL1        0.0215
      3 C           5.4847   -1.8649   23.8338 C.ar    1  UNL1        0.0383
      4 C           4.5768   -1.7696   22.6435 C.ar    1  UNL1        0.1410
      5 C           4.7751   -2.6874   21.4737 C.ar    1  UNL1        0.0700
      6 C           5.8813   -3.7004   21.4942 C.ar    1  UNL1        0.0242
      7 C           3.8673   -2.5922   20.2834 C.2     1  UNL1        0.1795
      8 O           4.0656   -3.5099   19.1136 O.2     1  UNL1       -0.2911
      9 C           2.7611   -1.5792   20.2629 C.3     1  UNL1        0.1092
     10 C           2.5629   -0.6615   21.4327 C.3     1  UNL1        0.1436
     11 C           1.6550   -0.5663   20.2425 C.3     1  UNL1        0.0620
     12 C           0.5490    0.4466   20.2220 C.3     1  UNL1        0.0985
     13 N           0.3507    1.3644   21.3918 N.am    1  UNL1       -0.2640
     14 C          -0.7555    2.3774   21.3713 C.2     1  UNL1        0.3039
     15 O          -0.9538    3.2951   22.5411 O.2     1  UNL1       -0.2526
     16 N          -1.6633    2.4726   20.1810 N.am    1  UNL1       -0.2901
     17 C           1.2585    1.2692   22.5821 C.3     1  UNL1        0.0985
     18 C           2.3646    0.2563   22.6025 C.3     1  UNL1        0.0620
     19 O           3.4708   -0.7567   22.6230 O.3     1  UNL1       -0.4819
     20 H          -1.5332    1.8702   19.4133 H       1  UNL1        0.1509
     21 C           9.0014   -5.8215   22.7253 C.3     1  UNL1        0.1816
     22 S           7.8952   -4.8085   22.7049 S.O2    1  UNL1        0.0105
     23 O           8.0792   -4.5779   24.1756 O.2     1  UNL1       -0.1686
     24 O           7.7113   -5.0391   21.2342 O.2     1  UNL1       -0.1686
     25 C          -2.7695    3.4855   20.1605 C.3     1  UNL1        0.0774
     26 C          -3.4865    4.6123   19.4778 C.3     1  UNL1        0.0259
     27 C          -3.9683    4.1132   20.8077 C.3     1  UNL1        0.0420
     28 C          -4.9386    4.1874   21.9492 C.ar    1  UNL1       -0.0208
     29 C          -4.4789    3.8870   23.3450 C.ar    1  UNL1       -0.0042
     30 C          -5.4492    3.9611   24.4865 C.ar    1  UNL1       -0.0003
     31 C          -6.8793    4.3357   24.2322 C.ar    1  UNL1       -0.0000
     32 C          -7.3390    4.6361   22.8363 C.ar    1  UNL1       -0.0003
     33 C          -6.3686    4.5620   21.6948 C.ar    1  UNL1       -0.0042
@<TRIPOS>BOND
     1    21    22    1
     2    22    23    2
     3    22    24    2
     4    22     1    1
     5     1     2   ar
     6     2     3   ar
     7     3     4   ar
     8     4     5   ar
     9     5     6   ar
    10     5     7    1
    11     7     8    2
    12     7     9    1
    13     9    10    1
    14    10    11    1
    15    11    12    1
    16    12    13    1
    17    13    14   am
    18    14    15    2
    19    14    16   am
    20    25    16    1
    21    25    26    1
    22    26    27    1
    23    27    28    1
    24    28    29   ar
    25    29    30   ar
    26    30    31   ar
    27    31    32   ar
    28    32    33   ar
    29    13    17    1
    30    17    18    1
    31    10    19    1
    32     6     1   ar
    33    18    10    1
    34    19     4    1
    35    27    25    1
    36    33    28   ar
    37    16    20    1
@<TRIPOS>MOLECULE
*****
 33 37 0 0 0
SMALL
GASTEIGER

@<TRIPOS>ATOM
      1 C           3.0702    1.7111   34.1494 C.ar    1  UNL1        0.1060
      2 C           2.1202    2.4623   33.2643 C.ar    1  UNL1        0.0215
      3 C           2.0607    2.1560   31.7972 C.ar    1  UNL1        0.0383
      4 C           2.9513    1.0987   31.2149 C.ar    1  UNL1        0.1410
      5 C           3.9013    0.3476   32.1000 C.ar    1  UNL1        0.0700
      6 C           3.9608    0.6538   33.5672 C.ar    1  UNL1        0.0242
      7 C           4.7918   -0.7098   31.5178 C.2     1  UNL1        0.1795
      8 O           5.7419   -1.4609   32.4028 O.2     1  UNL1       -0.2911
      9 C           4.7324   -1.0160   30.0506 C.3     1  UNL1        0.1092
     10 C           3.7824   -0.2649   29.1655 C.3     1  UNL1        0.1436
     11 C           4.6729   -1.3222   28.5834 C.3     1  UNL1        0.0620
     12 C           4.6134   -1.6284   27.1162 C.3     1  UNL1        0.0985
     13 N           3.6634   -0.8773   26.2312 N.am    1  UNL1       -0.2640
     14 C           3.6039   -1.1836   24.7639 C.2     1  UNL1        0.3039
     15 O           2.6539   -0.4325   23.8789 O.2     1  UNL1       -0.2526
     16 N           4.4945   -2.2409   24.1818 N.am    1  UNL1       -0.2901
     17 C           2.7728    0.1800   26.8133 C.3     1  UNL1        0.0985
     18 C           2.8323    0.4862   28.2805 C.3     1  UNL1        0.0620
     19 O           2.8918    0.7925   29.7478 O.3     1  UNL1       -0.4819
     20 H           5.1180   -2.7339   24.7627 H       1  UNL1        0.1509
     21 C           3.1892    2.3235   37.0838 C.3     1  UNL1        0.1816
     22 S           3.1297    2.0173   35.6165 S.O2    1  UNL1        0.0105
     23 O           2.0112    3.0038   35.4560 O.2     1  UNL1       -0.1686
     24 O           4.2482    1.0309   35.7771 O.2     1  UNL1       -0.1686
     25 C           4.4350   -2.5472   22.7145 C.3     1  UNL1        0.0774
     26 C           4.7941   -3.4299   21.5562 C.3     1  UNL1        0.0259
     27 C           3.9729   -2.1949   21.3316 C.3     1  UNL1        0.0420
     28 C           3.2321   -1.2785   20.4036 C.ar    1  UNL1       -0.0208
     29 C           3.9351   -0.6794   19.2217 C.ar    1  UNL1       -0.0042
     30 C           3.1942    0.2370   18.2937 C.ar    1  UNL1       -0.0003
     31 C           1.7502    0.5543   18.5476 C.ar    1  UNL1       -0.0000
     32 C           1.0472   -0.0448   19.7294 C.ar    1  UNL1       -0.0003
     33 C           1.7882   -0.9612   20.6575 C.ar    1  UNL1       -0.0042
@<TRIPOS>BOND
     1    21    22    1
     2    22    23    2
     3    22    24    2
     4    22     1    1
     5     1     2   ar
     6     2     3   ar
     7     3     4   ar
     8     4     5   ar
     9     5     6   ar
    10     5     7    1
    11     7     8    2
    12     7     9    1
    13     9    10    1
    14    10    11    1
    15    11    12    1
    16    12    13    1
    17    13    14   am
    18    14    15    2
    19    14    16   am
    20    25    16    1
    21    25    26    1
    22    26    27    1
    23    27    28    1
    24    28    29   ar
    25    29    30   ar
    26    30    31   ar
    27    31    32   ar
    28    32    33   ar
    29    13    17    1
    30    17    18    1
    31    10    19    1
    32     6     1   ar
    33    18    10    1
    34    19     4    1
    35    27    25    1
    36    33    28   ar
    37    16    20    1
@<TRIPOS>MOLECULE
*****
 33 37 0 0 0
SMALL
GASTEIGER

@<TRIPOS>ATOM
      1 C          -1.4667    3.2166   22.5029 C.ar    1  UNL1        0.1060
      2 C          -0.1999    2.5376   22.0736 C.ar    1  UNL1        0.0215
      3 C           0.6897    1.8942   23.0956 C.ar    1  UNL1        0.0383
      4 C           0.3125    1.9296   24.5471 C.ar    1  UNL1        0.1410
      5 C          -0.9543    2.6086   24.9764 C.ar    1  UNL1        0.0700
      6 C          -1.8439    3.2521   23.9543 C.ar    1  UNL1        0.0242
      7 C          -1.3315    2.6441   26.4277 C.2     1  UNL1        0.1795
      8 O          -2.5983    3.3230   26.8570 O.2     1  UNL1       -0.2911
      9 C          -0.4419    2.0005   27.4498 C.3     1  UNL1        0.1092
     10 C           0.8249    1.3216   27.0205 C.3     1  UNL1        0.1436
     11 C           0.4477    1.3571   28.4718 C.3     1  UNL1        0.0620
     12 C           1.3372    0.7136   29.4938 C.3     1  UNL1        0.0985
     13 N           2.6040    0.0346   29.0645 N.am    1  UNL1       -0.2640
     14 C           3.4936   -0.6089   30.0866 C.2     1  UNL1        0.3039
     15 O           4.7604   -1.2878   29.6573 O.2     1  UNL1       -0.2526
     16 N           3.1164   -0.5734   31.5380 N.am    1  UNL1       -0.2901
     17 C           2.9812   -0.0008   27.6132 C.3     1  UNL1        0.0985
     18 C           2.0916    0.6426   26.5912 C.3     1  UNL1        0.0620
     19 O           1.2021    1.2861   25.5691 O.3     1  UNL1       -0.4819
     20 H           2.2850   -0.1278   31.8197 H       1  UNL1        0.1509
     21 C          -3.2458    4.5036   20.4588 C.3     1  UNL1        0.1816
     22 S          -2.3562    3.8601   21.4809 S.O2    1  UNL1        0.0105
     23 O          -2.3872    5.1168   22.2992 O.2     1  UNL1       -0.1686
     24 O          -2.3253    2.6033   20.6627 O.2     1  UNL1       -0.1686
     25 C           4.0060   -1.2169   32.5601 C.3     1  UNL1        0.0774
     26 C           4.2889   -1.5908   33.9849 C.3     1  UNL1        0.0259
     27 C           5.2638   -1.9575   32.9055 C.3     1  UNL1        0.0420
     28 C           6.5529   -2.5968   32.4818 C.ar    1  UNL1       -0.0208
     29 C           7.8587   -1.9225   32.7821 C.ar    1  UNL1       -0.0042
     30 C           9.1477   -2.5618   32.3584 C.ar    1  UNL1       -0.0003
     31 C           9.1310   -3.8755   31.6344 C.ar    1  UNL1       -0.0000
     32 C           7.8252   -4.5497   31.3341 C.ar    1  UNL1       -0.0003
     33 C           6.5361   -3.9104   31.7579 C.ar    1  UNL1       -0.0042
@<TRIPOS>BOND
     1    21    22    1
     2    22    23    2
     3    22    24    2
     4    22     1    1
     5     1     2   ar
     6     2     3   ar
     7     3     4   ar
     8     4     5   ar
     9     5     6   ar
    10     5     7    1
    11     7     8    2
    12     7     9    1
    13     9    10    1
    14    10    11    1
    15    11    12    1
    16    12    13    1
    17    13    14   am
    18    14    15    2
    19    14    16   am
    20    25    16    1
    21    25    26    1
    22    26    27    1
    23    27    28    1
    24    28    29   ar
    25    29    30   ar
    26    30    31   ar
    27    31    32   ar
    28    32    33   ar
    29    13    17    1
    30    17    18    1
    31    10    19    1
    32     6     1   ar
    33    18    10    1
    34    19     4    1
    35    27    25    1
    36    33    28   ar
    37    16    20    1
@<TRIPOS>MOLECULE
*****
 33 37 0 0 0
SMALL
GASTEIGER

@<TRIPOS>ATOM
      1 C          -1.3488    3.0847   21.1934 C.ar    1  UNL1        0.1060
      2 C          -0.9510    3.0453   22.6391 C.ar    1  UNL1        0.0215
      3 C           0.1704    2.1541   23.0845 C.ar    1  UNL1        0.0383
      4 C           0.8941    1.3024   22.0840 C.ar    1  UNL1        0.1410
      5 C           0.4963    1.3418   20.6382 C.ar    1  UNL1        0.0700
      6 C          -0.6252    2.2330   20.1929 C.ar    1  UNL1        0.0242
      7 C           1.2199    0.4900   19.6378 C.2     1  UNL1        0.1795
      8 O           0.8221    0.5295   18.1920 O.2     1  UNL1       -0.2911
      9 C           2.3413   -0.4012   20.0831 C.3     1  UNL1        0.1092
     10 C           2.7391   -0.4406   21.5289 C.3     1  UNL1        0.1436
     11 C           3.4627   -1.2923   20.5284 C.3     1  UNL1        0.0620
     12 C           4.5841   -2.1834   20.9738 C.3     1  UNL1        0.0985
     13 N           4.9818   -2.2228   22.4195 N.am    1  UNL1       -0.2640
     14 C           6.1033   -3.1140   22.8648 C.2     1  UNL1        0.3039
     15 O           6.5010   -3.1534   24.3106 O.2     1  UNL1       -0.2526
     16 N           6.8269   -3.9658   21.8644 N.am    1  UNL1       -0.2901
     17 C           4.2582   -1.3711   23.4200 C.3     1  UNL1        0.0985
     18 C           3.1369   -0.4800   22.9746 C.3     1  UNL1        0.0620
     19 O           2.0154    0.4112   22.5293 O.3     1  UNL1       -0.4819
     20 H           6.5658   -3.9399   20.9155 H       1  UNL1        0.1509
     21 C          -3.5915    4.8670   20.3027 C.3     1  UNL1        0.1816
     22 S          -2.4701    3.9758   20.7480 S.O2    1  UNL1        0.0105
     23 O          -3.4402    2.8465   20.9309 O.2     1  UNL1       -0.1686
     24 O          -1.5000    5.1051   20.5651 O.2     1  UNL1       -0.1686
     25 C           7.9483   -4.8570   22.3097 C.3     1  UNL1        0.0774
     26 C           9.3037   -5.4551   22.0751 C.3     1  UNL1        0.0259
     27 C           8.5352   -5.8024   23.3156 C.3     1  UNL1        0.0420
     28 C           8.4304   -6.5487   24.6125 C.ar    1  UNL1       -0.0208
     29 C           9.3751   -7.6757   24.9077 C.ar    1  UNL1       -0.0042
     30 C           9.2703   -8.4220   26.2046 C.ar    1  UNL1       -0.0003
     31 C           8.2206   -8.0413   27.2063 C.ar    1  UNL1       -0.0000
     32 C           7.2759   -6.9142   26.9111 C.ar    1  UNL1       -0.0003
     33 C           7.3808   -6.1679   25.6141 C.ar    1  UNL1       -0.0042
@<TRIPOS>BOND
     1    21    22    1
     2    22    23    2
     3    22    24    2
     4    22     1    1
     5     1     2   ar
     6     2     3   ar
     7     3     4   ar
     8     4     5   ar
     9     5     6   ar
    10     5     7    1
    11     7     8    2
    12     7     9    1
    13     9    10    1
    14    10    11    1
    15    11    12    1
    16    12    13    1
    17    13    14   am
    18    14    15    2
    19    14    16   am
    20    25    16    1
    21    25    26    1
    22    26    27    1
    23    27    28    1
    24    28    29   ar
    25    29    30   ar
    26    30    31   ar
    27    31    32   ar
    28    32    33   ar
    29    13    17    1
    30    17    18    1
    31    10    19    1
    32     6     1   ar
    33    18    10    1
    34    19     4    1
    35    27    25    1
    36    33    28   ar
    37    16    20    1
@<TRIPOS>MOLECULE
*****
 33 37 0 0 0
SMALL
GASTEIGER

@<TRIPOS>ATOM
      1 C           2.1789    3.3399   35.0945 C.ar    1  UNL1        0.1060
      2 C           1.6754    4.4976   34.2844 C.ar    1  UNL1        0.0215
      3 C           1.5801    4.3836   32.7918 C.ar    1  UNL1        0.0383
      4 C           1.9883    3.1117   32.1092 C.ar    1  UNL1        0.1410
      5 C           2.4918    1.9540   32.9193 C.ar    1  UNL1        0.0700
      6 C           2.5871    2.0681   34.4119 C.ar    1  UNL1        0.0242
      7 C           2.9000    0.6822   32.2367 C.2     1  UNL1        0.1795
      8 O           3.4035   -0.4755   33.0468 O.2     1  UNL1       -0.2911
      9 C           2.8048    0.5681   30.7441 C.3     1  UNL1        0.1092
     10 C           2.3013    1.7258   29.9340 C.3     1  UNL1        0.1436
     11 C           2.7095    0.4541   29.2515 C.3     1  UNL1        0.0620
     12 C           2.6142    0.3400   27.7589 C.3     1  UNL1        0.0985
     13 N           2.1107    1.4977   26.9488 N.am    1  UNL1       -0.2640
     14 C           2.0154    1.3836   25.4562 C.2     1  UNL1        0.3039
     15 O           1.5120    2.5413   24.6461 O.2     1  UNL1       -0.2526
     16 N           2.4236    0.1118   24.7736 N.am    1  UNL1       -0.2901
     17 C           1.7025    2.7695   27.6314 C.3     1  UNL1        0.0985
     18 C           1.7978    2.8836   29.1239 C.3     1  UNL1        0.0620
     19 O           1.8931    2.9977   30.6166 O.3     1  UNL1       -0.4819
     20 H           2.7541   -0.6480   25.3053 H       1  UNL1        0.1509
     21 C           2.3694    3.5681   38.0797 C.3     1  UNL1        0.1816
     22 S           2.2742    3.4540   36.5870 S.O2    1  UNL1        0.0105
     23 O           2.4026    1.9633   36.6928 O.2     1  UNL1       -0.1686
     24 O           2.1457    4.9447   36.4813 O.2     1  UNL1       -0.1686
     25 C           2.3284   -0.0023   23.2810 C.3     1  UNL1        0.0774
     26 C           1.8100    0.5089   21.9695 C.3     1  UNL1        0.0259
     27 C           2.6818   -0.7111   22.0071 C.3     1  UNL1        0.0420
     28 C           3.3891   -1.8247   21.2934 C.ar    1  UNL1       -0.0208
     29 C           3.1133   -2.0794   19.8411 C.ar    1  UNL1       -0.0042
     30 C           3.8206   -3.1930   19.1274 C.ar    1  UNL1       -0.0003
     31 C           4.8039   -4.0521   19.8660 C.ar    1  UNL1       -0.0000
     32 C           5.0797   -3.7974   21.3182 C.ar    1  UNL1       -0.0003
     33 C           4.3723   -2.6837   22.0319 C.ar    1  UNL1       -0.0042
@<TRIPOS>BOND
     1    21    22    1
     2    22    23    2
     3    22    24    2
     4    22     1    1
     5     1     2   ar
     6     2     3   ar
     7     3     4   ar
     8     4     5   ar
     9     5     6   ar
    10     5     7    1
    11     7     8    2
    12     7     9    1
    13     9    10    1
    14    10    11    1
    15    11    12    1
    16    12    13    1
    17    13    14   am
    18    14    15    2
    19    14    16   am
    20    25    16    1
    21    25    26    1
    22    26    27    1
    23    27    28    1
    24    28    29   ar
    25    29    30   ar
    26    30    31   ar
    27    31    32   ar
    28    32    33   ar
    29    13    17    1
    30    17    18    1
    31    10    19    1
    32     6     1   ar
    33    18    10    1
    34    19     4    1
    35    27    25    1
    36    33    28   ar
    37    16    20    1
