@<TRIPOS>MOLECULE
*****
 32 36 0 0 0
SMALL
GASTEIGER

@<TRIPOS>ATOM
      1 C           2.2705    0.2004   20.3965 C.ar    1  UNL1        0.1636
      2 N           1.2543    1.0550   19.6987 N.ar    1  UNL1       -0.2264
      3 C           0.3007    1.8913   20.4994 C.ar    1  UNL1        0.0872
      4 C           0.3632    1.8729   21.9981 C.ar    1  UNL1        0.0535
      5 C           1.3794    1.0182   22.6959 C.ar    1  UNL1        0.1349
      6 N           2.3331    0.1820   21.8950 N.ar    1  UNL1       -0.2119
      7 C           4.0256   -4.4652   18.9295 C.3     1  UNL1        0.0521
      8 C           4.1017   -2.9686   18.8622 C.ar    1  UNL1        0.0591
      9 C           3.1481   -2.1324   19.6630 C.ar    1  UNL1        0.0178
     10 C           3.2242   -0.6359   19.5956 C.ar    1  UNL1        0.0382
     11 C           4.2539    0.0245   18.7275 C.ar    1  UNL1        0.0178
     12 C           5.2075   -0.8118   17.9268 C.ar    1  UNL1        0.0591
     13 C           6.2373   -0.1515   17.0586 C.3     1  UNL1        0.0521
     14 N           5.1314   -2.3083   17.9941 N.ar    1  UNL1       -0.2540
     15 C          -0.7155    2.7459   19.8017 C.ar    1  UNL1        0.0370
     16 C          -0.4622    3.2202   18.4014 C.ar    1  UNL1        0.0046
     17 C          -1.4784    4.0749   17.7036 C.ar    1  UNL1        0.0207
     18 C          -2.7479    4.4552   18.4061 C.ar    1  UNL1        0.0989
     19 N          -3.0014    3.9809   19.8064 N.ar    1  UNL1       -0.2423
     20 C          -1.9852    3.1262   20.5042 C.ar    1  UNL1        0.1003
     21 N           1.4419    0.9998   24.1944 N.pl3   1  UNL1       -0.2931
     22 C           2.7265    0.6537   24.8872 C.3     1  UNL1        0.0935
     23 C           2.7892    0.6353   26.3858 C.3     1  UNL1        0.0375
     24 C           1.5671    0.9629   27.1916 C.3     1  UNL1        0.0611
     25 C           0.2825    1.3090   26.4987 C.3     1  UNL1        0.0375
     26 C           0.2199    1.3274   25.0002 C.3     1  UNL1        0.0935
     27 N           1.6297    0.9445   28.6902 N.3     1  UNL1       -0.2696
     28 C           2.4915   -0.0625   29.3925 C.3     1  UNL1        0.1046
     29 C           2.5541   -0.0810   30.8911 C.3     1  UNL1        0.1595
     30 O           1.7548    0.9076   31.6873 O.3     1  UNL1       -0.3508
     31 C           0.8930    1.9146   30.9850 C.3     1  UNL1        0.1595
     32 C           0.8304    1.9330   29.4864 C.3     1  UNL1        0.1046
@<TRIPOS>BOND
     1     7     8    1
     2     8     9   ar
     3     9    10   ar
     4    10     1    1
     5     1     2   ar
     6     2     3   ar
     7     3    15    1
     8    15    16   ar
     9    16    17   ar
    10    17    18   ar
    11    18    19   ar
    12    19    20   ar
    13     3     4   ar
    14     4     5   ar
    15     5    21    1
    16    21    22    1
    17    22    23    1
    18    23    24    1
    19    24    27    1
    20    27    28    1
    21    28    29    1
    22    29    30    1
    23    30    31    1
    24    31    32    1
    25    24    25    1
    26    25    26    1
    27     5     6   ar
    28    10    11   ar
    29    11    12   ar
    30    12    13    1
    31    12    14   ar
    32    14     8   ar
    33     6     1   ar
    34    20    15   ar
    35    26    21    1
    36    32    27    1
@<TRIPOS>MOLECULE
*****
 32 36 0 0 0
SMALL
GASTEIGER

@<TRIPOS>ATOM
      1 C           2.2956    0.2041   20.3806 C.ar    1  UNL1        0.1636
      2 N           1.2773    1.0561   19.6825 N.ar    1  UNL1       -0.2264
      3 C           0.3188    1.8869   20.4830 C.ar    1  UNL1        0.0872
      4 C           0.3786    1.8659   21.9818 C.ar    1  UNL1        0.0535
      5 C           1.3968    1.0140   22.6799 C.ar    1  UNL1        0.1349
      6 N           2.3554    0.1831   21.8792 N.ar    1  UNL1       -0.2119
      7 C           6.2625   -0.1253   17.0407 C.3     1  UNL1        0.0521
      8 C           5.2376   -0.7915   17.9100 C.ar    1  UNL1        0.0591
      9 C           4.2791    0.0394   18.7106 C.ar    1  UNL1        0.0178
     10 C           3.2541   -0.6268   19.5800 C.ar    1  UNL1        0.0382
     11 C           3.1877   -2.1237   19.6488 C.ar    1  UNL1        0.0178
     12 C           4.1462   -2.9545   18.8482 C.ar    1  UNL1        0.0591
     13 C           4.0798   -4.4515   18.9170 C.3     1  UNL1        0.0521
     14 N           5.1711   -2.2884   17.9788 N.ar    1  UNL1       -0.2540
     15 C          -0.6995    2.7388   19.7849 C.ar    1  UNL1        0.0370
     16 C          -0.4227    3.2603   18.4061 C.ar    1  UNL1        0.0046
     17 C          -1.4409    4.1122   17.7080 C.ar    1  UNL1        0.0207
     18 C          -2.7360    4.4427   18.3887 C.ar    1  UNL1        0.0989
     19 N          -3.0129    3.9212   19.7677 N.ar    1  UNL1       -0.2423
     20 C          -1.9946    3.0693   20.4658 C.ar    1  UNL1        0.1003
     21 N           1.4566    0.9929   24.1785 N.pl3   1  UNL1       -0.2931
     22 C           0.2275    1.2977   24.9824 C.3     1  UNL1        0.0935
     23 C           0.2872    1.2767   26.4811 C.3     1  UNL1        0.0375
     24 C           1.5761    0.9508   27.1758 C.3     1  UNL1        0.0611
     25 C           2.8053    0.6460   26.3718 C.3     1  UNL1        0.0375
     26 C           2.7455    0.6671   24.8732 C.3     1  UNL1        0.0935
     27 N           1.6359    0.9298   28.6745 N.3     1  UNL1       -0.2696
     28 C           2.4899   -0.0838   29.3768 C.3     1  UNL1        0.1046
     29 C           2.5497   -0.1049   30.8755 C.3     1  UNL1        0.1595
     30 O           1.7555    0.8876   31.6718 O.3     1  UNL1       -0.3508
     31 C           0.9014    1.9012   30.9694 C.3     1  UNL1        0.1595
     32 C           0.8417    1.9223   29.4708 C.3     1  UNL1        0.1046
@<TRIPOS>BOND
     1     7     8    1
     2     8     9   ar
     3     9    10   ar
     4    10     1    1
     5     1     2   ar
     6     2     3   ar
     7     3    15    1
     8    15    16   ar
     9    16    17   ar
    10    17    18   ar
    11    18    19   ar
    12    19    20   ar
    13     3     4   ar
    14     4     5   ar
    15     5    21    1
    16    21    22    1
    17    22    23    1
    18    23    24    1
    19    24    27    1
    20    27    28    1
    21    28    29    1
    22    29    30    1
    23    30    31    1
    24    31    32    1
    25    24    25    1
    26    25    26    1
    27     5     6   ar
    28    10    11   ar
    29    11    12   ar
    30    12    13    1
    31    12    14   ar
    32    14     8   ar
    33     6     1   ar
    34    20    15   ar
    35    26    21    1
    36    32    27    1
@<TRIPOS>MOLECULE
*****
 32 36 0 0 0
SMALL
GASTEIGER

@<TRIPOS>ATOM
      1 C          -1.6667    2.8431   25.4173 C.ar    1  UNL1        0.1636
      2 N          -1.1219    2.6443   26.8006 N.ar    1  UNL1       -0.2264
      3 C           0.1595    1.8906   27.0009 C.ar    1  UNL1        0.0872
      4 C           0.8961    1.3358   25.8178 C.ar    1  UNL1        0.0535
      5 C           0.3512    1.5346   24.4344 C.ar    1  UNL1        0.1349
      6 N          -0.9302    2.2883   24.2342 N.ar    1  UNL1       -0.2119
      7 C          -5.5434    5.7193   27.3406 C.3     1  UNL1        0.0521
      8 C          -4.8864    5.0348   26.1787 C.ar    1  UNL1        0.0591
      9 C          -3.6051    4.2812   26.3789 C.ar    1  UNL1        0.0178
     10 C          -2.9481    3.5968   25.2170 C.ar    1  UNL1        0.0382
     11 C          -3.5726    3.6659   23.8550 C.ar    1  UNL1        0.0178
     12 C          -4.8539    4.4196   23.6548 C.ar    1  UNL1        0.0591
     13 C          -5.4784    4.4888   22.2927 C.3     1  UNL1        0.0521
     14 N          -5.5109    5.1040   24.8167 N.ar    1  UNL1       -0.2540
     15 C           0.7043    1.6918   28.3842 C.ar    1  UNL1        0.0370
     16 C           1.0010    2.8793   29.2513 C.ar    1  UNL1        0.0046
     17 C           1.5458    2.6804   30.6346 C.ar    1  UNL1        0.0207
     18 C           1.7939    1.2941   31.1509 C.ar    1  UNL1        0.0989
     19 N           1.4972    0.1066   30.2838 N.ar    1  UNL1       -0.2423
     20 C           0.9524    0.3054   28.9005 C.ar    1  UNL1        0.1003
     21 N           1.0878    0.9799   23.2514 N.pl3   1  UNL1       -0.2931
     22 C           2.3851    0.2533   23.4489 C.3     1  UNL1        0.0935
     23 C           3.1217   -0.3015   22.2658 C.3     1  UNL1        0.0375
     24 C           2.5609   -0.1297   20.8852 C.3     1  UNL1        0.0611
     25 C           1.2635    0.5969   20.6877 C.3     1  UNL1        0.0375
     26 C           0.5270    1.1516   21.8708 C.3     1  UNL1        0.0935
     27 N           3.2974   -0.6845   19.7021 N.3     1  UNL1       -0.2696
     28 C           4.2617   -1.8190   19.8836 C.3     1  UNL1        0.1046
     29 C           4.9983   -2.3739   18.7005 C.3     1  UNL1        0.1595
     30 O           4.7705   -1.7942   17.3359 O.3     1  UNL1       -0.3508
     31 C           3.8062   -0.6596   17.1545 C.3     1  UNL1        0.1595
     32 C           3.0697   -0.1048   18.3376 C.3     1  UNL1        0.1046
@<TRIPOS>BOND
     1     7     8    1
     2     8     9   ar
     3     9    10   ar
     4    10     1    1
     5     1     2   ar
     6     2     3   ar
     7     3    15    1
     8    15    16   ar
     9    16    17   ar
    10    17    18   ar
    11    18    19   ar
    12    19    20   ar
    13     3     4   ar
    14     4     5   ar
    15     5    21    1
    16    21    22    1
    17    22    23    1
    18    23    24    1
    19    24    27    1
    20    27    28    1
    21    28    29    1
    22    29    30    1
    23    30    31    1
    24    31    32    1
    25    24    25    1
    26    25    26    1
    27     5     6   ar
    28    10    11   ar
    29    11    12   ar
    30    12    13    1
    31    12    14   ar
    32    14     8   ar
    33     6     1   ar
    34    20    15   ar
    35    26    21    1
    36    32    27    1
@<TRIPOS>MOLECULE
*****
 32 36 0 0 0
SMALL
GASTEIGER

@<TRIPOS>ATOM
      1 C           3.4149   -0.8759   21.7857 C.ar    1  UNL1        0.1636
      2 N           2.2804    0.1050   21.8124 N.ar    1  UNL1       -0.2264
      3 C           1.7851    0.6435   23.1219 C.ar    1  UNL1        0.0872
      4 C           2.4244    0.2010   24.4048 C.ar    1  UNL1        0.0535
      5 C           3.5589   -0.7799   24.3781 C.ar    1  UNL1        0.1349
      6 N           4.0541   -1.3184   23.0685 N.ar    1  UNL1       -0.2119
      7 C           5.2200   -0.0662   16.9810 C.3     1  UNL1        0.0521
      8 C           4.8127   -1.0095   18.0738 C.ar    1  UNL1        0.0591
      9 C           4.3175   -0.4711   19.3833 C.ar    1  UNL1        0.0178
     10 C           3.9101   -1.4144   20.4762 C.ar    1  UNL1        0.0382
     11 C           3.9979   -2.8960   20.2595 C.ar    1  UNL1        0.0178
     12 C           4.4932   -3.4344   18.9500 C.ar    1  UNL1        0.0591
     13 C           4.5810   -4.9161   18.7333 C.3     1  UNL1        0.0521
     14 N           4.9005   -2.4911   17.8571 N.ar    1  UNL1       -0.2540
     15 C           0.6506    1.6244   23.1486 C.ar    1  UNL1        0.0370
     16 C           0.0900    2.0871   24.4607 C.ar    1  UNL1        0.0046
     17 C          -1.0445    3.0680   24.4874 C.ar    1  UNL1        0.0207
     18 C          -1.6183    3.5862   23.2020 C.ar    1  UNL1        0.0989
     19 N          -1.0577    3.1235   21.8899 N.ar    1  UNL1       -0.2423
     20 C           0.0768    2.1426   21.8632 C.ar    1  UNL1        0.1003
     21 N           4.1981   -1.2224   25.6608 N.pl3   1  UNL1       -0.2931
     22 C           3.5966   -0.8225   26.9754 C.3     1  UNL1        0.0935
     23 C           4.2359   -1.2650   28.2583 C.3     1  UNL1        0.0375
     24 C           5.4766   -2.1074   28.2264 C.3     1  UNL1        0.0611
     25 C           6.0781   -2.5072   26.9117 C.3     1  UNL1        0.0375
     26 C           5.4389   -2.0648   25.6290 C.3     1  UNL1        0.0935
     27 N           6.1159   -2.5498   29.5092 N.3     1  UNL1       -0.2696
     28 C           6.0822   -1.6541   30.7119 C.3     1  UNL1        0.1046
     29 C           6.7215   -2.0966   31.9948 C.3     1  UNL1        0.1595
     30 O           7.3944   -3.4348   32.0748 O.3     1  UNL1       -0.3508
     31 C           7.4281   -4.3305   30.8720 C.3     1  UNL1        0.1595
     32 C           6.7888   -3.8880   29.5893 C.3     1  UNL1        0.1046
@<TRIPOS>BOND
     1     7     8    1
     2     8     9   ar
     3     9    10   ar
     4    10     1    1
     5     1     2   ar
     6     2     3   ar
     7     3    15    1
     8    15    16   ar
     9    16    17   ar
    10    17    18   ar
    11    18    19   ar
    12    19    20   ar
    13     3     4   ar
    14     4     5   ar
    15     5    21    1
    16    21    22    1
    17    22    23    1
    18    23    24    1
    19    24    27    1
    20    27    28    1
    21    28    29    1
    22    29    30    1
    23    30    31    1
    24    31    32    1
    25    24    25    1
    26    25    26    1
    27     5     6   ar
    28    10    11   ar
    29    11    12   ar
    30    12    13    1
    31    12    14   ar
    32    14     8   ar
    33     6     1   ar
    34    20    15   ar
    35    26    21    1
    36    32    27    1
@<TRIPOS>MOLECULE
*****
 32 36 0 0 0
SMALL
GASTEIGER

@<TRIPOS>ATOM
      1 C           0.3069    1.8024   27.2896 C.ar    1  UNL1        0.1636
      2 N          -0.9363    2.6161   27.0839 N.ar    1  UNL1       -0.2264
      3 C          -1.4617    2.8456   25.6978 C.ar    1  UNL1        0.0872
      4 C          -0.7439    2.2614   24.5173 C.ar    1  UNL1        0.0535
      5 C           0.4993    1.4477   24.7230 C.ar    1  UNL1        0.1349
      6 N           1.0247    1.2182   26.1092 N.ar    1  UNL1       -0.2119
      7 C           3.0465   -1.0664   30.6459 C.3     1  UNL1        0.0521
      8 C           2.2021    0.1385   30.3538 C.ar    1  UNL1        0.0591
      9 C           1.6767    0.3680   28.9678 C.ar    1  UNL1        0.0178
     10 C           0.8323    1.5728   28.6757 C.ar    1  UNL1        0.0382
     11 C           0.5132    2.5481   29.7698 C.ar    1  UNL1        0.0178
     12 C           1.0385    2.3186   31.1558 C.ar    1  UNL1        0.0591
     13 C           0.7195    3.2939   32.2500 C.3     1  UNL1        0.0521
     14 N           1.8830    1.1138   31.4479 N.ar    1  UNL1       -0.2540
     15 C          -2.7049    3.6593   25.4921 C.ar    1  UNL1        0.0370
     16 C          -3.6588    3.8722   26.6300 C.ar    1  UNL1        0.0046
     17 C          -4.9020    4.6859   26.4244 C.ar    1  UNL1        0.0207
     18 C          -5.1913    5.2868   25.0808 C.ar    1  UNL1        0.0989
     19 N          -4.2374    5.0740   23.9428 N.ar    1  UNL1       -0.2423
     20 C          -2.9942    4.2602   24.1485 C.ar    1  UNL1        0.1003
     21 N           1.2172    0.8635   23.5426 N.pl3   1  UNL1       -0.2931
     22 C           2.4515    0.0367   23.7494 C.3     1  UNL1        0.0935
     23 C           3.1694   -0.5475   22.5690 C.3     1  UNL1        0.0375
     24 C           2.6529   -0.3049   21.1817 C.3     1  UNL1        0.0611
     25 C           1.4185    0.5219   20.9750 C.3     1  UNL1        0.0375
     26 C           0.7007    1.1061   22.1554 C.3     1  UNL1        0.0935
     27 N           3.3707   -0.8891   20.0013 N.3     1  UNL1       -0.2696
     28 C           4.2193   -2.1143   20.1707 C.3     1  UNL1        0.1046
     29 C           4.9372   -2.6986   18.9903 C.3     1  UNL1        0.1595
     30 O           4.8064   -2.0576   17.6405 O.3     1  UNL1       -0.3508
     31 C           3.9578   -0.8323   17.4711 C.3     1  UNL1        0.1595
     32 C           3.2400   -0.2481   18.6515 C.3     1  UNL1        0.1046
@<TRIPOS>BOND
     1     7     8    1
     2     8     9   ar
     3     9    10   ar
     4    10     1    1
     5     1     2   ar
     6     2     3   ar
     7     3    15    1
     8    15    16   ar
     9    16    17   ar
    10    17    18   ar
    11    18    19   ar
    12    19    20   ar
    13     3     4   ar
    14     4     5   ar
    15     5    21    1
    16    21    22    1
    17    22    23    1
    18    23    24    1
    19    24    27    1
    20    27    28    1
    21    28    29    1
    22    29    30    1
    23    30    31    1
    24    31    32    1
    25    24    25    1
    26    25    26    1
    27     5     6   ar
    28    10    11   ar
    29    11    12   ar
    30    12    13    1
    31    12    14   ar
    32    14     8   ar
    33     6     1   ar
    34    20    15   ar
    35    26    21    1
    36    32    27    1
@<TRIPOS>MOLECULE
*****
 32 36 0 0 0
SMALL
GASTEIGER

@<TRIPOS>ATOM
      1 C           0.3424    1.8602   20.2615 C.ar    1  UNL1        0.1636
      2 N           1.2493    0.9378   19.5021 N.ar    1  UNL1       -0.2264
      3 C           2.1900    0.0337   20.2422 C.ar    1  UNL1        0.0872
      4 C           2.2239    0.0520   21.7417 C.ar    1  UNL1        0.0535
      5 C           1.3170    0.9744   22.5012 C.ar    1  UNL1        0.1349
      6 N           0.3763    1.8785   21.7610 N.ar    1  UNL1       -0.2119
      7 C          -4.0648    4.6080   20.0996 C.3     1  UNL1        0.0521
      8 C          -2.8019    4.1381   19.4405 C.ar    1  UNL1        0.0591
      9 C          -1.8612    3.2341   20.1805 C.ar    1  UNL1        0.0178
     10 C          -0.5983    2.7642   19.5214 C.ar    1  UNL1        0.0382
     11 C          -0.2762    3.1984   18.1223 C.ar    1  UNL1        0.0178
     12 C          -1.2169    4.1024   17.3822 C.ar    1  UNL1        0.0591
     13 C          -0.8948    4.5367   15.9830 C.3     1  UNL1        0.0521
     14 N          -2.4798    4.5723   18.0413 N.ar    1  UNL1       -0.2540
     15 C           3.0969   -0.8887   19.4827 C.ar    1  UNL1        0.0370
     16 C           3.4790   -2.2154   20.0691 C.ar    1  UNL1        0.0046
     17 C           4.3859   -3.1378   19.3096 C.ar    1  UNL1        0.0207
     18 C           4.9107   -2.7335   17.9639 C.ar    1  UNL1        0.0989
     19 N           4.5286   -1.4067   17.3775 N.ar    1  UNL1       -0.2423
     20 C           3.6217   -0.4843   18.1369 C.ar    1  UNL1        0.1003
     21 N           1.3508    0.9928   24.0006 N.pl3   1  UNL1       -0.2931
     22 C           0.1318    1.4013   24.7733 C.3     1  UNL1        0.0935
     23 C           0.1656    1.4197   26.2729 C.3     1  UNL1        0.0375
     24 C           1.4184    1.0295   26.9997 C.3     1  UNL1        0.0611
     25 C           2.6375    0.6209   26.2269 C.3     1  UNL1        0.0375
     26 C           2.6036    0.6026   24.7274 C.3     1  UNL1        0.0935
     27 N           1.4522    1.0479   28.4991 N.3     1  UNL1       -0.2696
     28 C           2.3075    0.0648   29.2421 C.3     1  UNL1        0.1046
     29 C           2.3414    0.0831   30.7416 C.3     1  UNL1        0.1595
     30 O           1.5199    1.0845   31.4982 O.3     1  UNL1       -0.3508
     31 C           0.6646    2.0676   30.7551 C.3     1  UNL1        0.1595
     32 C           0.6308    2.0493   29.2557 C.3     1  UNL1        0.1046
@<TRIPOS>BOND
     1     7     8    1
     2     8     9   ar
     3     9    10   ar
     4    10     1    1
     5     1     2   ar
     6     2     3   ar
     7     3    15    1
     8    15    16   ar
     9    16    17   ar
    10    17    18   ar
    11    18    19   ar
    12    19    20   ar
    13     3     4   ar
    14     4     5   ar
    15     5    21    1
    16    21    22    1
    17    22    23    1
    18    23    24    1
    19    24    27    1
    20    27    28    1
    21    28    29    1
    22    29    30    1
    23    30    31    1
    24    31    32    1
    25    24    25    1
    26    25    26    1
    27     5     6   ar
    28    10    11   ar
    29    11    12   ar
    30    12    13    1
    31    12    14   ar
    32    14     8   ar
    33     6     1   ar
    34    20    15   ar
    35    26    21    1
    36    32    27    1
@<TRIPOS>MOLECULE
*****
 32 36 0 0 0
SMALL
GASTEIGER

@<TRIPOS>ATOM
      1 C           0.2462    1.7958   27.3367 C.ar    1  UNL1        0.1636
      2 N          -1.0216    2.5727   27.1391 N.ar    1  UNL1       -0.2264
      3 C          -1.5652    2.7823   25.7569 C.ar    1  UNL1        0.0872
      4 C          -0.8409    2.2151   24.5721 C.ar    1  UNL1        0.0535
      5 C           0.4270    1.4382   24.7697 C.ar    1  UNL1        0.1349
      6 N           0.9705    1.2286   26.1520 N.ar    1  UNL1       -0.2119
      7 C           0.7368    3.3670   32.2652 C.3     1  UNL1        0.0521
      8 C           1.0350    2.3718   31.1832 C.ar    1  UNL1        0.0591
      9 C           0.4915    2.5814   29.8010 C.ar    1  UNL1        0.0178
     10 C           0.7897    1.5862   28.7190 C.ar    1  UNL1        0.0382
     11 C           1.6314    0.3815   29.0192 C.ar    1  UNL1        0.0178
     12 C           2.1749    0.1720   30.4015 C.ar    1  UNL1        0.0591
     13 C           3.0166   -1.0328   30.7018 C.3     1  UNL1        0.0521
     14 N           1.8767    1.1671   31.4835 N.ar    1  UNL1       -0.2540
     15 C          -2.8330    3.5592   25.5594 C.ar    1  UNL1        0.0370
     16 C          -3.2825    3.9219   24.1751 C.ar    1  UNL1        0.0046
     17 C          -4.5503    4.6987   23.9775 C.ar    1  UNL1        0.0207
     18 C          -5.3688    5.1129   25.1644 C.ar    1  UNL1        0.0989
     19 N          -4.9193    4.7503   26.5488 N.ar    1  UNL1       -0.2423
     20 C          -3.6515    3.9734   26.7463 C.ar    1  UNL1        0.1003
     21 N           1.1513    0.8710   23.5850 N.pl3   1  UNL1       -0.2931
     22 C           0.6613    1.1606   22.1972 C.3     1  UNL1        0.0935
     23 C           1.3856    0.5933   21.0124 C.3     1  UNL1        0.0375
     24 C           2.5999   -0.2636   21.2155 C.3     1  UNL1        0.0611
     25 C           3.0899   -0.5532   22.6034 C.3     1  UNL1        0.0375
     26 C           2.3656    0.0141   23.7881 C.3     1  UNL1        0.0935
     27 N           3.3243   -0.8308   20.0308 N.3     1  UNL1       -0.2696
     28 C           3.7988   -2.2536   20.0526 C.3     1  UNL1        0.1046
     29 C           4.5231   -2.8209   18.8679 C.3     1  UNL1        0.1595
     30 O           4.7729   -1.9654   17.6614 O.3     1  UNL1       -0.3508
     31 C           4.2984   -0.5425   17.6396 C.3     1  UNL1        0.1595
     32 C           3.5741    0.0247   18.8243 C.3     1  UNL1        0.1046
@<TRIPOS>BOND
     1     7     8    1
     2     8     9   ar
     3     9    10   ar
     4    10     1    1
     5     1     2   ar
     6     2     3   ar
     7     3    15    1
     8    15    16   ar
     9    16    17   ar
    10    17    18   ar
    11    18    19   ar
    12    19    20   ar
    13     3     4   ar
    14     4     5   ar
    15     5    21    1
    16    21    22    1
    17    22    23    1
    18    23    24    1
    19    24    27    1
    20    27    28    1
    21    28    29    1
    22    29    30    1
    23    30    31    1
    24    31    32    1
    25    24    25    1
    26    25    26    1
    27     5     6   ar
    28    10    11   ar
    29    11    12   ar
    30    12    13    1
    31    12    14   ar
    32    14     8   ar
    33     6     1   ar
    34    20    15   ar
    35    26    21    1
    36    32    27    1
@<TRIPOS>MOLECULE
*****
 32 36 0 0 0
SMALL
GASTEIGER

@<TRIPOS>ATOM
      1 C           3.4071   -0.6853   28.6185 C.ar    1  UNL1        0.1636
      2 N           4.5260   -1.2674   29.4305 N.ar    1  UNL1       -0.2264
      3 C           5.6751   -1.9463   28.7459 C.ar    1  UNL1        0.0872
      4 C           5.7053   -2.0431   27.2493 C.ar    1  UNL1        0.0535
      5 C           4.5864   -1.4611   26.4373 C.ar    1  UNL1        0.1349
      6 N           3.4373   -0.7821   27.1220 N.ar    1  UNL1       -0.2119
      7 C           1.6081    2.4374   32.3618 C.3     1  UNL1        0.0521
      8 C           1.3585    1.5550   31.1748 C.ar    1  UNL1        0.0591
      9 C           2.5076    0.8761   30.4901 C.ar    1  UNL1        0.0178
     10 C           2.2580   -0.0064   29.3031 C.ar    1  UNL1        0.0382
     11 C           0.8594   -0.2099   28.8007 C.ar    1  UNL1        0.0178
     12 C          -0.2896    0.4690   29.4854 C.ar    1  UNL1        0.0591
     13 C          -1.6883    0.2655   28.9830 C.3     1  UNL1        0.0521
     14 N          -0.0401    1.3514   30.6724 N.ar    1  UNL1       -0.2540
     15 C           6.7940   -2.5283   29.5579 C.ar    1  UNL1        0.0370
     16 C           6.5040   -3.1733   30.8807 C.ar    1  UNL1        0.0046
     17 C           7.6228   -3.7554   31.6926 C.ar    1  UNL1        0.0207
     18 C           9.0317   -3.6924   31.1818 C.ar    1  UNL1        0.0989
     19 N           9.3218   -3.0474   29.8590 N.ar    1  UNL1       -0.2423
     20 C           8.2029   -2.4653   29.0470 C.ar    1  UNL1        0.1003
     21 N           4.6166   -1.5579   24.9408 N.pl3   1  UNL1       -0.2931
     22 C           3.4924   -0.9855   24.1294 C.3     1  UNL1        0.0935
     23 C           3.5226   -1.0823   22.6328 C.3     1  UNL1        0.0375
     24 C           4.6770   -1.7516   21.9476 C.3     1  UNL1        0.0611
     25 C           5.8013   -2.3240   22.7591 C.3     1  UNL1        0.0375
     26 C           5.7711   -2.2272   24.2556 C.3     1  UNL1        0.0935
     27 N           4.7072   -1.8484   20.4511 N.3     1  UNL1       -0.2696
     28 C           5.5530   -2.8922   19.7840 C.3     1  UNL1        0.1046
     29 C           5.5832   -2.9891   18.2874 C.3     1  UNL1        0.1595
     30 O           4.7676   -2.0422   17.4579 O.3     1  UNL1       -0.3508
     31 C           3.9218   -0.9983   18.1251 C.3     1  UNL1        0.1595
     32 C           3.8916   -0.9015   19.6216 C.3     1  UNL1        0.1046
@<TRIPOS>BOND
     1     7     8    1
     2     8     9   ar
     3     9    10   ar
     4    10     1    1
     5     1     2   ar
     6     2     3   ar
     7     3    15    1
     8    15    16   ar
     9    16    17   ar
    10    17    18   ar
    11    18    19   ar
    12    19    20   ar
    13     3     4   ar
    14     4     5   ar
    15     5    21    1
    16    21    22    1
    17    22    23    1
    18    23    24    1
    19    24    27    1
    20    27    28    1
    21    28    29    1
    22    29    30    1
    23    30    31    1
    24    31    32    1
    25    24    25    1
    26    25    26    1
    27     5     6   ar
    28    10    11   ar
    29    11    12   ar
    30    12    13    1
    31    12    14   ar
    32    14     8   ar
    33     6     1   ar
    34    20    15   ar
    35    26    21    1
    36    32    27    1
@<TRIPOS>MOLECULE
*****
 32 36 0 0 0
SMALL
GASTEIGER

@<TRIPOS>ATOM
      1 C          -4.3013    4.5691   25.6298 C.ar    1  UNL1        0.1636
      2 N          -3.9156    4.4984   24.1820 N.ar    1  UNL1       -0.2264
      3 C          -2.6214    3.8548   23.7811 C.ar    1  UNL1        0.0872
      4 C          -1.7127    3.2819   24.8282 C.ar    1  UNL1        0.0535
      5 C          -2.0984    3.3527   26.2760 C.ar    1  UNL1        0.1349
      6 N          -3.3927    3.9963   26.6768 N.ar    1  UNL1       -0.2119
      7 C          -9.1202    6.1066   24.4407 C.3     1  UNL1        0.0521
      8 C          -8.0050    5.9815   25.4360 C.ar    1  UNL1        0.0591
      9 C          -6.7108    5.3379   25.0353 C.ar    1  UNL1        0.0178
     10 C          -5.5956    5.2128   26.0306 C.ar    1  UNL1        0.0382
     11 C          -5.7747    5.7312   27.4267 C.ar    1  UNL1        0.0178
     12 C          -7.0689    6.3748   27.8275 C.ar    1  UNL1        0.0591
     13 C          -7.2481    6.8933   29.2236 C.3     1  UNL1        0.0521
     14 N          -8.1841    6.4999   26.8321 N.ar    1  UNL1       -0.2540
     15 C          -2.2358    3.7840   22.3333 C.ar    1  UNL1        0.0370
     16 C          -0.8112    4.0152   21.9244 C.ar    1  UNL1        0.0046
     17 C          -0.4256    3.9445   20.4765 C.ar    1  UNL1        0.0207
     18 C          -1.4645    3.6425   19.4376 C.ar    1  UNL1        0.0989
     19 N          -2.8891    3.4113   19.8464 N.ar    1  UNL1       -0.2423
     20 C          -3.2747    3.4821   21.2943 C.ar    1  UNL1        0.1003
     21 N          -1.1898    2.7798   27.3230 N.pl3   1  UNL1       -0.2931
     22 C          -0.1572    3.6493   27.9771 C.3     1  UNL1        0.0935
     23 C           0.7514    3.0765   29.0242 C.3     1  UNL1        0.0375
     24 C           0.6275    1.6342   29.4171 C.3     1  UNL1        0.0611
     25 C          -0.4052    0.7647   28.7630 C.3     1  UNL1        0.0375
     26 C          -1.3137    1.3376   27.7160 C.3     1  UNL1        0.0935
     27 N           1.5360    1.0614   30.4641 N.3     1  UNL1       -0.2696
     28 C           2.2277   -0.2475   30.2223 C.3     1  UNL1        0.1046
     29 C           3.1363   -0.8204   31.2693 C.3     1  UNL1        0.1595
     30 O           3.3533   -0.0843   32.5582 O.3     1  UNL1       -0.3508
     31 C           2.6616    1.2246   32.8000 C.3     1  UNL1        0.1595
     32 C           1.7530    1.7974   31.7530 C.3     1  UNL1        0.1046
@<TRIPOS>BOND
     1     7     8    1
     2     8     9   ar
     3     9    10   ar
     4    10     1    1
     5     1     2   ar
     6     2     3   ar
     7     3    15    1
     8    15    16   ar
     9    16    17   ar
    10    17    18   ar
    11    18    19   ar
    12    19    20   ar
    13     3     4   ar
    14     4     5   ar
    15     5    21    1
    16    21    22    1
    17    22    23    1
    18    23    24    1
    19    24    27    1
    20    27    28    1
    21    28    29    1
    22    29    30    1
    23    30    31    1
    24    31    32    1
    25    24    25    1
    26    25    26    1
    27     5     6   ar
    28    10    11   ar
    29    11    12   ar
    30    12    13    1
    31    12    14   ar
    32    14     8   ar
    33     6     1   ar
    34    20    15   ar
    35    26    21    1
    36    32    27    1
