@<TRIPOS>MOLECULE
*****
 27 29 0 0 0
SMALL
GASTEIGER

@<TRIPOS>ATOM
      1 C          -7.4063  -19.2434   20.4207 C.ar    1  UNL1        0.0192
      2 C          -7.7814  -19.9230   19.1372 C.ar    1  UNL1        0.0015
      3 C          -9.2248  -20.0496   18.7496 C.ar    1  UNL1        0.0000
      4 C         -10.2933  -19.4967   19.6455 C.ar    1  UNL1       -0.0000
      5 C          -9.9182  -18.8171   20.9291 C.ar    1  UNL1        0.0000
      6 C          -8.4748  -18.6905   21.3166 C.ar    1  UNL1        0.0015
      7 C          -3.5543  -18.8442   20.6827 C.ar    1  UNL1        0.1947
      8 N          -4.8116  -18.9167   19.8678 N.ar    1  UNL1       -0.2228
      9 C          -5.9628  -19.1168   20.8084 C.ar    1  UNL1        0.1000
     10 C          -5.4170  -19.1680   22.2046 C.ar    1  UNL1        0.0930
     11 N          -3.9285  -18.9995   22.1270 N.ar    1  UNL1       -0.3325
     12 H          -3.3064  -18.9922   22.8900 H       1  UNL1        0.1676
     13 N          -1.9591  -18.3489   18.6927 N.am    1  UNL1       -0.3228
     14 C          -2.1666  -18.6505   20.1473 C.2     1  UNL1        0.2769
     15 O          -0.9863  -18.7583   21.0667 O.2     1  UNL1       -0.2671
     16 H          -1.0483  -18.2217   18.3413 H       1  UNL1        0.1453
     17 H          -2.7338  -18.2781   18.0893 H       1  UNL1        0.1453
     18 C         -10.9867  -18.2642   21.8250 C.ar    1  UNL1        0.0039
     19 C         -11.4552  -19.0553   23.0101 C.ar    1  UNL1       -0.0001
     20 C         -12.5236  -18.5024   23.9061 C.ar    1  UNL1       -0.0000
     21 C         -13.1236  -17.1584   23.6169 C.ar    1  UNL1       -0.0001
     22 C         -12.6551  -16.3673   22.4317 C.ar    1  UNL1        0.0039
     23 C         -11.5866  -16.9202   21.5358 C.ar    1  UNL1        0.0714
     24 C         -11.1181  -16.1291   20.3506 C.3     1  UNL1        0.4186
     25 F         -10.6497  -15.3380   19.1654 F       1  UNL1       -0.1659
     26 F         -10.0671  -15.4784   21.2003 F       1  UNL1       -0.1659
     27 F         -12.1691  -16.7797   19.5009 F       1  UNL1       -0.1659
@<TRIPOS>BOND
     1    13    14   am
     2    14    15    2
     3    14     7    1
     4     7     8   ar
     5     8     9   ar
     6     9     1    1
     7     1     2   ar
     8     2     3   ar
     9     3     4   ar
    10     4     5   ar
    11     5    18    1
    12    18    19   ar
    13    19    20   ar
    14    20    21   ar
    15    21    22   ar
    16    22    23   ar
    17    23    24    1
    18    24    25    1
    19    24    26    1
    20    24    27    1
    21     5     6   ar
    22     9    10   ar
    23    10    11   ar
    24    11     7   ar
    25     6     1   ar
    26    23    18   ar
    27    13    16    1
    28    13    17    1
    29    11    12    1
@<TRIPOS>MOLECULE
*****
 27 29 0 0 0
SMALL
GASTEIGER

@<TRIPOS>ATOM
      1 C          -7.1161  -19.3503   20.3162 C.ar    1  UNL1        0.0192
      2 C          -7.4486  -20.1652   19.1015 C.ar    1  UNL1        0.0015
      3 C          -8.8791  -20.3452   18.6878 C.ar    1  UNL1        0.0000
      4 C          -9.9771  -19.7105   19.4888 C.ar    1  UNL1       -0.0000
      5 C          -9.6445  -18.8956   20.7034 C.ar    1  UNL1        0.0000
      6 C          -8.2140  -18.7156   21.1171 C.ar    1  UNL1        0.0015
      7 C          -3.3259  -18.6030   20.6932 C.ar    1  UNL1        0.1947
      8 N          -4.5886  -18.5951   19.8836 N.ar    1  UNL1       -0.2228
      9 C          -5.6855  -19.1702   20.7299 C.ar    1  UNL1        0.1000
     10 C          -5.1006  -19.5336   22.0625 C.ar    1  UNL1        0.0930
     11 N          -3.6424  -19.1831   22.0399 N.ar    1  UNL1       -0.3325
     12 H          -3.0049  -19.3112   22.7791 H       1  UNL1        0.1676
     13 N          -1.1417  -17.2713   21.1467 N.am    1  UNL1       -0.3228
     14 C          -1.9826  -18.1163   20.2364 C.2     1  UNL1        0.2769
     15 O          -1.4803  -18.4747   18.8692 O.2     1  UNL1       -0.2671
     16 H          -0.2600  -16.9519   20.8469 H       1  UNL1        0.1453
     17 H          -1.4714  -17.0361   22.0441 H       1  UNL1        0.1453
     18 C         -10.7425  -18.2609   21.5044 C.ar    1  UNL1        0.0039
     19 C         -11.5432  -17.1354   20.9194 C.ar    1  UNL1       -0.0001
     20 C         -12.6412  -16.5007   21.7203 C.ar    1  UNL1       -0.0000
     21 C         -12.9384  -16.9913   23.1063 C.ar    1  UNL1       -0.0001
     22 C         -12.1377  -18.1167   23.6913 C.ar    1  UNL1        0.0039
     23 C         -11.0398  -18.7515   22.8903 C.ar    1  UNL1        0.0714
     24 C         -10.2390  -19.8770   23.4754 C.3     1  UNL1        0.4186
     25 F          -9.4383  -21.0024   24.0604 F       1  UNL1       -0.1659
     26 F         -11.0751  -20.8656   22.7181 F       1  UNL1       -0.1659
     27 F          -9.4029  -18.8884   24.2327 F       1  UNL1       -0.1659
@<TRIPOS>BOND
     1    13    14   am
     2    14    15    2
     3    14     7    1
     4     7     8   ar
     5     8     9   ar
     6     9     1    1
     7     1     2   ar
     8     2     3   ar
     9     3     4   ar
    10     4     5   ar
    11     5    18    1
    12    18    19   ar
    13    19    20   ar
    14    20    21   ar
    15    21    22   ar
    16    22    23   ar
    17    23    24    1
    18    24    25    1
    19    24    26    1
    20    24    27    1
    21     5     6   ar
    22     9    10   ar
    23    10    11   ar
    24    11     7   ar
    25     6     1   ar
    26    23    18   ar
    27    13    16    1
    28    13    17    1
    29    11    12    1
@<TRIPOS>MOLECULE
*****
 27 29 0 0 0
SMALL
GASTEIGER

@<TRIPOS>ATOM
      1 C          -6.4526  -16.6758   23.6220 C.ar    1  UNL1        0.0192
      2 C          -6.4777  -15.8006   24.8398 C.ar    1  UNL1        0.0015
      3 C          -7.7866  -15.3110   25.3846 C.ar    1  UNL1        0.0000
      4 C          -9.0705  -15.6967   24.7116 C.ar    1  UNL1       -0.0000
      5 C          -9.0454  -16.5719   23.4937 C.ar    1  UNL1        0.0000
      6 C          -7.7364  -17.0615   22.9489 C.ar    1  UNL1        0.0015
      7 C          -3.4920  -18.4298   21.8262 C.ar    1  UNL1        0.1947
      8 N          -4.9611  -18.2797   22.0895 N.ar    1  UNL1       -0.2228
      9 C          -5.1436  -17.1655   23.0771 C.ar    1  UNL1        0.1000
     10 C          -3.7873  -16.6269   23.4241 C.ar    1  UNL1        0.0930
     11 N          -2.7666  -17.4082   22.6510 N.ar    1  UNL1       -0.3325
     12 H          -1.7917  -17.2741   22.6799 H       1  UNL1        0.1676
     13 N          -3.2266  -19.4374   19.4462 N.am    1  UNL1       -0.3228
     14 C          -2.8595  -19.4263   20.9006 C.2     1  UNL1        0.2769
     15 O          -1.8598  -20.4117   21.4293 O.2     1  UNL1       -0.2671
     16 H          -2.8114  -20.0915   18.8387 H       1  UNL1        0.1453
     17 H          -3.8827  -18.7906   19.0992 H       1  UNL1        0.1453
     18 C         -10.3292  -16.9576   22.8207 C.ar    1  UNL1        0.0039
     19 C         -10.9943  -16.0049   21.8719 C.ar    1  UNL1       -0.0001
     20 C         -12.2781  -16.3906   21.1989 C.ar    1  UNL1       -0.0000
     21 C         -12.8969  -17.7289   21.4745 C.ar    1  UNL1       -0.0001
     22 C         -12.2319  -18.6815   22.4233 C.ar    1  UNL1        0.0039
     23 C         -10.9480  -18.2958   23.0963 C.ar    1  UNL1        0.0714
     24 C         -10.2830  -19.2486   24.0451 C.3     1  UNL1        0.4186
     25 F          -9.6180  -20.2012   24.9939 F       1  UNL1       -0.1659
     26 F          -9.5857  -19.9092   22.8931 F       1  UNL1       -0.1659
     27 F         -10.9802  -18.5879   25.1972 F       1  UNL1       -0.1659
@<TRIPOS>BOND
     1    13    14   am
     2    14    15    2
     3    14     7    1
     4     7     8   ar
     5     8     9   ar
     6     9     1    1
     7     1     2   ar
     8     2     3   ar
     9     3     4   ar
    10     4     5   ar
    11     5    18    1
    12    18    19   ar
    13    19    20   ar
    14    20    21   ar
    15    21    22   ar
    16    22    23   ar
    17    23    24    1
    18    24    25    1
    19    24    26    1
    20    24    27    1
    21     5     6   ar
    22     9    10   ar
    23    10    11   ar
    24    11     7   ar
    25     6     1   ar
    26    23    18   ar
    27    13    16    1
    28    13    17    1
    29    11    12    1
@<TRIPOS>MOLECULE
*****
 27 29 0 0 0
SMALL
GASTEIGER

@<TRIPOS>ATOM
      1 C         -14.5668   -5.4782   19.4545 C.ar    1  UNL1        0.0192
      2 C         -14.7907   -4.5695   20.6267 C.ar    1  UNL1        0.0015
      3 C         -13.8623   -3.4169   20.8702 C.ar    1  UNL1        0.0000
      4 C         -12.7100   -3.1729   19.9415 C.ar    1  UNL1       -0.0000
      5 C         -12.4861   -4.0815   18.7692 C.ar    1  UNL1        0.0000
      6 C         -13.4145   -5.2342   18.5257 C.ar    1  UNL1        0.0015
      7 C         -16.3350   -8.8561   18.7269 C.ar    1  UNL1        0.1947
      8 N         -15.0880   -8.0387   18.8910 N.ar    1  UNL1       -0.2228
      9 C         -15.4953   -6.6309   19.2109 C.ar    1  UNL1        0.1000
     10 C         -16.9940   -6.5782   19.2445 C.ar    1  UNL1        0.0930
     11 N         -17.5129   -7.9534   18.9454 N.ar    1  UNL1       -0.3325
     12 H         -18.4604   -8.2173   18.9004 H       1  UNL1        0.1676
     13 N         -17.7095  -11.0392   18.4188 N.am    1  UNL1       -0.3228
     14 C         -16.3937  -10.3191   18.4014 C.2     1  UNL1        0.2769
     15 O         -15.1366  -11.0622   18.0585 O.2     1  UNL1       -0.2671
     16 H         -17.7480  -11.9994   18.2052 H       1  UNL1        0.1453
     17 H         -18.5345  -10.5515   18.6439 H       1  UNL1        0.1453
     18 C         -11.3337   -3.8375   17.8405 C.ar    1  UNL1        0.0039
     19 C         -11.3068   -2.6046   16.9865 C.ar    1  UNL1       -0.0001
     20 C         -10.1544   -2.3606   16.0578 C.ar    1  UNL1       -0.0000
     21 C          -9.0290   -3.3494   15.9830 C.ar    1  UNL1       -0.0001
     22 C          -9.0560   -4.5823   16.8369 C.ar    1  UNL1        0.0039
     23 C         -10.2083   -4.8263   17.7657 C.ar    1  UNL1        0.0714
     24 C         -10.2352   -6.0593   18.6197 C.3     1  UNL1        0.4186
     25 F         -10.2621   -7.2921   19.4736 F       1  UNL1       -0.1659
     26 F         -10.8779   -6.8215   17.4990 F       1  UNL1       -0.1659
     27 F          -9.5926   -5.2970   19.7403 F       1  UNL1       -0.1659
@<TRIPOS>BOND
     1    13    14   am
     2    14    15    2
     3    14     7    1
     4     7     8   ar
     5     8     9   ar
     6     9     1    1
     7     1     2   ar
     8     2     3   ar
     9     3     4   ar
    10     4     5   ar
    11     5    18    1
    12    18    19   ar
    13    19    20   ar
    14    20    21   ar
    15    21    22   ar
    16    22    23   ar
    17    23    24    1
    18    24    25    1
    19    24    26    1
    20    24    27    1
    21     5     6   ar
    22     9    10   ar
    23    10    11   ar
    24    11     7   ar
    25     6     1   ar
    26    23    18   ar
    27    13    16    1
    28    13    17    1
    29    11    12    1
@<TRIPOS>MOLECULE
*****
 27 29 0 0 0
SMALL
GASTEIGER

@<TRIPOS>ATOM
      1 C          -7.3698  -17.7357   22.7061 C.ar    1  UNL1        0.0192
      2 C          -6.8523  -16.5302   23.4333 C.ar    1  UNL1        0.0015
      3 C          -7.7853  -15.6939   24.2579 C.ar    1  UNL1        0.0000
      4 C          -9.2359  -16.0632   24.3554 C.ar    1  UNL1       -0.0000
      5 C          -9.7534  -17.2687   23.6282 C.ar    1  UNL1        0.0000
      6 C          -8.8204  -18.1050   22.8036 C.ar    1  UNL1        0.0015
      7 C          -4.4276  -19.4207   20.8167 C.ar    1  UNL1        0.1947
      8 N          -4.9606  -18.3546   21.7273 N.ar    1  UNL1       -0.2228
      9 C          -6.4368  -18.5720   21.8814 C.ar    1  UNL1        0.1000
     10 C          -6.8161  -19.7725   21.0660 C.ar    1  UNL1        0.0930
     11 N          -5.5743  -20.2971   20.4080 N.ar    1  UNL1       -0.3325
     12 H          -5.5213  -21.0792   19.8124 H       1  UNL1        0.1676
     13 N          -2.0355  -20.3319   21.2617 N.am    1  UNL1       -0.3228
     14 C          -2.9987  -19.5822   20.3898 C.2     1  UNL1        0.2769
     15 O          -2.5331  -18.9939   19.0909 O.2     1  UNL1       -0.2671
     16 H          -1.0977  -20.4378   20.9815 H       1  UNL1        0.1453
     17 H          -2.3412  -20.7179   22.1142 H       1  UNL1        0.1453
     18 C         -11.2040  -17.6380   23.7257 C.ar    1  UNL1        0.0039
     19 C         -11.6960  -18.4439   24.8912 C.ar    1  UNL1       -0.0001
     20 C         -13.1466  -18.8132   24.9886 C.ar    1  UNL1       -0.0000
     21 C         -14.1051  -18.3765   23.9207 C.ar    1  UNL1       -0.0001
     22 C         -13.6130  -17.5706   22.7552 C.ar    1  UNL1        0.0039
     23 C         -12.1625  -17.2013   22.6577 C.ar    1  UNL1        0.0714
     24 C         -11.6704  -16.3954   21.4922 C.3     1  UNL1        0.4186
     25 F         -11.1784  -15.5895   20.3267 F       1  UNL1       -0.1659
     26 F         -11.8771  -15.1340   22.2772 F       1  UNL1       -0.1659
     27 F         -11.4637  -17.6567   20.7073 F       1  UNL1       -0.1659
@<TRIPOS>BOND
     1    13    14   am
     2    14    15    2
     3    14     7    1
     4     7     8   ar
     5     8     9   ar
     6     9     1    1
     7     1     2   ar
     8     2     3   ar
     9     3     4   ar
    10     4     5   ar
    11     5    18    1
    12    18    19   ar
    13    19    20   ar
    14    20    21   ar
    15    21    22   ar
    16    22    23   ar
    17    23    24    1
    18    24    25    1
    19    24    26    1
    20    24    27    1
    21     5     6   ar
    22     9    10   ar
    23    10    11   ar
    24    11     7   ar
    25     6     1   ar
    26    23    18   ar
    27    13    16    1
    28    13    17    1
    29    11    12    1
@<TRIPOS>MOLECULE
*****
 27 29 0 0 0
SMALL
GASTEIGER

@<TRIPOS>ATOM
      1 C          -7.6627  -16.3692   23.2550 C.ar    1  UNL1        0.0192
      2 C          -7.3793  -15.6821   24.5578 C.ar    1  UNL1        0.0015
      3 C          -6.0211  -15.7935   25.1845 C.ar    1  UNL1        0.0000
      4 C          -4.9463  -16.5921   24.5084 C.ar    1  UNL1       -0.0000
      5 C          -5.2298  -17.2792   23.2055 C.ar    1  UNL1        0.0000
      6 C          -6.5880  -17.1678   22.5788 C.ar    1  UNL1        0.0015
      7 C         -10.7949  -15.8821   21.0149 C.ar    1  UNL1        0.1947
      8 N          -9.3079  -15.8619   21.2101 N.ar    1  UNL1       -0.2228
      9 C          -9.0210  -16.2578   22.6282 C.ar    1  UNL1        0.1000
     10 C         -10.3308  -16.5227   23.3095 C.ar    1  UNL1        0.0930
     11 N         -11.4272  -16.2906   22.3124 N.ar    1  UNL1       -0.3325
     12 H         -12.3923  -16.3890   22.4802 H       1  UNL1        0.1676
     13 N         -12.9802  -15.8769   19.6097 N.am    1  UNL1       -0.3228
     14 C         -11.5221  -15.5519   19.7452 C.2     1  UNL1        0.2769
     15 O         -10.7912  -14.8967   18.6110 O.2     1  UNL1       -0.2671
     16 H         -13.4575  -15.6601   18.7764 H       1  UNL1        0.1453
     17 H         -13.4600  -16.3069   20.3542 H       1  UNL1        0.1453
     18 C          -4.1550  -18.0778   22.5294 C.ar    1  UNL1        0.0039
     19 C          -2.7117  -17.7488   22.7712 C.ar    1  UNL1       -0.0001
     20 C          -1.6369  -18.5474   22.0951 C.ar    1  UNL1       -0.0000
     21 C          -2.0055  -19.6749   21.1770 C.ar    1  UNL1       -0.0001
     22 C          -3.4488  -20.0038   20.9352 C.ar    1  UNL1        0.0039
     23 C          -4.5236  -19.2053   21.6113 C.ar    1  UNL1        0.0714
     24 C          -5.9669  -19.5343   21.3694 C.3     1  UNL1        0.4186
     25 F          -7.4103  -19.8632   21.1274 F       1  UNL1       -0.1659
     26 F          -5.9947  -20.3419   22.6331 F       1  UNL1       -0.1659
     27 F          -5.9392  -18.7267   20.1057 F       1  UNL1       -0.1659
@<TRIPOS>BOND
     1    13    14   am
     2    14    15    2
     3    14     7    1
     4     7     8   ar
     5     8     9   ar
     6     9     1    1
     7     1     2   ar
     8     2     3   ar
     9     3     4   ar
    10     4     5   ar
    11     5    18    1
    12    18    19   ar
    13    19    20   ar
    14    20    21   ar
    15    21    22   ar
    16    22    23   ar
    17    23    24    1
    18    24    25    1
    19    24    26    1
    20    24    27    1
    21     5     6   ar
    22     9    10   ar
    23    10    11   ar
    24    11     7   ar
    25     6     1   ar
    26    23    18   ar
    27    13    16    1
    28    13    17    1
    29    11    12    1
@<TRIPOS>MOLECULE
*****
 27 29 0 0 0
SMALL
GASTEIGER

@<TRIPOS>ATOM
      1 C          -7.2548  -16.5410   23.7759 C.ar    1  UNL1        0.0192
      2 C          -6.9419  -15.8919   25.0915 C.ar    1  UNL1        0.0015
      3 C          -5.5153  -15.6602   25.4929 C.ar    1  UNL1        0.0000
      4 C          -4.4017  -16.0774   24.5786 C.ar    1  UNL1       -0.0000
      5 C          -4.7146  -16.7264   23.2631 C.ar    1  UNL1        0.0000
      6 C          -6.1412  -16.9582   22.8617 C.ar    1  UNL1        0.0015
      7 C         -11.0009  -17.4869   23.4044 C.ar    1  UNL1        0.1947
      8 N          -9.7208  -17.4873   24.1864 N.ar    1  UNL1       -0.2228
      9 C          -8.6814  -16.7728   23.3745 C.ar    1  UNL1        0.1000
     10 C          -9.3191  -16.3308   22.0908 C.ar    1  UNL1        0.0930
     11 N         -10.7526  -16.7721   22.1092 N.ar    1  UNL1       -0.3325
     12 H         -11.4143  -16.6195   21.3964 H       1  UNL1        0.1676
     13 N         -12.3600  -18.9213   25.0913 N.am    1  UNL1       -0.3228
     14 C         -12.3009  -18.0946   23.8410 C.2     1  UNL1        0.2769
     15 O         -13.5418  -17.8757   23.0272 O.2     1  UNL1       -0.2671
     16 H         -13.2133  -19.3201   25.3778 H       1  UNL1        0.1453
     17 H         -11.5456  -19.0650   25.6253 H       1  UNL1        0.1453
     18 C          -3.6010  -17.1436   22.3488 C.ar    1  UNL1        0.0039
     19 C          -2.4583  -16.2088   22.0836 C.ar    1  UNL1       -0.0001
     20 C          -1.3447  -16.6261   21.1694 C.ar    1  UNL1       -0.0000
     21 C          -1.3738  -17.9780   20.5204 C.ar    1  UNL1       -0.0001
     22 C          -2.5165  -18.9128   20.7856 C.ar    1  UNL1        0.0039
     23 C          -3.6301  -18.4956   21.6998 C.ar    1  UNL1        0.0714
     24 C          -4.7729  -19.4304   21.9650 C.3     1  UNL1        0.4186
     25 F          -5.9155  -20.3652   22.2303 F       1  UNL1       -0.1659
     26 F          -5.3796  -19.0639   20.6431 F       1  UNL1       -0.1659
     27 F          -4.1661  -19.7970   23.2869 F       1  UNL1       -0.1659
@<TRIPOS>BOND
     1    13    14   am
     2    14    15    2
     3    14     7    1
     4     7     8   ar
     5     8     9   ar
     6     9     1    1
     7     1     2   ar
     8     2     3   ar
     9     3     4   ar
    10     4     5   ar
    11     5    18    1
    12    18    19   ar
    13    19    20   ar
    14    20    21   ar
    15    21    22   ar
    16    22    23   ar
    17    23    24    1
    18    24    25    1
    19    24    26    1
    20    24    27    1
    21     5     6   ar
    22     9    10   ar
    23    10    11   ar
    24    11     7   ar
    25     6     1   ar
    26    23    18   ar
    27    13    16    1
    28    13    17    1
    29    11    12    1
@<TRIPOS>MOLECULE
*****
 27 29 0 0 0
SMALL
GASTEIGER

@<TRIPOS>ATOM
      1 C          -7.4334  -16.6327   23.1057 C.ar    1  UNL1        0.0192
      2 C          -6.7434  -15.8743   24.2005 C.ar    1  UNL1        0.0015
      3 C          -5.2764  -16.0737   24.4416 C.ar    1  UNL1        0.0000
      4 C          -4.4995  -17.0316   23.5878 C.ar    1  UNL1       -0.0000
      5 C          -5.1895  -17.7900   22.4930 C.ar    1  UNL1        0.0000
      6 C          -6.6565  -17.5906   22.2520 C.ar    1  UNL1        0.0015
      7 C         -11.0866  -16.4277   21.8104 C.ar    1  UNL1        0.1947
      8 N          -9.6474  -16.8037   21.6176 N.ar    1  UNL1       -0.2228
      9 C          -8.9004  -16.4332   22.8646 C.ar    1  UNL1        0.1000
     10 C          -9.8781  -15.8284   23.8280 C.ar    1  UNL1        0.0930
     11 N         -11.2292  -15.8250   23.1766 N.ar    1  UNL1       -0.3325
     12 H         -12.0632  -15.4865   23.5756 H       1  UNL1        0.1676
     13 N         -12.1818  -15.8474   19.5270 N.am    1  UNL1       -0.3228
     14 C         -12.1896  -16.6207   20.8123 C.2     1  UNL1        0.2769
     15 O         -13.3004  -17.5869   21.0995 O.2     1  UNL1       -0.2671
     16 H         -12.9057  -15.9741   18.8719 H       1  UNL1        0.1453
     17 H         -11.4527  -15.2133   19.3384 H       1  UNL1        0.1453
     18 C          -4.4126  -18.7479   21.6393 C.ar    1  UNL1        0.0039
     19 C          -5.0643  -20.0010   21.1344 C.ar    1  UNL1       -0.0001
     20 C          -4.2874  -20.9588   20.2806 C.ar    1  UNL1       -0.0000
     21 C          -2.8587  -20.6637   19.9319 C.ar    1  UNL1       -0.0001
     22 C          -2.2069  -19.4107   20.4369 C.ar    1  UNL1        0.0039
     23 C          -2.9839  -18.4528   21.2906 C.ar    1  UNL1        0.0714
     24 C          -2.3320  -17.1997   21.7956 C.3     1  UNL1        0.4186
     25 F          -1.6802  -15.9467   22.3006 F       1  UNL1       -0.1659
     26 F          -2.7649  -16.4748   20.5558 F       1  UNL1       -0.1659
     27 F          -1.8991  -17.9245   23.0354 F       1  UNL1       -0.1659
@<TRIPOS>BOND
     1    13    14   am
     2    14    15    2
     3    14     7    1
     4     7     8   ar
     5     8     9   ar
     6     9     1    1
     7     1     2   ar
     8     2     3   ar
     9     3     4   ar
    10     4     5   ar
    11     5    18    1
    12    18    19   ar
    13    19    20   ar
    14    20    21   ar
    15    21    22   ar
    16    22    23   ar
    17    23    24    1
    18    24    25    1
    19    24    26    1
    20    24    27    1
    21     5     6   ar
    22     9    10   ar
    23    10    11   ar
    24    11     7   ar
    25     6     1   ar
    26    23    18   ar
    27    13    16    1
    28    13    17    1
    29    11    12    1
