@<TRIPOS>MOLECULE
*****
 39 44 0 0 0
SMALL
GASTEIGER

@<TRIPOS>ATOM
      1 C           6.0969   -3.5034   23.4755 C.3     1  UNL1        0.0616
      2 C           4.7181   -2.9213   23.5765 C.3     1  UNL1        0.0375
      3 C           4.1072   -2.2305   22.3935 C.3     1  UNL1        0.0949
      4 N           4.8750   -2.1219   21.1094 N.am    1  UNL1       -0.2773
      5 C           4.2641   -1.4312   19.9264 C.2     1  UNL1        0.2553
      6 O           5.0319   -1.3226   18.6424 O.2     1  UNL1       -0.2720
      7 C           6.2538   -2.7040   21.0085 C.3     1  UNL1        0.0949
      8 C           6.8647   -3.3948   22.1916 C.3     1  UNL1        0.0375
      9 C           8.7365   -6.1913   29.9790 C.3     1  UNL1        0.0742
     10 C           7.9679   -5.1734   29.1897 C.ar    1  UNL1        0.1477
     11 N           7.2659   -3.9712   29.7481 N.ar    1  UNL1       -0.1333
     12 N           6.6304   -3.2337   28.6068 N.ar    1  UNL1       -0.1319
     13 C           6.9397   -3.9802   27.3431 C.ar    1  UNL1        0.1636
     14 N           7.7663   -5.1790   27.7033 N.ar    1  UNL1       -0.2743
     15 C           8.3260   -6.2355   26.7974 C.ar    1  UNL1        0.0935
     16 S           9.1442   -7.3940   27.2858 S.2     1  UNL1       -0.0692
     17 C           9.5211   -8.2287   26.0978 C.ar    1  UNL1        0.0366
     18 C           8.9359   -7.5861   24.8753 C.ar    1  UNL1        0.0061
     19 C           8.1973   -6.3542   25.3077 C.ar    1  UNL1        0.0168
     20 C           7.4772   -5.4458   24.3559 C.3     1  UNL1        0.1014
     21 N           6.7078   -4.1941   24.6586 N.3     1  UNL1       -0.2637
     22 C           6.4687   -3.5419   25.9881 C.3     1  UNL1        0.1396
     23 C           2.8854   -0.8491   20.0273 C.3     1  UNL1        0.2042
     24 F           2.5433   -2.2950   19.8219 F       1  UNL1       -0.2306
     25 C           3.7064    0.3947   20.1977 C.3     1  UNL1        0.0590
     26 C           3.0298    1.7184   20.3977 C.3     1  UNL1        0.0756
     27 N           1.5322    1.7984   20.4273 N.3     1  UNL1       -0.2688
     28 C           0.7112    0.5546   20.2569 C.3     1  UNL1        0.0756
     29 C           1.3878   -0.7692   20.0569 C.3     1  UNL1        0.0590
     30 C           0.8556    3.1221   20.6273 C.3     1  UNL1        0.0993
     31 C          -0.5052    3.3644   20.0447 C.ar    1  UNL1       -0.0018
     32 C          -0.6403    4.0106   18.6978 C.ar    1  UNL1        0.0179
     33 C          -2.0011    4.2529   18.1153 C.ar    1  UNL1        0.1000
     34 N          -3.2269    3.8490   18.8796 N.ar    1  UNL1       -0.2296
     35 C          -3.0918    3.2028   20.2265 C.ar    1  UNL1        0.1251
     36 N          -4.3177    2.7989   20.9908 N.pl3   1  UNL1       -0.3426
     37 C          -1.7310    2.9605   20.8091 C.ar    1  UNL1        0.0310
     38 H          -5.2108    2.9579   20.6085 H       1  UNL1        0.1437
     39 H          -4.2291    2.3747   21.8749 H       1  UNL1        0.1437
@<TRIPOS>BOND
     1     9    10    1
     2    10    11   ar
     3    11    12   ar
     4    12    13   ar
     5    13    14   ar
     6    14    15    1
     7    15    16   ar
     8    16    17   ar
     9    17    18   ar
    10    18    19   ar
    11    19    20    1
    12    20    21    1
    13    21     1    1
    14     1     2    1
    15     2     3    1
    16     3     4    1
    17     4     5   am
    18     5     6    2
    19     5    23    1
    20    23    24    1
    21    23    25    1
    22    25    26    1
    23    26    27    1
    24    27    30    1
    25    30    31    1
    26    31    32   ar
    27    32    33   ar
    28    33    34   ar
    29    34    35   ar
    30    35    36    1
    31    35    37   ar
    32    27    28    1
    33    28    29    1
    34     4     7    1
    35     7     8    1
    36    21    22    1
    37    14    10   ar
    38    19    15   ar
    39     8     1    1
    40    22    13    1
    41    29    23    1
    42    37    31   ar
    43    36    38    1
    44    36    39    1
@<TRIPOS>MOLECULE
*****
 39 44 0 0 0
SMALL
GASTEIGER

@<TRIPOS>ATOM
      1 C           1.2177    1.2592   19.8239 C.3     1  UNL1        0.0616
      2 C           0.4400    1.8505   20.9620 C.3     1  UNL1        0.0375
      3 C          -0.6348    2.8610   20.6910 C.3     1  UNL1        0.0949
      4 N          -0.9319    3.2803   19.2817 N.am    1  UNL1       -0.2773
      5 C          -2.0068    4.2909   19.0107 C.2     1  UNL1        0.2553
      6 O          -2.3038    4.7101   17.6014 O.2     1  UNL1       -0.2720
      7 C          -0.1541    2.6890   18.1436 C.3     1  UNL1        0.0949
      8 C           0.9207    1.6785   18.4146 C.3     1  UNL1        0.0375
      9 C           6.7440   -3.8249   20.1398 C.3     1  UNL1        0.0742
     10 C           5.8348   -2.9141   19.3692 C.ar    1  UNL1        0.1477
     11 N           5.8153   -2.7421   17.8793 N.ar    1  UNL1       -0.1333
     12 N           4.7539   -1.7371   17.5424 N.ar    1  UNL1       -0.1319
     13 C           4.1175   -1.2879   18.8243 C.ar    1  UNL1        0.1636
     14 N           4.7855   -2.0154   19.9533 N.ar    1  UNL1       -0.2743
     15 C           4.5091   -1.9148   21.4242 C.ar    1  UNL1        0.0935
     16 S           5.2538   -2.7029   22.4607 S.2     1  UNL1       -0.0692
     17 C           4.7014   -2.3371   23.8065 C.ar    1  UNL1        0.0366
     18 C           3.6152   -1.3231   23.6017 C.ar    1  UNL1        0.0061
     19 C           3.4963   -1.0621   22.1294 C.ar    1  UNL1        0.0168
     20 C           2.5100   -0.0993   21.5378 C.3     1  UNL1        0.1014
     21 N           2.2926    0.2487   20.0950 N.3     1  UNL1       -0.2637
     22 C           3.0081   -0.2804   18.8874 C.3     1  UNL1        0.1396
     23 C          -2.7845    4.8821   20.1488 C.3     1  UNL1        0.2042
     24 F          -1.7178    5.9250   19.9927 F       1  UNL1       -0.2306
     25 C          -3.5811    3.6338   19.9096 C.3     1  UNL1        0.0590
     26 C          -4.7851    3.3390   20.7544 C.3     1  UNL1        0.0756
     27 N          -5.1924    4.2925   21.8384 N.3     1  UNL1       -0.2688
     28 C          -4.3958    5.5408   22.0775 C.3     1  UNL1        0.0756
     29 C          -3.1918    5.8356   21.2327 C.3     1  UNL1        0.0590
     30 C          -6.3963    3.9977   22.6832 C.3     1  UNL1        0.0993
     31 C          -6.5955    4.7195   23.9829 C.ar    1  UNL1       -0.0018
     32 C          -7.7604    5.6490   24.1538 C.ar    1  UNL1        0.0179
     33 C          -7.9595    6.3707   25.4535 C.ar    1  UNL1        0.1000
     34 N          -6.9939    6.1632   26.5823 N.ar    1  UNL1       -0.2296
     35 C          -5.8289    5.2338   26.4114 C.ar    1  UNL1        0.1251
     36 N          -4.8632    5.0262   27.5402 N.pl3   1  UNL1       -0.3426
     37 C          -5.6298    4.5120   25.1117 C.ar    1  UNL1        0.0310
     38 H          -4.9939    5.5000   28.3933 H       1  UNL1        0.1437
     39 H          -4.0986    4.4162   27.4281 H       1  UNL1        0.1437
@<TRIPOS>BOND
     1     9    10    1
     2    10    11   ar
     3    11    12   ar
     4    12    13   ar
     5    13    14   ar
     6    14    15    1
     7    15    16   ar
     8    16    17   ar
     9    17    18   ar
    10    18    19   ar
    11    19    20    1
    12    20    21    1
    13    21     1    1
    14     1     2    1
    15     2     3    1
    16     3     4    1
    17     4     5   am
    18     5     6    2
    19     5    23    1
    20    23    24    1
    21    23    25    1
    22    25    26    1
    23    26    27    1
    24    27    30    1
    25    30    31    1
    26    31    32   ar
    27    32    33   ar
    28    33    34   ar
    29    34    35   ar
    30    35    36    1
    31    35    37   ar
    32    27    28    1
    33    28    29    1
    34     4     7    1
    35     7     8    1
    36    21    22    1
    37    14    10   ar
    38    19    15   ar
    39     8     1    1
    40    22    13    1
    41    29    23    1
    42    37    31   ar
    43    36    38    1
    44    36    39    1
@<TRIPOS>MOLECULE
*****
 39 44 0 0 0
SMALL
GASTEIGER

@<TRIPOS>ATOM
      1 C           1.5179    1.0747   25.9537 C.3     1  UNL1        0.0616
      2 C           2.7944    1.1996   26.7313 C.3     1  UNL1        0.0375
      3 C           2.7511    1.3946   28.2179 C.3     1  UNL1        0.0949
      4 N           1.4310    1.4646   28.9270 N.am    1  UNL1       -0.2773
      5 C           1.3876    1.6596   30.4136 C.2     1  UNL1        0.2553
      6 O           0.0676    1.7296   31.1225 O.2     1  UNL1       -0.2720
      7 C           0.1545    1.3397   28.1493 C.3     1  UNL1        0.0949
      8 C           0.1979    1.1447   26.6627 C.3     1  UNL1        0.0375
      9 C           0.9993    0.8479   18.4592 C.3     1  UNL1        0.0742
     10 C           0.5900    1.4024   19.7915 C.ar    1  UNL1        0.1477
     11 N          -0.4329    2.4746   20.0237 N.ar    1  UNL1       -0.1333
     12 N          -0.5234    2.7169   21.5013 N.ar    1  UNL1       -0.1319
     13 C           0.4437    1.7943   22.1823 C.ar    1  UNL1        0.1636
     14 N           1.1318    0.9819   21.1256 N.ar    1  UNL1       -0.2743
     15 C           2.1810   -0.0766   21.2950 C.ar    1  UNL1        0.0935
     16 S           2.7952   -0.8225   20.1476 S.2     1  UNL1       -0.0692
     17 C           3.7950   -1.7909   20.7065 C.ar    1  UNL1        0.0366
     18 C           3.7988   -1.6437   22.1993 C.ar    1  UNL1        0.0061
     19 C           2.8012   -0.5842   22.5630 C.ar    1  UNL1        0.0168
     20 C           2.5255   -0.1586   23.9746 C.3     1  UNL1        0.1014
     21 N           1.5613    0.8797   24.4670 N.3     1  UNL1       -0.2637
     22 C           0.6348    1.7488   23.6693 C.3     1  UNL1        0.1396
     23 C           2.6642    1.7846   31.1912 C.3     1  UNL1        0.2042
     24 F           2.3710    3.2335   30.9372 F       1  UNL1       -0.2306
     25 C           2.5139    0.2922   31.1751 C.3     1  UNL1        0.0590
     26 C           3.5385   -0.5721   31.8484 C.3     1  UNL1        0.0756
     27 N           4.7133    0.0561   32.5379 N.3     1  UNL1       -0.2688
     28 C           4.8635    1.5485   32.5539 C.3     1  UNL1        0.0756
     29 C           3.8389    2.4127   31.8806 C.3     1  UNL1        0.0590
     30 C           5.7379   -0.8081   33.2112 C.3     1  UNL1        0.0993
     31 C           6.4765   -1.8486   32.4226 C.ar    1  UNL1       -0.0018
     32 C           7.5275   -1.4355   31.4353 C.ar    1  UNL1        0.0179
     33 C           8.2661   -2.4759   30.6468 C.ar    1  UNL1        0.1000
     34 N           7.9538   -3.9295   30.8455 N.ar    1  UNL1       -0.2296
     35 C           6.9028   -4.3426   31.8328 C.ar    1  UNL1        0.1251
     36 N           6.5905   -5.7962   32.0316 N.pl3   1  UNL1       -0.3426
     37 C           6.1642   -3.3022   32.6214 C.ar    1  UNL1        0.0310
     38 H           7.0753   -6.4791   31.5140 H       1  UNL1        0.1437
     39 H           5.9007   -6.0674   32.6796 H       1  UNL1        0.1437
@<TRIPOS>BOND
     1     9    10    1
     2    10    11   ar
     3    11    12   ar
     4    12    13   ar
     5    13    14   ar
     6    14    15    1
     7    15    16   ar
     8    16    17   ar
     9    17    18   ar
    10    18    19   ar
    11    19    20    1
    12    20    21    1
    13    21     1    1
    14     1     2    1
    15     2     3    1
    16     3     4    1
    17     4     5   am
    18     5     6    2
    19     5    23    1
    20    23    24    1
    21    23    25    1
    22    25    26    1
    23    26    27    1
    24    27    30    1
    25    30    31    1
    26    31    32   ar
    27    32    33   ar
    28    33    34   ar
    29    34    35   ar
    30    35    36    1
    31    35    37   ar
    32    27    28    1
    33    28    29    1
    34     4     7    1
    35     7     8    1
    36    21    22    1
    37    14    10   ar
    38    19    15   ar
    39     8     1    1
    40    22    13    1
    41    29    23    1
    42    37    31   ar
    43    36    38    1
    44    36    39    1
@<TRIPOS>MOLECULE
*****
 39 44 0 0 0
SMALL
GASTEIGER

@<TRIPOS>ATOM
      1 C           6.9514   -3.8360   22.9945 C.3     1  UNL1        0.0616
      2 C           5.6340   -3.2763   22.5459 C.3     1  UNL1        0.0375
      3 C           5.4923   -2.7058   21.1660 C.3     1  UNL1        0.0949
      4 N           6.6681   -2.6949   20.2345 N.am    1  UNL1       -0.2773
      5 C           6.5264   -2.1243   18.8545 C.2     1  UNL1        0.2553
      6 O           7.7022   -2.1135   17.9231 O.2     1  UNL1       -0.2720
      7 C           7.9854   -3.2546   20.6831 C.3     1  UNL1        0.0949
      8 C           8.1271   -3.8252   22.0631 C.3     1  UNL1        0.0375
      9 C           7.2416   -5.7909   30.2458 C.3     1  UNL1        0.0742
     10 C           6.9018   -4.8168   29.1570 C.ar    1  UNL1        0.1477
     11 N           6.2956   -3.4580   29.3472 N.ar    1  UNL1       -0.1333
     12 N           6.1276   -2.8318   27.9945 N.ar    1  UNL1       -0.1319
     13 C           6.6300   -3.8036   26.9683 C.ar    1  UNL1        0.1636
     14 N           7.1085   -5.0304   27.6867 N.ar    1  UNL1       -0.2743
     15 C           7.6983   -6.2826   27.1085 C.ar    1  UNL1        0.0935
     16 S           8.1414   -7.4485   27.9417 S.2     1  UNL1       -0.0692
     17 C           8.6722   -8.5037   27.0171 C.ar    1  UNL1        0.0366
     18 C           8.5572   -7.9899   25.6126 C.ar    1  UNL1        0.0061
     19 C           7.9552   -6.6172   25.6690 C.ar    1  UNL1        0.0168
     20 C           7.6859   -5.7823   24.4524 C.3     1  UNL1        0.1014
     21 N           7.0930   -4.4066   24.3745 N.3     1  UNL1       -0.2637
     22 C           6.6231   -3.5260   25.4942 C.3     1  UNL1        0.1396
     23 C           5.2091   -1.5646   18.4060 C.3     1  UNL1        0.2042
     24 F           5.0904   -2.9641   17.8794 F       1  UNL1       -0.2306
     25 C           5.7854   -0.3595   19.0884 C.3     1  UNL1        0.0590
     26 C           5.0030    0.9193   19.1393 C.3     1  UNL1        0.0756
     27 N           3.6443    0.9930   18.5078 N.3     1  UNL1       -0.2688
     28 C           3.0681   -0.2122   17.8255 C.3     1  UNL1        0.0756
     29 C           3.8505   -1.4910   17.7745 C.3     1  UNL1        0.0590
     30 C           2.8619    2.2718   18.5588 C.3     1  UNL1        0.0993
     31 C           1.5755    2.3338   19.3276 C.ar    1  UNL1       -0.0018
     32 C           1.4530    1.6239   20.6433 C.ar    1  UNL1        0.0179
     33 C           0.1666    1.6860   21.4121 C.ar    1  UNL1        0.1000
     34 N          -0.9975    2.4579   20.8653 N.ar    1  UNL1       -0.2296
     35 C          -0.8750    3.1678   19.5496 C.ar    1  UNL1        0.1251
     36 N          -2.0391    3.9397   19.0027 N.pl3   1  UNL1       -0.3426
     37 C           0.4114    3.1057   18.7808 C.ar    1  UNL1        0.0310
     38 H          -2.8834    3.9805   19.5074 H       1  UNL1        0.1437
     39 H          -1.9587    4.4057   18.1392 H       1  UNL1        0.1437
@<TRIPOS>BOND
     1     9    10    1
     2    10    11   ar
     3    11    12   ar
     4    12    13   ar
     5    13    14   ar
     6    14    15    1
     7    15    16   ar
     8    16    17   ar
     9    17    18   ar
    10    18    19   ar
    11    19    20    1
    12    20    21    1
    13    21     1    1
    14     1     2    1
    15     2     3    1
    16     3     4    1
    17     4     5   am
    18     5     6    2
    19     5    23    1
    20    23    24    1
    21    23    25    1
    22    25    26    1
    23    26    27    1
    24    27    30    1
    25    30    31    1
    26    31    32   ar
    27    32    33   ar
    28    33    34   ar
    29    34    35   ar
    30    35    36    1
    31    35    37   ar
    32    27    28    1
    33    28    29    1
    34     4     7    1
    35     7     8    1
    36    21    22    1
    37    14    10   ar
    38    19    15   ar
    39     8     1    1
    40    22    13    1
    41    29    23    1
    42    37    31   ar
    43    36    38    1
    44    36    39    1
@<TRIPOS>MOLECULE
*****
 39 44 0 0 0
SMALL
GASTEIGER

@<TRIPOS>ATOM
      1 C           7.0171   -3.5318   25.6736 C.3     1  UNL1        0.0616
      2 C           6.7961   -2.4113   24.7011 C.3     1  UNL1        0.0375
      3 C           6.9791   -2.6469   23.2312 C.3     1  UNL1        0.0949
      4 N           7.3832   -4.0032   22.7336 N.am    1  UNL1       -0.2773
      5 C           7.5663   -4.2388   21.2636 C.2     1  UNL1        0.2553
      6 O           7.9704   -5.5949   20.7661 O.2     1  UNL1       -0.2720
      7 C           7.6042   -5.1236   23.7061 C.3     1  UNL1        0.0949
      8 C           7.4212   -4.8879   25.1761 C.3     1  UNL1        0.0375
      9 C           5.8725   -1.3579   32.7766 C.3     1  UNL1        0.0742
     10 C           5.9252   -1.0741   31.3046 C.ar    1  UNL1        0.1477
     11 N           5.6483    0.2473   30.6511 N.ar    1  UNL1       -0.1333
     12 N           5.8161    0.0763   29.1703 N.ar    1  UNL1       -0.1319
     13 C           6.1966   -1.3508   28.9087 C.ar    1  UNL1        0.1636
     14 N           6.2641   -2.0618   30.2278 N.ar    1  UNL1       -0.2743
     15 C           6.6018   -3.4977   30.5001 C.ar    1  UNL1        0.0935
     16 S           6.6351   -4.0920   31.8769 S.2     1  UNL1       -0.0692
     17 C           7.0094   -5.5389   31.7483 C.ar    1  UNL1        0.0366
     18 C           7.2074   -5.8388   30.2919 C.ar    1  UNL1        0.0061
     19 C           6.9556   -4.5773   29.5205 C.ar    1  UNL1        0.0168
     20 C           7.0589   -4.4875   28.0268 C.3     1  UNL1        0.1014
     21 N           6.8340   -3.2961   27.1436 N.3     1  UNL1       -0.2637
     22 C           6.4503   -1.9001   27.5361 C.3     1  UNL1        0.1396
     23 C           7.3453   -3.1183   20.2911 C.3     1  UNL1        0.2042
     24 F           8.8005   -2.9171   20.5941 F       1  UNL1       -0.2306
     25 C           5.9668   -3.7088   20.3260 C.3     1  UNL1        0.0590
     26 C           4.8727   -3.1088   19.4935 C.3     1  UNL1        0.0756
     27 N           5.1570   -1.9184   18.6263 N.3     1  UNL1       -0.2688
     28 C           6.5355   -1.3280   18.5915 C.3     1  UNL1        0.0756
     29 C           7.6296   -1.9280   19.4239 C.3     1  UNL1        0.0590
     30 C           4.0629   -1.3184   17.7938 C.3     1  UNL1        0.0993
     31 C           3.1746   -0.2582   18.3741 C.ar    1  UNL1       -0.0018
     32 C           3.4933    1.1909   18.1533 C.ar    1  UNL1        0.0179
     33 C           2.6050    2.2510   18.7336 C.ar    1  UNL1        0.1000
     34 N           1.3979    1.8623   19.5347 N.ar    1  UNL1       -0.2296
     35 C           1.0792    0.4133   19.7555 C.ar    1  UNL1        0.1251
     36 N          -0.1279    0.0245   20.5567 N.pl3   1  UNL1       -0.3426
     37 C           1.9675   -0.6470   19.1752 C.ar    1  UNL1        0.0310
     38 H          -0.7109    0.7204   20.9375 H       1  UNL1        0.1437
     39 H          -0.3371   -0.9265   20.7016 H       1  UNL1        0.1437
@<TRIPOS>BOND
     1     9    10    1
     2    10    11   ar
     3    11    12   ar
     4    12    13   ar
     5    13    14   ar
     6    14    15    1
     7    15    16   ar
     8    16    17   ar
     9    17    18   ar
    10    18    19   ar
    11    19    20    1
    12    20    21    1
    13    21     1    1
    14     1     2    1
    15     2     3    1
    16     3     4    1
    17     4     5   am
    18     5     6    2
    19     5    23    1
    20    23    24    1
    21    23    25    1
    22    25    26    1
    23    26    27    1
    24    27    30    1
    25    30    31    1
    26    31    32   ar
    27    32    33   ar
    28    33    34   ar
    29    34    35   ar
    30    35    36    1
    31    35    37   ar
    32    27    28    1
    33    28    29    1
    34     4     7    1
    35     7     8    1
    36    21    22    1
    37    14    10   ar
    38    19    15   ar
    39     8     1    1
    40    22    13    1
    41    29    23    1
    42    37    31   ar
    43    36    38    1
    44    36    39    1
@<TRIPOS>MOLECULE
*****
 39 44 0 0 0
SMALL
GASTEIGER

@<TRIPOS>ATOM
      1 C           2.6982    0.2076   24.4254 C.3     1  UNL1        0.0616
      2 C           3.6861    0.2581   25.5530 C.3     1  UNL1        0.0375
      3 C           3.2942    0.8669   26.8666 C.3     1  UNL1        0.0949
      4 N           1.9144    1.4252   27.0527 N.am    1  UNL1       -0.2773
      5 C           1.5226    2.0340   28.3663 C.2     1  UNL1        0.2553
      6 O           0.1428    2.5923   28.5523 O.2     1  UNL1       -0.2720
      7 C           0.9266    1.3746   25.9250 C.3     1  UNL1        0.0949
      8 C           1.3185    0.7658   24.6113 C.3     1  UNL1        0.0375
      9 C           5.0577   -3.6344   18.4120 C.3     1  UNL1        0.0742
     10 C           4.8993   -3.4768   19.8953 C.ar    1  UNL1        0.1477
     11 N           5.3670   -4.4463   20.9398 N.ar    1  UNL1       -0.1333
     12 N           5.0022   -3.8908   22.2846 N.ar    1  UNL1       -0.1319
     13 C           4.3089   -2.5779   22.0711 C.ar    1  UNL1        0.1636
     14 N           4.2453   -2.3220   20.5944 N.ar    1  UNL1       -0.2743
     15 C           3.6519   -1.1481   19.8733 C.ar    1  UNL1        0.0935
     16 S           3.6521   -1.0096   18.3797 S.2     1  UNL1       -0.0692
     17 C           2.9758    0.2839   18.0341 C.ar    1  UNL1        0.0366
     18 C           2.5577    0.9449   19.3141 C.ar    1  UNL1        0.0061
     19 C           2.9755    0.0598   20.4508 C.ar    1  UNL1        0.0168
     20 C           2.7255    0.3922   21.8919 C.3     1  UNL1        0.1014
     21 N           3.0901   -0.4013   23.1116 N.3     1  UNL1       -0.2637
     22 C           3.7948   -1.7231   23.1913 C.3     1  UNL1        0.1396
     23 C           2.5104    2.0846   29.4939 C.3     1  UNL1        0.2042
     24 F           2.7367    3.4382   28.8885 F       1  UNL1       -0.2306
     25 C           1.9410    0.7134   29.7077 C.3     1  UNL1        0.0590
     26 C           2.4380   -0.1371   30.8389 C.3     1  UNL1        0.0756
     27 N           3.5045    0.3835   31.7563 N.3     1  UNL1       -0.2688
     28 C           4.0739    1.7547   31.5425 C.3     1  UNL1        0.0756
     29 C           3.5768    2.6052   30.4113 C.3     1  UNL1        0.0590
     30 C           4.0016   -0.4670   32.8875 C.3     1  UNL1        0.0993
     31 C           5.2608   -1.2663   32.7277 C.ar    1  UNL1       -0.0018
     32 C           6.5874   -0.5697   32.6563 C.ar    1  UNL1        0.0179
     33 C           7.8465   -1.3691   32.4966 C.ar    1  UNL1        0.1000
     34 N           7.7792   -2.8649   32.4081 N.ar    1  UNL1       -0.2296
     35 C           6.4526   -3.5614   32.4795 C.ar    1  UNL1        0.1251
     36 N           6.3853   -5.0573   32.3910 N.pl3   1  UNL1       -0.3426
     37 C           5.1934   -2.7621   32.6393 C.ar    1  UNL1        0.0310
     38 H           7.2117   -5.5819   32.2862 H       1  UNL1        0.1437
     39 H           5.5146   -5.5145   32.4379 H       1  UNL1        0.1437
@<TRIPOS>BOND
     1     9    10    1
     2    10    11   ar
     3    11    12   ar
     4    12    13   ar
     5    13    14   ar
     6    14    15    1
     7    15    16   ar
     8    16    17   ar
     9    17    18   ar
    10    18    19   ar
    11    19    20    1
    12    20    21    1
    13    21     1    1
    14     1     2    1
    15     2     3    1
    16     3     4    1
    17     4     5   am
    18     5     6    2
    19     5    23    1
    20    23    24    1
    21    23    25    1
    22    25    26    1
    23    26    27    1
    24    27    30    1
    25    30    31    1
    26    31    32   ar
    27    32    33   ar
    28    33    34   ar
    29    34    35   ar
    30    35    36    1
    31    35    37   ar
    32    27    28    1
    33    28    29    1
    34     4     7    1
    35     7     8    1
    36    21    22    1
    37    14    10   ar
    38    19    15   ar
    39     8     1    1
    40    22    13    1
    41    29    23    1
    42    37    31   ar
    43    36    38    1
    44    36    39    1
@<TRIPOS>MOLECULE
*****
 39 44 0 0 0
SMALL
GASTEIGER

@<TRIPOS>ATOM
      1 C           6.0088   -3.3889   23.3939 C.3     1  UNL1        0.0616
      2 C           4.6266   -2.8128   23.4808 C.3     1  UNL1        0.0375
      3 C           4.0209   -2.1334   22.2885 C.3     1  UNL1        0.0949
      4 N           4.7975   -2.0300   21.0093 N.am    1  UNL1       -0.2773
      5 C           4.1918   -1.3506   19.8171 C.2     1  UNL1        0.2553
      6 O           4.9684   -1.2473   18.5379 O.2     1  UNL1       -0.2720
      7 C           6.1797   -2.6062   20.9225 C.3     1  UNL1        0.0949
      8 C           6.7854   -3.2856   22.1147 C.3     1  UNL1        0.0375
      9 C           9.3356   -7.5486   28.6964 C.3     1  UNL1        0.0742
     10 C           8.9302   -7.3086   27.2724 C.ar    1  UNL1        0.1477
     11 N           9.2124   -8.2145   26.1107 N.ar    1  UNL1       -0.1333
     12 N           8.6280   -7.5863   24.8802 N.ar    1  UNL1       -0.1319
     13 C           7.9845   -6.2921   25.2815 C.ar    1  UNL1        0.1636
     14 N           8.1713   -6.1205   26.7600 N.ar    1  UNL1       -0.2743
     15 C           7.7113   -4.9931   27.6361 C.ar    1  UNL1        0.0935
     16 S           7.9634   -4.9392   29.1138 S.2     1  UNL1       -0.0692
     17 C           7.3588   -3.6717   29.6411 C.ar    1  UNL1        0.0366
     18 C           6.7331   -2.9423   28.4894 C.ar    1  UNL1        0.0061
     19 C           6.9510   -3.7590   27.2502 C.ar    1  UNL1        0.0168
     20 C           6.4629   -3.3475   25.8929 C.3     1  UNL1        0.1014
     21 N           6.6145   -4.0684   24.5862 N.3     1  UNL1       -0.2637
     22 C           7.2917   -5.3789   24.3142 C.3     1  UNL1        0.1396
     23 C           2.8096   -0.7745   19.9040 C.3     1  UNL1        0.2042
     24 F           2.4761   -2.2256   19.7225 F       1  UNL1       -0.2306
     25 C           3.6233    0.4765   20.0553 C.3     1  UNL1        0.0590
     26 C           2.9389    1.7997   20.2304 C.3     1  UNL1        0.0756
     27 N           1.4407    1.8719   20.2543 N.3     1  UNL1       -0.2688
     28 C           0.6271    0.6208   20.1030 C.3     1  UNL1        0.0756
     29 C           1.3116   -0.7024   19.9278 C.3     1  UNL1        0.0590
     30 C           0.7563    3.1951   20.4295 C.3     1  UNL1        0.0993
     31 C          -0.6480    3.3841   19.9373 C.ar    1  UNL1       -0.0018
     32 C          -0.8940    3.9619   18.5751 C.ar    1  UNL1        0.0179
     33 C          -2.2983    4.1508   18.0831 C.ar    1  UNL1        0.1000
     34 N          -3.4566    3.7620   18.9530 N.ar    1  UNL1       -0.2296
     35 C          -3.2106    3.1841   20.3152 C.ar    1  UNL1        0.1251
     36 N          -4.3690    2.7952   21.1853 N.pl3   1  UNL1       -0.3426
     37 C          -1.8063    2.9951   20.8074 C.ar    1  UNL1        0.0310
     38 H          -5.2907    2.9192   20.8623 H       1  UNL1        0.1437
     39 H          -4.2075    2.4159   22.0793 H       1  UNL1        0.1437
@<TRIPOS>BOND
     1     9    10    1
     2    10    11   ar
     3    11    12   ar
     4    12    13   ar
     5    13    14   ar
     6    14    15    1
     7    15    16   ar
     8    16    17   ar
     9    17    18   ar
    10    18    19   ar
    11    19    20    1
    12    20    21    1
    13    21     1    1
    14     1     2    1
    15     2     3    1
    16     3     4    1
    17     4     5   am
    18     5     6    2
    19     5    23    1
    20    23    24    1
    21    23    25    1
    22    25    26    1
    23    26    27    1
    24    27    30    1
    25    30    31    1
    26    31    32   ar
    27    32    33   ar
    28    33    34   ar
    29    34    35   ar
    30    35    36    1
    31    35    37   ar
    32    27    28    1
    33    28    29    1
    34     4     7    1
    35     7     8    1
    36    21    22    1
    37    14    10   ar
    38    19    15   ar
    39     8     1    1
    40    22    13    1
    41    29    23    1
    42    37    31   ar
    43    36    38    1
    44    36    39    1
@<TRIPOS>MOLECULE
*****
 39 44 0 0 0
SMALL
GASTEIGER

@<TRIPOS>ATOM
      1 C           2.4911    0.5484   24.4969 C.3     1  UNL1        0.0616
      2 C           3.5769    0.6284   25.5286 C.3     1  UNL1        0.0375
      3 C           3.2538    1.0718   26.9247 C.3     1  UNL1        0.0949
      4 N           1.8448    1.4352   27.2890 N.am    1  UNL1       -0.2773
      5 C           1.5217    1.8786   28.6850 C.2     1  UNL1        0.2553
      6 O           0.1127    2.2421   29.0492 O.2     1  UNL1       -0.2720
      7 C           0.7590    1.3552   26.2571 C.3     1  UNL1        0.0949
      8 C           1.0821    0.9119   24.8611 C.3     1  UNL1        0.0375
      9 C           3.7079   -0.7510   17.1949 C.3     1  UNL1        0.0742
     10 C           3.2113    0.1163   18.3134 C.ar    1  UNL1        0.1477
     11 N           2.5928    1.4750   18.1675 N.ar    1  UNL1       -0.1333
     12 N           2.2451    1.9758   19.5381 N.ar    1  UNL1       -0.1319
     13 C           2.6488    0.9265   20.5311 C.ar    1  UNL1        0.1636
     14 N           3.2459   -0.2227   19.7741 N.ar    1  UNL1       -0.2743
     15 C           3.7984   -1.5099   20.3109 C.ar    1  UNL1        0.0935
     16 S           4.3724   -2.5890   19.4414 S.2     1  UNL1       -0.0692
     17 C           4.8190   -3.7118   20.3301 C.ar    1  UNL1        0.0366
     18 C           4.5210   -3.3266   21.7489 C.ar    1  UNL1        0.0061
     19 C           3.8902   -1.9658   21.7370 C.ar    1  UNL1        0.0168
     20 C           3.4523   -1.2471   22.9785 C.3     1  UNL1        0.1014
     21 N           2.8143    0.1050   23.1008 N.3     1  UNL1       -0.2637
     22 C           2.4567    1.0723   22.0115 C.3     1  UNL1        0.1396
     23 C           2.6075    1.9586   29.7168 C.3     1  UNL1        0.2042
     24 F           2.7066    3.3342   29.1271 F       1  UNL1       -0.2306
     25 C           2.1312    0.5551   29.9480 C.3     1  UNL1        0.0590
     26 C           2.7752   -0.2907   31.0063 C.3     1  UNL1        0.0756
     27 N           3.8955    0.2671   31.8334 N.3     1  UNL1       -0.2688
     28 C           4.3717    1.6705   31.6020 C.3     1  UNL1        0.0756
     29 C           3.7277    2.5163   30.5437 C.3     1  UNL1        0.0590
     30 C           4.5395   -0.5787   32.8916 C.3     1  UNL1        0.0993
     31 C           5.6805   -1.4851   32.5360 C.ar    1  UNL1       -0.0018
     32 C           6.9894   -0.9038   32.0900 C.ar    1  UNL1        0.0179
     33 C           8.1303   -1.8103   31.7344 C.ar    1  UNL1        0.1000
     34 N           7.9624   -3.2980   31.8246 N.ar    1  UNL1       -0.2296
     35 C           6.6535   -3.8794   32.2705 C.ar    1  UNL1        0.1251
     36 N           6.4856   -5.3672   32.3607 N.pl3   1  UNL1       -0.3426
     37 C           5.5125   -2.9730   32.6262 C.ar    1  UNL1        0.0310
     38 H           7.2344   -5.9622   32.1272 H       1  UNL1        0.1437
     39 H           5.6265   -5.7488   32.6533 H       1  UNL1        0.1437
@<TRIPOS>BOND
     1     9    10    1
     2    10    11   ar
     3    11    12   ar
     4    12    13   ar
     5    13    14   ar
     6    14    15    1
     7    15    16   ar
     8    16    17   ar
     9    17    18   ar
    10    18    19   ar
    11    19    20    1
    12    20    21    1
    13    21     1    1
    14     1     2    1
    15     2     3    1
    16     3     4    1
    17     4     5   am
    18     5     6    2
    19     5    23    1
    20    23    24    1
    21    23    25    1
    22    25    26    1
    23    26    27    1
    24    27    30    1
    25    30    31    1
    26    31    32   ar
    27    32    33   ar
    28    33    34   ar
    29    34    35   ar
    30    35    36    1
    31    35    37   ar
    32    27    28    1
    33    28    29    1
    34     4     7    1
    35     7     8    1
    36    21    22    1
    37    14    10   ar
    38    19    15   ar
    39     8     1    1
    40    22    13    1
    41    29    23    1
    42    37    31   ar
    43    36    38    1
    44    36    39    1
@<TRIPOS>MOLECULE
*****
 39 44 0 0 0
SMALL
GASTEIGER

@<TRIPOS>ATOM
      1 C           2.8937   -0.2795   24.5331 C.3     1  UNL1        0.0616
      2 C           3.5434   -0.8885   25.7401 C.3     1  UNL1        0.0375
      3 C           3.1492   -0.4335   27.1139 C.3     1  UNL1        0.0949
      4 N           2.1052    0.6307   27.2808 N.am    1  UNL1       -0.2773
      5 C           1.7110    1.0858   28.6546 C.2     1  UNL1        0.2553
      6 O           0.6672    2.1500   28.8214 O.2     1  UNL1       -0.2720
      7 C           1.4556    1.2398   26.0737 C.3     1  UNL1        0.0949
      8 C           1.8498    0.7847   24.6999 C.3     1  UNL1        0.0375
      9 C           5.3489   -3.3612   18.1329 C.3     1  UNL1        0.0742
     10 C           5.2306   -3.3489   19.6281 C.ar    1  UNL1        0.1477
     11 N           5.8136   -4.3630   20.5671 N.ar    1  UNL1       -0.1333
     12 N           5.4518   -3.9612   21.9663 N.ar    1  UNL1       -0.1319
     13 C           4.6451   -2.6988   21.8921 C.ar    1  UNL1        0.1636
     14 N           4.5084   -2.3203   20.4470 N.ar    1  UNL1       -0.2743
     15 C           3.7948   -1.1426   19.8521 C.ar    1  UNL1        0.0935
     16 S           3.7307   -0.8737   18.3778 S.2     1  UNL1       -0.0692
     17 C           2.9379    0.3826   18.1699 C.ar    1  UNL1        0.0366
     18 C           2.5120    0.8901   19.5157 C.ar    1  UNL1        0.0061
     19 C           3.0416   -0.0526   20.5554 C.ar    1  UNL1        0.0168
     20 C           2.8161    0.1290   22.0271 C.3     1  UNL1        0.1014
     21 N           3.2880   -0.7345   23.1592 N.3     1  UNL1       -0.2637
     22 C           4.1020   -1.9930   23.0991 C.3     1  UNL1        0.1396
     23 C           2.3607    0.4767   29.8616 C.3     1  UNL1        0.2042
     24 F           1.4894   -0.6656   29.4304 F       1  UNL1       -0.2306
     25 C           3.0063    1.8306   29.8736 C.3     1  UNL1        0.0590
     26 C           3.9991    2.1786   30.9429 C.3     1  UNL1        0.0756
     27 N           4.3461    1.1728   32.0002 N.3     1  UNL1       -0.2688
     28 C           3.7005   -0.1811   31.9882 C.3     1  UNL1        0.0756
     29 C           2.7077   -0.5291   30.9189 C.3     1  UNL1        0.0590
     30 C           5.3389    1.5208   33.0695 C.3     1  UNL1        0.0993
     31 C           5.0354    1.2088   34.5049 C.ar    1  UNL1       -0.0018
     32 C           5.9425    0.3027   35.2835 C.ar    1  UNL1        0.0179
     33 C           5.6389   -0.0093   36.7189 C.ar    1  UNL1        0.1000
     34 N           4.4283    0.5847   37.3758 N.ar    1  UNL1       -0.2296
     35 C           3.5212    1.4908   36.5972 C.ar    1  UNL1        0.1251
     36 N           2.3106    2.0848   37.2541 N.pl3   1  UNL1       -0.3426
     37 C           3.8247    1.8028   35.1618 C.ar    1  UNL1        0.0310
     38 H           2.1114    1.8800   38.1962 H       1  UNL1        0.1437
     39 H           1.7152    2.6795   36.7431 H       1  UNL1        0.1437
@<TRIPOS>BOND
     1     9    10    1
     2    10    11   ar
     3    11    12   ar
     4    12    13   ar
     5    13    14   ar
     6    14    15    1
     7    15    16   ar
     8    16    17   ar
     9    17    18   ar
    10    18    19   ar
    11    19    20    1
    12    20    21    1
    13    21     1    1
    14     1     2    1
    15     2     3    1
    16     3     4    1
    17     4     5   am
    18     5     6    2
    19     5    23    1
    20    23    24    1
    21    23    25    1
    22    25    26    1
    23    26    27    1
    24    27    30    1
    25    30    31    1
    26    31    32   ar
    27    32    33   ar
    28    33    34   ar
    29    34    35   ar
    30    35    36    1
    31    35    37   ar
    32    27    28    1
    33    28    29    1
    34     4     7    1
    35     7     8    1
    36    21    22    1
    37    14    10   ar
    38    19    15   ar
    39     8     1    1
    40    22    13    1
    41    29    23    1
    42    37    31   ar
    43    36    38    1
    44    36    39    1
