@<TRIPOS>MOLECULE
*****
 37 40 0 0 0
SMALL
GASTEIGER

@<TRIPOS>ATOM
      1 N           1.9841   -0.1785   20.3789 N.pl3   1  UNL1       -0.2926
      2 C           1.8418    0.1896   18.9318 C.3     1  UNL1        0.0922
      3 C           0.9423    1.3210   18.5306 C.3     1  UNL1        0.0220
      4 C           0.1850    2.0842   19.5766 C.3     1  UNL1        0.0126
      5 C           0.3273    1.7160   21.0238 C.3     1  UNL1        0.0963
      6 C           1.2268    0.5847   21.4249 C.3     1  UNL1        0.1012
      7 C           4.3571   -2.4881   22.5663 C.ar    1  UNL1        0.1362
      8 C           3.4576   -1.3568   22.1651 C.ar    1  UNL1        0.0686
      9 C           2.8836   -1.3099   20.7801 C.ar    1  UNL1        0.1361
     10 N           3.2091   -2.3943   19.7962 N.ar    1  UNL1       -0.2083
     11 C           4.1086   -3.5257   20.1974 C.ar    1  UNL1        0.2374
     12 N           4.6826   -3.5725   21.5825 N.ar    1  UNL1       -0.2083
     13 C           6.6531   -2.6756   28.1065 C.3     1  UNL1        0.0897
     14 N           6.0791   -2.6287   26.7214 N.3     1  UNL1       -0.2686
     15 C           6.6170   -3.5367   25.6555 C.3     1  UNL1        0.0939
     16 C           6.0430   -3.4898   24.2705 C.3     1  UNL1        0.1095
     17 N           4.9311   -2.5350   23.9513 N.pl3   1  UNL1       -0.2903
     18 C           4.3932   -1.6269   25.0172 C.3     1  UNL1        0.1095
     19 C           4.9672   -1.6738   26.4023 C.3     1  UNL1        0.0939
     20 C           4.4341   -4.6102   19.2136 C.3     1  UNL1        0.4524
     21 F           4.7597   -5.6946   18.2298 F       1  UNL1       -0.1632
     22 F           5.8589   -4.6079   19.6825 F       1  UNL1       -0.1632
     23 F           3.0094   -4.6125   18.7446 F       1  UNL1       -0.1632
     24 C          -0.4299    2.4792   22.0698 C.2     1  UNL1        0.2237
     25 O          -1.7705    3.0685   21.7449 O.2     1  UNL1       -0.2751
     26 N           0.1535    2.6531   23.4408 N.am    1  UNL1       -0.3040
     27 H           1.0334    2.2664   23.6540 H       1  UNL1        0.1494
     28 C          -0.6037    3.4163   24.4868 C.3     1  UNL1        0.0941
     29 C          -1.3352    2.6802   25.5698 C.3     1  UNL1        0.0476
     30 C          -0.5669    1.9662   26.6422 C.ar    1  UNL1       -0.0204
     31 C          -1.2943    1.3353   27.7923 C.ar    1  UNL1       -0.0035
     32 C          -0.5260    0.6213   28.8647 C.ar    1  UNL1        0.0100
     33 C           0.9697    0.5383   28.7870 C.ar    1  UNL1        0.0684
     34 C           1.6970    1.1693   27.6369 C.ar    1  UNL1        0.0100
     35 C           0.9287    1.8833   26.5645 C.ar    1  UNL1       -0.0035
     36 C           1.7380   -0.1756   29.8594 C.1     1  UNL1        0.1004
     37 N           2.5063   -0.8896   30.9317 N.1     1  UNL1       -0.1908
@<TRIPOS>BOND
     1    13    14    1
     2    14    15    1
     3    15    16    1
     4    16    17    1
     5    17     7    1
     6     7     8   ar
     7     8     9   ar
     8     9     1    1
     9     1     2    1
    10     2     3    1
    11     3     4    1
    12     4     5    1
    13     5    24    1
    14    24    25    2
    15    24    26   am
    16    26    28    1
    17    28    29    1
    18    29    30    1
    19    30    31   ar
    20    31    32   ar
    21    32    33   ar
    22    33    36    1
    23    36    37    3
    24    33    34   ar
    25    34    35   ar
    26     5     6    1
    27     9    10   ar
    28    10    11   ar
    29    11    20    1
    30    20    21    1
    31    20    22    1
    32    20    23    1
    33    11    12   ar
    34    17    18    1
    35    18    19    1
    36    19    14    1
    37    12     7   ar
    38     6     1    1
    39    35    30   ar
    40    26    27    1
@<TRIPOS>MOLECULE
*****
 37 40 0 0 0
SMALL
GASTEIGER

@<TRIPOS>ATOM
      1 N           1.9536   -0.0247   20.2801 N.pl3   1  UNL1       -0.2926
      2 C           1.7904    0.2493   18.8144 C.3     1  UNL1        0.0922
      3 C           0.9209    1.3821   18.3553 C.3     1  UNL1        0.0220
      4 C           0.2145    2.2410   19.3621 C.3     1  UNL1        0.0126
      5 C           0.3778    1.9670   20.8278 C.3     1  UNL1        0.0963
      6 C           1.2473    0.8342   21.2868 C.3     1  UNL1        0.1012
      7 C           4.2166   -2.3118   22.6035 C.ar    1  UNL1        0.1362
      8 C           3.3471   -1.1790   22.1444 C.ar    1  UNL1        0.0686
      9 C           2.8231   -1.1575   20.7391 C.ar    1  UNL1        0.1361
     10 N           3.1687   -2.2688   19.7928 N.ar    1  UNL1       -0.2083
     11 C           4.0382   -3.4016   20.2518 C.ar    1  UNL1        0.2374
     12 N           4.5621   -3.4230   21.6572 N.ar    1  UNL1       -0.2083
     13 C           6.3122   -2.3977   28.2250 C.3     1  UNL1        0.0897
     14 N           5.7883   -2.3762   26.8196 N.3     1  UNL1       -0.2686
     15 C           4.6293   -1.4927   26.4647 C.3     1  UNL1        0.0939
     16 C           4.1054   -1.4712   25.0593 C.3     1  UNL1        0.1095
     17 N           4.7405   -2.3332   24.0089 N.pl3   1  UNL1       -0.2903
     18 C           5.8995   -3.2168   24.3638 C.3     1  UNL1        0.1095
     19 C           6.4234   -3.2382   25.7691 C.3     1  UNL1        0.0939
     20 C           4.3838   -4.5129   19.3055 C.3     1  UNL1        0.4524
     21 F           4.7295   -5.6242   18.3592 F       1  UNL1       -0.1632
     22 F           5.8048   -4.4791   19.7848 F       1  UNL1       -0.1632
     23 F           2.9629   -4.5467   18.8261 F       1  UNL1       -0.1632
     24 C          -0.3286    2.8258   21.8346 C.2     1  UNL1        0.2237
     25 O          -1.3855    3.7914   21.3868 O.2     1  UNL1       -0.2751
     26 N           0.0220    2.7190   23.2891 N.am    1  UNL1       -0.3040
     27 H           0.7157    2.0852   23.5831 H       1  UNL1        0.1494
     28 C          -0.6843    3.5778   24.2959 C.3     1  UNL1        0.0941
     29 C          -1.7975    3.0043   25.1216 C.3     1  UNL1        0.0476
     30 C          -3.2074    3.4688   24.9059 C.ar    1  UNL1       -0.0204
     31 C          -3.8578    3.2943   23.5656 C.ar    1  UNL1       -0.0035
     32 C          -5.2677    3.7588   23.3499 C.ar    1  UNL1        0.0100
     33 C          -6.0271    4.3978   24.4745 C.ar    1  UNL1        0.0684
     34 C          -5.3767    4.5723   25.8148 C.ar    1  UNL1        0.0100
     35 C          -3.9669    4.1078   26.0305 C.ar    1  UNL1       -0.0035
     36 C          -7.4370    4.8623   24.2588 C.1     1  UNL1        0.1004
     37 N          -8.8469    5.3268   24.0432 N.1     1  UNL1       -0.1908
@<TRIPOS>BOND
     1    13    14    1
     2    14    15    1
     3    15    16    1
     4    16    17    1
     5    17     7    1
     6     7     8   ar
     7     8     9   ar
     8     9     1    1
     9     1     2    1
    10     2     3    1
    11     3     4    1
    12     4     5    1
    13     5    24    1
    14    24    25    2
    15    24    26   am
    16    26    28    1
    17    28    29    1
    18    29    30    1
    19    30    31   ar
    20    31    32   ar
    21    32    33   ar
    22    33    36    1
    23    36    37    3
    24    33    34   ar
    25    34    35   ar
    26     5     6    1
    27     9    10   ar
    28    10    11   ar
    29    11    20    1
    30    20    21    1
    31    20    22    1
    32    20    23    1
    33    11    12   ar
    34    17    18    1
    35    18    19    1
    36    19    14    1
    37    12     7   ar
    38     6     1    1
    39    35    30   ar
    40    26    27    1
@<TRIPOS>MOLECULE
*****
 37 40 0 0 0
SMALL
GASTEIGER

@<TRIPOS>ATOM
      1 N           4.2830   -1.4725   27.3870 N.pl3   1  UNL1       -0.2926
      2 C           5.4442   -2.3384   27.7766 C.3     1  UNL1        0.0922
      3 C           6.3539   -2.8930   26.7206 C.3     1  UNL1        0.0220
      4 C           6.1022   -2.5816   25.2750 C.3     1  UNL1        0.0126
      5 C           4.9409   -1.7157   24.8854 C.3     1  UNL1        0.0963
      6 C           4.0314   -1.1612   25.9414 C.3     1  UNL1        0.1012
      7 C           2.9445   -0.2421   30.9147 C.ar    1  UNL1        0.1362
      8 C           3.8541   -0.7966   29.8587 C.ar    1  UNL1        0.0686
      9 C           3.3734   -0.9180   28.4430 C.ar    1  UNL1        0.1361
     10 N           1.9831   -0.4849   28.0833 N.ar    1  UNL1       -0.2083
     11 C           1.0735    0.0696   29.1393 C.ar    1  UNL1        0.2374
     12 N           1.5542    0.1910   30.5550 N.ar    1  UNL1       -0.2083
     13 C           4.8675    0.2435   36.5774 C.3     1  UNL1        0.0897
     14 N           4.3867    0.1221   35.1617 N.3     1  UNL1       -0.2686
     15 C           4.6256   -1.1445   34.3945 C.3     1  UNL1        0.0939
     16 C           4.1449   -1.2659   32.9789 C.3     1  UNL1        0.1095
     17 N           3.4253   -0.1207   32.3304 N.pl3   1  UNL1       -0.2903
     18 C           3.1864    1.1459   33.0975 C.3     1  UNL1        0.1095
     19 C           3.6671    1.2673   34.5132 C.3     1  UNL1        0.0939
     20 C          -0.3169    0.5028   28.7796 C.3     1  UNL1        0.4524
     21 F          -1.7072    0.9360   28.4200 F       1  UNL1       -0.1632
     22 F           0.1462    1.9276   28.7054 F       1  UNL1       -0.1632
     23 F          -0.7800   -0.9219   28.8539 F       1  UNL1       -0.1632
     24 C           4.6893   -1.4043   23.4398 C.2     1  UNL1        0.2237
     25 O           3.9743   -0.1423   23.0579 O.2     1  UNL1       -0.2751
     26 N           5.1527   -2.3551   22.3761 N.am    1  UNL1       -0.3040
     27 H           5.6220   -3.1834   22.6268 H       1  UNL1        0.1494
     28 C           4.9011   -2.0437   20.9305 C.3     1  UNL1        0.0941
     29 C           3.5418   -2.2736   20.3394 C.3     1  UNL1        0.0476
     30 C           2.7499   -1.1162   19.8072 C.ar    1  UNL1       -0.0204
     31 C           1.3866   -0.8230   20.3597 C.ar    1  UNL1       -0.0035
     32 C           0.5946    0.3344   19.8275 C.ar    1  UNL1        0.0100
     33 C           1.1660    1.1986   18.7427 C.ar    1  UNL1        0.0684
     34 C           2.5293    0.9054   18.1903 C.ar    1  UNL1        0.0100
     35 C           3.3213   -0.2520   18.7225 C.ar    1  UNL1       -0.0035
     36 C           0.3741    2.3560   18.2105 C.1     1  UNL1        0.1004
     37 N          -0.4179    3.5134   17.6783 N.1     1  UNL1       -0.1908
@<TRIPOS>BOND
     1    13    14    1
     2    14    15    1
     3    15    16    1
     4    16    17    1
     5    17     7    1
     6     7     8   ar
     7     8     9   ar
     8     9     1    1
     9     1     2    1
    10     2     3    1
    11     3     4    1
    12     4     5    1
    13     5    24    1
    14    24    25    2
    15    24    26   am
    16    26    28    1
    17    28    29    1
    18    29    30    1
    19    30    31   ar
    20    31    32   ar
    21    32    33   ar
    22    33    36    1
    23    36    37    3
    24    33    34   ar
    25    34    35   ar
    26     5     6    1
    27     9    10   ar
    28    10    11   ar
    29    11    20    1
    30    20    21    1
    31    20    22    1
    32    20    23    1
    33    11    12   ar
    34    17    18    1
    35    18    19    1
    36    19    14    1
    37    12     7   ar
    38     6     1    1
    39    35    30   ar
    40    26    27    1
@<TRIPOS>MOLECULE
*****
 37 40 0 0 0
SMALL
GASTEIGER

@<TRIPOS>ATOM
      1 N           4.6845   -2.2749   23.9789 N.pl3   1  UNL1       -0.2926
      2 C           5.9125   -3.0750   24.2981 C.3     1  UNL1        0.0922
      3 C           6.4438   -3.1063   25.7006 C.3     1  UNL1        0.0220
      4 C           5.7470   -2.3374   26.7838 C.3     1  UNL1        0.0126
      5 C           4.5190   -1.5373   26.4646 C.3     1  UNL1        0.0963
      6 C           3.9878   -1.5061   25.0622 C.3     1  UNL1        0.1012
      7 C           2.7313   -1.0883   20.7344 C.ar    1  UNL1        0.1362
      8 C           3.2626   -1.1196   22.1368 C.ar    1  UNL1        0.0686
      9 C           4.1532   -2.2436   22.5765 C.ar    1  UNL1        0.1361
     10 N           4.5126   -3.3363   21.6138 N.ar    1  UNL1       -0.2083
     11 C           3.9813   -3.3050   20.2114 C.ar    1  UNL1        0.2374
     12 N           3.0907   -2.1810   19.7717 N.ar    1  UNL1       -0.2083
     13 C          -0.8312    3.4078   18.9756 C.3     1  UNL1        0.0897
     14 N           0.0594    2.2838   19.4153 N.3     1  UNL1       -0.2686
     15 C           0.1155    1.8935   20.8625 C.3     1  UNL1        0.0939
     16 C           1.0061    0.7695   21.3022 C.3     1  UNL1        0.1095
     17 N           1.8407    0.0358   20.2947 N.pl3   1  UNL1       -0.2903
     18 C           1.7846    0.4261   18.8475 C.3     1  UNL1        0.1095
     19 C           0.8940    1.5501   18.4078 C.3     1  UNL1        0.0939
     20 C           4.3407   -4.3977   19.2486 C.3     1  UNL1        0.4524
     21 F           4.7001   -5.4904   18.2859 F       1  UNL1       -0.1632
     22 F           5.7850   -4.2569   19.6280 F       1  UNL1       -0.1632
     23 F           2.8963   -4.5385   18.8693 F       1  UNL1       -0.1632
     24 C           3.8222   -0.7685   27.5478 C.2     1  UNL1        0.2237
     25 O           4.6242   -0.0462   28.5895 O.2     1  UNL1       -0.2751
     26 N           2.3235   -0.7219   27.5894 N.am    1  UNL1       -0.3040
     27 H           1.7971   -1.1960   26.9056 H       1  UNL1        0.1494
     28 C           1.6267    0.0469   28.6726 C.3     1  UNL1        0.0941
     29 C           0.1897    0.4431   28.5056 C.3     1  UNL1        0.0476
     30 C          -0.2308    1.2568   27.3177 C.ar    1  UNL1       -0.0204
     31 C          -1.3306    2.2678   27.4525 C.ar    1  UNL1       -0.0035
     32 C          -1.7511    3.0815   26.2646 C.ar    1  UNL1        0.0100
     33 C          -1.0717    2.8842   24.9419 C.ar    1  UNL1        0.0684
     34 C           0.0282    1.8733   24.8072 C.ar    1  UNL1        0.0100
     35 C           0.4487    1.0596   25.9951 C.ar    1  UNL1       -0.0035
     36 C          -1.4922    3.6979   23.7540 C.1     1  UNL1        0.1004
     37 N          -1.9126    4.5116   22.5661 N.1     1  UNL1       -0.1908
@<TRIPOS>BOND
     1    13    14    1
     2    14    15    1
     3    15    16    1
     4    16    17    1
     5    17     7    1
     6     7     8   ar
     7     8     9   ar
     8     9     1    1
     9     1     2    1
    10     2     3    1
    11     3     4    1
    12     4     5    1
    13     5    24    1
    14    24    25    2
    15    24    26   am
    16    26    28    1
    17    28    29    1
    18    29    30    1
    19    30    31   ar
    20    31    32   ar
    21    32    33   ar
    22    33    36    1
    23    36    37    3
    24    33    34   ar
    25    34    35   ar
    26     5     6    1
    27     9    10   ar
    28    10    11   ar
    29    11    20    1
    30    20    21    1
    31    20    22    1
    32    20    23    1
    33    11    12   ar
    34    17    18    1
    35    18    19    1
    36    19    14    1
    37    12     7   ar
    38     6     1    1
    39    35    30   ar
    40    26    27    1
@<TRIPOS>MOLECULE
*****
 37 40 0 0 0
SMALL
GASTEIGER

@<TRIPOS>ATOM
      1 N           7.3724   -5.2974   25.0088 N.pl3   1  UNL1       -0.2926
      2 C           8.0877   -5.5564   23.7161 C.3     1  UNL1        0.0922
      3 C           8.9008   -6.8054   23.5459 C.3     1  UNL1        0.0220
      4 C           8.9986   -7.7954   24.6685 C.3     1  UNL1        0.0126
      5 C           8.2833   -7.5364   25.9613 C.3     1  UNL1        0.0963
      6 C           7.4702   -6.2875   26.1315 C.3     1  UNL1        0.1012
      7 C           4.9225   -2.2796   24.2084 C.ar    1  UNL1        0.1362
      8 C           5.7356   -3.5285   24.0383 C.ar    1  UNL1        0.0686
      9 C           6.5593   -4.0484   25.1790 C.ar    1  UNL1        0.1361
     10 N           6.5699   -3.3194   26.4899 N.ar    1  UNL1       -0.2083
     11 C           5.7568   -2.0705   26.6600 C.ar    1  UNL1        0.2374
     12 N           4.9331   -1.5506   25.5193 N.ar    1  UNL1       -0.2083
     13 C           1.6279   -0.1999   19.6455 C.3     1  UNL1        0.0897
     14 N           2.4515   -0.7198   20.7863 N.3     1  UNL1       -0.2686
     15 C           3.4517   -1.8128   20.5521 C.3     1  UNL1        0.0939
     16 C           4.2754   -2.3328   21.6928 C.3     1  UNL1        0.1095
     17 N           4.0989   -1.7596   23.0677 N.pl3   1  UNL1       -0.2903
     18 C           3.0987   -0.6666   23.3019 C.3     1  UNL1        0.1095
     19 C           2.2750   -0.1467   22.1611 C.3     1  UNL1        0.0939
     20 C           5.7673   -1.3414   27.9709 C.3     1  UNL1        0.4524
     21 F           5.7778   -0.6123   29.2817 F       1  UNL1       -0.1632
     22 F           5.4636   -0.0567   27.2588 F       1  UNL1       -0.1632
     23 F           6.0710   -2.6261   28.6831 F       1  UNL1       -0.1632
     24 C           8.3811   -8.5264   27.0840 C.2     1  UNL1        0.2237
     25 O           9.4713   -8.3962   28.1059 O.2     1  UNL1       -0.2751
     26 N           7.3886   -9.6467   27.1846 N.am    1  UNL1       -0.3040
     27 H           6.6730   -9.7322   26.5138 H       1  UNL1        0.1494
     28 C           7.4864  -10.6367   28.3072 C.3     1  UNL1        0.0941
     29 C           7.1106  -12.0706   28.0776 C.3     1  UNL1        0.0476
     30 C           5.6690  -12.4833   28.1150 C.ar    1  UNL1       -0.0204
     31 C           5.1020  -13.3283   27.0130 C.ar    1  UNL1       -0.0035
     32 C           3.6603  -13.7411   27.0503 C.ar    1  UNL1        0.0100
     33 C           2.7857  -13.3088   28.1897 C.ar    1  UNL1        0.0684
     34 C           3.3527  -12.4639   29.2917 C.ar    1  UNL1        0.0100
     35 C           4.7944  -12.0511   29.2543 C.ar    1  UNL1       -0.0035
     36 C           1.3441  -13.7216   28.2270 C.1     1  UNL1        0.1004
     37 N          -0.0975  -14.1344   28.2644 N.1     1  UNL1       -0.1908
@<TRIPOS>BOND
     1    13    14    1
     2    14    15    1
     3    15    16    1
     4    16    17    1
     5    17     7    1
     6     7     8   ar
     7     8     9   ar
     8     9     1    1
     9     1     2    1
    10     2     3    1
    11     3     4    1
    12     4     5    1
    13     5    24    1
    14    24    25    2
    15    24    26   am
    16    26    28    1
    17    28    29    1
    18    29    30    1
    19    30    31   ar
    20    31    32   ar
    21    32    33   ar
    22    33    36    1
    23    36    37    3
    24    33    34   ar
    25    34    35   ar
    26     5     6    1
    27     9    10   ar
    28    10    11   ar
    29    11    20    1
    30    20    21    1
    31    20    22    1
    32    20    23    1
    33    11    12   ar
    34    17    18    1
    35    18    19    1
    36    19    14    1
    37    12     7   ar
    38     6     1    1
    39    35    30   ar
    40    26    27    1
@<TRIPOS>MOLECULE
*****
 37 40 0 0 0
SMALL
GASTEIGER

@<TRIPOS>ATOM
      1 N           8.0207   -3.9953   24.5611 N.pl3   1  UNL1       -0.2926
      2 C           9.1890   -3.0870   24.3160 C.3     1  UNL1        0.0922
      3 C           9.3227   -2.3749   23.0025 C.3     1  UNL1        0.0220
      4 C           8.2882   -2.5712   21.9342 C.3     1  UNL1        0.0126
      5 C           7.1199   -3.4796   22.1794 C.3     1  UNL1        0.0963
      6 C           6.9862   -4.1916   23.4928 C.3     1  UNL1        0.1012
      7 C           7.2908   -4.6713   28.4030 C.ar    1  UNL1        0.1362
      8 C           7.4246   -3.9593   27.0896 C.ar    1  UNL1        0.0686
      9 C           7.8870   -4.7075   25.8745 C.ar    1  UNL1        0.1361
     10 N           8.2156   -6.1677   25.9728 N.ar    1  UNL1       -0.2083
     11 C           8.0818   -6.8797   27.2863 C.ar    1  UNL1        0.2374
     12 N           7.6194   -6.1315   28.5013 N.ar    1  UNL1       -0.2083
     13 C           5.4412   -1.6785   33.2632 C.3     1  UNL1        0.0897
     14 N           5.9036   -2.4267   32.0482 N.3     1  UNL1       -0.2686
     15 C           5.7953   -1.7949   30.6921 C.3     1  UNL1        0.0939
     16 C           6.2577   -2.5431   29.4770 C.3     1  UNL1        0.1095
     17 N           6.8284   -3.9231   29.6180 N.pl3   1  UNL1       -0.2903
     18 C           6.9366   -4.5549   30.9741 C.3     1  UNL1        0.1095
     19 C           6.4742   -3.8067   32.1892 C.3     1  UNL1        0.0939
     20 C           8.4104   -8.3400   27.3846 C.3     1  UNL1        0.4524
     21 F           8.7391   -9.8002   27.4830 F       1  UNL1       -0.1632
     22 F           8.0848   -8.5112   25.9305 F       1  UNL1       -0.1632
     23 F           8.7361   -8.1688   28.8388 F       1  UNL1       -0.1632
     24 C           6.0854   -3.6759   21.1111 C.2     1  UNL1        0.2237
     25 O           4.8186   -4.4169   21.4209 O.2     1  UNL1       -0.2751
     26 N           6.3178   -3.1311   19.7329 N.am    1  UNL1       -0.3040
     27 H           7.1492   -2.6447   19.5295 H       1  UNL1        0.1494
     28 C           5.2833   -3.3274   18.6646 C.3     1  UNL1        0.0941
     29 C           4.7490   -2.1452   17.9117 C.3     1  UNL1        0.0476
     30 C           3.6287   -1.3320   18.4893 C.ar    1  UNL1       -0.0204
     31 C           2.9653   -1.7668   19.7624 C.ar    1  UNL1       -0.0035
     32 C           1.8450   -0.9536   20.3400 C.ar    1  UNL1        0.0100
     33 C           1.3880    0.2943   19.6444 C.ar    1  UNL1        0.0684
     34 C           2.0513    0.7291   18.3713 C.ar    1  UNL1        0.0100
     35 C           3.1717   -0.0841   17.7937 C.ar    1  UNL1       -0.0035
     36 C           0.2676    1.1075   20.2220 C.1     1  UNL1        0.1004
     37 N          -0.8527    1.9206   20.7996 N.1     1  UNL1       -0.1908
@<TRIPOS>BOND
     1    13    14    1
     2    14    15    1
     3    15    16    1
     4    16    17    1
     5    17     7    1
     6     7     8   ar
     7     8     9   ar
     8     9     1    1
     9     1     2    1
    10     2     3    1
    11     3     4    1
    12     4     5    1
    13     5    24    1
    14    24    25    2
    15    24    26   am
    16    26    28    1
    17    28    29    1
    18    29    30    1
    19    30    31   ar
    20    31    32   ar
    21    32    33   ar
    22    33    36    1
    23    36    37    3
    24    33    34   ar
    25    34    35   ar
    26     5     6    1
    27     9    10   ar
    28    10    11   ar
    29    11    20    1
    30    20    21    1
    31    20    22    1
    32    20    23    1
    33    11    12   ar
    34    17    18    1
    35    18    19    1
    36    19    14    1
    37    12     7   ar
    38     6     1    1
    39    35    30   ar
    40    26    27    1
@<TRIPOS>MOLECULE
*****
 37 40 0 0 0
SMALL
GASTEIGER

@<TRIPOS>ATOM
      1 N           1.3411    2.9181   32.7812 N.pl3   1  UNL1       -0.2926
      2 C           0.4718    4.0839   32.4137 C.3     1  UNL1        0.0922
      3 C           0.2401    5.1879   33.4025 C.3     1  UNL1        0.0220
      4 C           0.8777    5.1259   34.7588 C.3     1  UNL1        0.0126
      5 C           1.7470    3.9600   35.1263 C.3     1  UNL1        0.0963
      6 C           1.9787    2.8561   34.1375 C.3     1  UNL1        0.1012
      7 C           2.9682   -0.2202   30.9774 C.ar    1  UNL1        0.1362
      8 C           2.7364    0.8837   31.9661 C.ar    1  UNL1        0.0686
      9 C           1.5728    1.8141   31.7924 C.ar    1  UNL1        0.1361
     10 N           0.6408    1.6406   30.6300 N.ar    1  UNL1       -0.2083
     11 C           0.8725    0.5367   29.6412 C.ar    1  UNL1        0.2374
     12 N           2.0362   -0.3937   29.8149 N.ar    1  UNL1       -0.2083
     13 C           7.6229   -3.9419   31.6722 C.3     1  UNL1        0.0897
     14 N           6.4592   -3.0115   31.4985 N.3     1  UNL1       -0.2686
     15 C           6.2900   -2.2535   30.2152 C.3     1  UNL1        0.0939
     16 C           5.1263   -1.3231   30.0415 C.3     1  UNL1        0.1095
     17 N           4.1318   -1.1506   31.1511 N.pl3   1  UNL1       -0.2903
     18 C           4.3010   -1.9086   32.4344 C.3     1  UNL1        0.1095
     19 C           5.4647   -2.8390   32.6081 C.3     1  UNL1        0.0939
     20 C          -0.0595    0.3632   28.4787 C.3     1  UNL1        0.4524
     21 F          -0.9914    0.1896   27.3163 F       1  UNL1       -0.1632
     22 F          -0.6740   -0.8294   29.1495 F       1  UNL1       -0.1632
     23 F           0.5551    1.5558   27.8079 F       1  UNL1       -0.1632
     24 C           2.3847    3.8980   36.4826 C.2     1  UNL1        0.2237
     25 O           3.2513    5.0270   36.9563 O.2     1  UNL1       -0.2751
     26 N           2.1557    2.7070   37.3653 N.am    1  UNL1       -0.3040
     27 H           1.5869    1.9660   37.0545 H       1  UNL1        0.1494
     28 C           2.7933    2.6450   38.7216 C.3     1  UNL1        0.0941
     29 C           4.0409    1.8381   38.9277 C.3     1  UNL1        0.0476
     30 C           4.8555    1.4017   37.7463 C.ar    1  UNL1       -0.0204
     31 C           6.0392    2.2134   37.3105 C.ar    1  UNL1       -0.0035
     32 C           6.8539    1.7770   36.1290 C.ar    1  UNL1        0.0100
     33 C           6.4849    0.5289   35.3834 C.ar    1  UNL1        0.0684
     34 C           5.3012   -0.2828   35.8192 C.ar    1  UNL1        0.0100
     35 C           4.4865    0.1536   37.0007 C.ar    1  UNL1       -0.0035
     36 C           7.2996    0.0924   34.2019 C.1     1  UNL1        0.1004
     37 N           8.1143   -0.3440   33.0205 N.1     1  UNL1       -0.1908
@<TRIPOS>BOND
     1    13    14    1
     2    14    15    1
     3    15    16    1
     4    16    17    1
     5    17     7    1
     6     7     8   ar
     7     8     9   ar
     8     9     1    1
     9     1     2    1
    10     2     3    1
    11     3     4    1
    12     4     5    1
    13     5    24    1
    14    24    25    2
    15    24    26   am
    16    26    28    1
    17    28    29    1
    18    29    30    1
    19    30    31   ar
    20    31    32   ar
    21    32    33   ar
    22    33    36    1
    23    36    37    3
    24    33    34   ar
    25    34    35   ar
    26     5     6    1
    27     9    10   ar
    28    10    11   ar
    29    11    20    1
    30    20    21    1
    31    20    22    1
    32    20    23    1
    33    11    12   ar
    34    17    18    1
    35    18    19    1
    36    19    14    1
    37    12     7   ar
    38     6     1    1
    39    35    30   ar
    40    26    27    1
@<TRIPOS>MOLECULE
*****
 37 40 0 0 0
SMALL
GASTEIGER

@<TRIPOS>ATOM
      1 N           7.5895   -3.8418   24.5642 N.pl3   1  UNL1       -0.2926
      2 C           9.0423   -3.9266   24.2009 C.3     1  UNL1        0.0922
      3 C           9.4521   -3.9999   22.7598 C.3     1  UNL1        0.0220
      4 C           8.4089   -3.9884   21.6820 C.3     1  UNL1        0.0126
      5 C           6.9560   -3.9035   22.0453 C.3     1  UNL1        0.0963
      6 C           6.5463   -3.8302   23.4864 C.3     1  UNL1        0.1012
      7 C           5.8034   -2.6411   27.8986 C.ar    1  UNL1        0.1362
      8 C           6.2131   -2.7144   26.4575 C.ar    1  UNL1        0.0686
      9 C           7.1797   -3.7685   26.0053 C.ar    1  UNL1        0.1361
     10 N           7.7366   -4.7493   26.9942 N.ar    1  UNL1       -0.2083
     11 C           7.3268   -4.6760   28.4352 C.ar    1  UNL1        0.2374
     12 N           6.3602   -3.6219   28.8874 N.ar    1  UNL1       -0.2083
     13 C           1.9369    1.5754   29.7074 C.3     1  UNL1        0.0897
     14 N           2.9035    0.5213   29.2552 N.3     1  UNL1       -0.2686
     15 C           4.1306    0.2308   30.0675 C.3     1  UNL1        0.0939
     16 C           5.0972   -0.8234   29.6153 C.3     1  UNL1        0.1095
     17 N           4.8368   -1.5870   28.3508 N.pl3   1  UNL1       -0.2903
     18 C           3.6097   -1.2964   27.5385 C.3     1  UNL1        0.1095
     19 C           2.6431   -0.2423   27.9907 C.3     1  UNL1        0.0939
     20 C           7.8837   -5.6569   29.4242 C.3     1  UNL1        0.4524
     21 F           8.4406   -6.6376   30.4130 F       1  UNL1       -0.1632
     22 F           9.2445   -5.5004   28.8130 F       1  UNL1       -0.1632
     23 F           6.5229   -5.8133   30.0354 F       1  UNL1       -0.1632
     24 C           5.9128   -3.8920   20.9675 C.2     1  UNL1        0.2237
     25 O           4.5553   -4.4727   21.2314 O.2     1  UNL1       -0.2751
     26 N           6.2273   -3.2996   19.6257 N.am    1  UNL1       -0.3040
     27 H           7.1183   -2.9184   19.4525 H       1  UNL1        0.1494
     28 C           5.1841   -3.2880   18.5479 C.3     1  UNL1        0.0941
     29 C           4.7713   -1.9910   17.9176 C.3     1  UNL1        0.0476
     30 C           3.6341   -1.2036   18.4980 C.ar    1  UNL1       -0.0204
     31 C           3.1635    0.0473   17.8171 C.ar    1  UNL1       -0.0035
     32 C           2.0264    0.8348   18.3974 C.ar    1  UNL1        0.0100
     33 C           1.3599    0.3714   19.6587 C.ar    1  UNL1        0.0684
     34 C           1.8305   -0.8795   20.3397 C.ar    1  UNL1        0.0100
     35 C           2.9676   -1.6670   19.7593 C.ar    1  UNL1       -0.0035
     36 C           0.2228    1.1588   20.2391 C.1     1  UNL1        0.1004
     37 N          -0.9144    1.9463   20.8195 N.1     1  UNL1       -0.1908
@<TRIPOS>BOND
     1    13    14    1
     2    14    15    1
     3    15    16    1
     4    16    17    1
     5    17     7    1
     6     7     8   ar
     7     8     9   ar
     8     9     1    1
     9     1     2    1
    10     2     3    1
    11     3     4    1
    12     4     5    1
    13     5    24    1
    14    24    25    2
    15    24    26   am
    16    26    28    1
    17    28    29    1
    18    29    30    1
    19    30    31   ar
    20    31    32   ar
    21    32    33   ar
    22    33    36    1
    23    36    37    3
    24    33    34   ar
    25    34    35   ar
    26     5     6    1
    27     9    10   ar
    28    10    11   ar
    29    11    20    1
    30    20    21    1
    31    20    22    1
    32    20    23    1
    33    11    12   ar
    34    17    18    1
    35    18    19    1
    36    19    14    1
    37    12     7   ar
    38     6     1    1
    39    35    30   ar
    40    26    27    1
@<TRIPOS>MOLECULE
*****
 37 40 0 0 0
SMALL
GASTEIGER

@<TRIPOS>ATOM
      1 N           4.3732   -0.9142   29.3259 N.pl3   1  UNL1       -0.2926
      2 C           5.2843   -1.6321   30.2769 C.3     1  UNL1        0.0922
      3 C           6.4428   -2.4263   29.7504 C.3     1  UNL1        0.0220
      4 C           6.6902   -2.5024   28.2729 C.3     1  UNL1        0.0126
      5 C           5.7791   -1.7843   27.3219 C.3     1  UNL1        0.0963
      6 C           4.6206   -0.9903   27.8484 C.3     1  UNL1        0.1012
      7 C           2.1553    1.3499   31.7144 C.ar    1  UNL1        0.1362
      8 C           3.3138    0.5558   31.1879 C.ar    1  UNL1        0.0686
      9 C           3.2146   -0.1200   29.8524 C.ar    1  UNL1        0.1361
     10 N           1.9570   -0.0017   29.0435 N.ar    1  UNL1       -0.2083
     11 C           0.7986    0.7924   29.5700 C.ar    1  UNL1        0.2374
     12 N           0.8977    1.4682   30.9055 N.ar    1  UNL1       -0.2083
     13 C           2.5518    4.0533   37.0562 C.3     1  UNL1        0.0897
     14 N           2.4527    3.3774   35.7207 N.3     1  UNL1       -0.2686
     15 C           3.1964    2.0992   35.4700 C.3     1  UNL1        0.0939
     16 C           3.0972    1.4234   34.1346 C.3     1  UNL1        0.1095
     17 N           2.2544    2.0258   33.0498 N.pl3   1  UNL1       -0.2903
     18 C           1.5107    3.3040   33.3006 C.3     1  UNL1        0.1095
     19 C           1.6098    3.9799   34.6360 C.3     1  UNL1        0.0939
     20 C          -0.4591    0.9107   28.7611 C.3     1  UNL1        0.4524
     21 F          -1.7168    1.0290   27.9522 F       1  UNL1       -0.1632
     22 F          -1.1275   -0.0926   29.6536 F       1  UNL1       -0.1632
     23 F           0.2092    1.9140   27.8686 F       1  UNL1       -0.1632
     24 C           6.0265   -1.8605   25.8444 C.2     1  UNL1        0.2237
     25 O           6.3979   -0.6236   25.0814 O.2     1  UNL1       -0.2751
     26 N           5.9025   -3.1735   25.1298 N.am    1  UNL1       -0.3040
     27 H           5.6587   -3.9854   25.6306 H       1  UNL1        0.1494
     28 C           6.1499   -3.2496   23.6523 C.3     1  UNL1        0.0941
     29 C           5.1041   -3.8277   22.7456 C.3     1  UNL1        0.0476
     30 C           4.2614   -2.9207   21.8986 C.ar    1  UNL1       -0.0204
     31 C           4.0460   -3.2352   20.4479 C.ar    1  UNL1       -0.0035
     32 C           3.2033   -2.3283   19.6010 C.ar    1  UNL1        0.0100
     33 C           2.5760   -1.1069   20.2048 C.ar    1  UNL1        0.0684
     34 C           2.7914   -0.7924   21.6555 C.ar    1  UNL1        0.0100
     35 C           3.6341   -1.6993   22.5024 C.ar    1  UNL1       -0.0035
     36 C           1.7333   -0.1999   19.3578 C.1     1  UNL1        0.1004
     37 N           0.8906    0.7070   18.5109 N.1     1  UNL1       -0.1908
@<TRIPOS>BOND
     1    13    14    1
     2    14    15    1
     3    15    16    1
     4    16    17    1
     5    17     7    1
     6     7     8   ar
     7     8     9   ar
     8     9     1    1
     9     1     2    1
    10     2     3    1
    11     3     4    1
    12     4     5    1
    13     5    24    1
    14    24    25    2
    15    24    26   am
    16    26    28    1
    17    28    29    1
    18    29    30    1
    19    30    31   ar
    20    31    32   ar
    21    32    33   ar
    22    33    36    1
    23    36    37    3
    24    33    34   ar
    25    34    35   ar
    26     5     6    1
    27     9    10   ar
    28    10    11   ar
    29    11    20    1
    30    20    21    1
    31    20    22    1
    32    20    23    1
    33    11    12   ar
    34    17    18    1
    35    18    19    1
    36    19    14    1
    37    12     7   ar
    38     6     1    1
    39    35    30   ar
    40    26    27    1
