@<TRIPOS>MOLECULE
*****
 24 27 0 0 0
SMALL
GASTEIGER

@<TRIPOS>ATOM
      1 C          -9.6569  -18.1346   21.3343 C.3     1  UNL1        0.0886
      2 C         -10.6255  -18.5618   20.2716 C.3     1  UNL1        0.0885
      3 N         -11.7849  -17.6794   19.9151 N.3     1  UNL1       -0.2947
      4 C         -11.9757  -16.3698   20.6212 C.3     1  UNL1        0.0903
      5 C         -11.0070  -15.9427   21.6840 C.3     1  UNL1        0.1076
      6 N          -9.8477  -16.8251   22.0405 N.pl3   1  UNL1       -0.3093
      7 H         -12.6310  -18.2261   20.0748 H       1  UNL1        0.1233
      8 C          -8.8790  -16.3980   23.1032 C.2     1  UNL1        0.0295
      9 C          -7.5913  -15.7311   22.7201 C.2     1  UNL1        0.0120
     10 C          -6.6226  -15.3040   23.7828 C.2     1  UNL1        0.0216
     11 C          -6.9418  -15.5439   25.2287 C.2     1  UNL1        0.1008
     12 N          -6.1872  -15.2350   26.4877 N.2     1  UNL1       -0.1482
     13 N          -7.0086  -15.7111   27.6490 N.2     1  UNL1       -0.1467
     14 C          -8.2709  -16.3142   27.1077 C.2     1  UNL1        0.1198
     15 C          -8.2296  -16.2109   25.6118 C.2     1  UNL1        0.0238
     16 C          -9.1982  -16.6379   24.5491 C.3     1  UNL1        0.0705
     17 C          -8.4974  -19.0171   21.6908 C.3     1  UNL1        0.0258
     18 C          -7.4657  -19.3547   20.6556 C.3     1  UNL1        0.0281
     19 C          -3.1146  -19.5316   21.7898 C.ar    1  UNL1       -0.0000
     20 C          -3.5869  -20.1838   20.5242 C.ar    1  UNL1       -0.0003
     21 C          -5.0372  -20.1248   20.1462 C.ar    1  UNL1       -0.0043
     22 C          -6.0153  -19.4137   21.0337 C.ar    1  UNL1       -0.0221
     23 C          -5.5431  -18.7615   22.2992 C.ar    1  UNL1       -0.0043
     24 C          -4.0927  -18.8205   22.6773 C.ar    1  UNL1       -0.0003
@<TRIPOS>BOND
     1    19    20   ar
     2    20    21   ar
     3    21    22   ar
     4    22    18    1
     5    18    17    1
     6    17     1    1
     7     1     2    1
     8     2     3    1
     9     3     4    1
    10     4     5    1
    11     5     6    1
    12     6     8    1
    13     8     9    2
    14     9    10    1
    15    10    11    2
    16    11    12    1
    17    12    13    2
    18    13    14    1
    19    14    15    2
    20    15    16    1
    21    22    23   ar
    22    23    24   ar
    23    24    19   ar
    24     6     1    1
    25    16     8    1
    26    15    11    1
    27     3     7    1
@<TRIPOS>MOLECULE
*****
 24 27 0 0 0
SMALL
GASTEIGER

@<TRIPOS>ATOM
      1 C          -8.1785  -18.1312   21.4778 C.3     1  UNL1        0.0886
      2 C          -9.6608  -18.0320   21.2702 C.3     1  UNL1        0.0885
      3 N         -10.3204  -18.8256   20.1816 N.3     1  UNL1       -0.2947
      4 C          -9.4978  -19.7185   19.3007 C.3     1  UNL1        0.0903
      5 C          -8.0155  -19.8177   19.5084 C.3     1  UNL1        0.1076
      6 N          -7.3560  -19.0241   20.5969 N.pl3   1  UNL1       -0.3093
      7 H         -10.7857  -18.1556   19.5693 H       1  UNL1        0.1233
      8 C          -5.8737  -19.1233   20.8046 C.2     1  UNL1        0.0295
      9 C          -5.3311  -19.6242   22.1101 C.2     1  UNL1        0.0120
     10 C          -3.8488  -19.7234   22.3178 C.2     1  UNL1        0.0216
     11 C          -2.9092  -19.3216   21.2198 C.2     1  UNL1        0.1008
     12 N          -1.4117  -19.3103   21.1344 N.2     1  UNL1       -0.1482
     13 N          -1.0287  -18.8024   19.7760 N.2     1  UNL1       -0.1467
     14 C          -2.2896  -18.4998   19.0218 C.2     1  UNL1        0.1198
     15 C          -3.4518  -18.8207   19.9142 C.2     1  UNL1        0.0238
     16 C          -4.9340  -18.7216   19.7066 C.3     1  UNL1        0.0705
     17 C          -7.5190  -17.3375   22.5665 C.3     1  UNL1        0.0258
     18 C          -8.3393  -16.4327   23.4373 C.3     1  UNL1        0.0281
     19 C          -6.7549  -15.1175   27.4385 C.ar    1  UNL1       -0.0000
     20 C          -8.1934  -15.5183   27.2964 C.ar    1  UNL1       -0.0003
     21 C          -8.7215  -15.9567   25.9627 C.ar    1  UNL1       -0.0043
     22 C          -7.8112  -15.9943   24.7711 C.ar    1  UNL1       -0.0221
     23 C          -6.3727  -15.5936   24.9132 C.ar    1  UNL1       -0.0043
     24 C          -5.8445  -15.1552   26.2470 C.ar    1  UNL1       -0.0003
@<TRIPOS>BOND
     1    19    20   ar
     2    20    21   ar
     3    21    22   ar
     4    22    18    1
     5    18    17    1
     6    17     1    1
     7     1     2    1
     8     2     3    1
     9     3     4    1
    10     4     5    1
    11     5     6    1
    12     6     8    1
    13     8     9    2
    14     9    10    1
    15    10    11    2
    16    11    12    1
    17    12    13    2
    18    13    14    1
    19    14    15    2
    20    15    16    1
    21    22    23   ar
    22    23    24   ar
    23    24    19   ar
    24     6     1    1
    25    16     8    1
    26    15    11    1
    27     3     7    1
@<TRIPOS>MOLECULE
*****
 24 27 0 0 0
SMALL
GASTEIGER

@<TRIPOS>ATOM
      1 C          -8.7304  -17.7488   22.6830 C.3     1  UNL1        0.0886
      2 C         -10.1119  -17.5733   23.2405 C.3     1  UNL1        0.0885
      3 N         -10.8480  -18.7517   23.8055 N.3     1  UNL1       -0.2947
      4 C         -10.2027  -20.1058   23.8131 C.3     1  UNL1        0.0903
      5 C          -8.8212  -20.2813   23.2556 C.3     1  UNL1        0.1076
      6 N          -8.0851  -19.1029   22.6906 N.pl3   1  UNL1       -0.3093
      7 H         -11.7136  -18.8410   23.2733 H       1  UNL1        0.1233
      8 C          -6.7036  -19.2784   22.1331 C.2     1  UNL1        0.0295
      9 C          -6.4822  -20.1630   20.9422 C.2     1  UNL1        0.0120
     10 C          -5.1007  -20.3385   20.3847 C.2     1  UNL1        0.0216
     11 C          -3.9407  -19.6293   21.0182 C.2     1  UNL1        0.1008
     12 N          -2.4768  -19.6096   20.6919 N.2     1  UNL1       -0.1482
     13 N          -1.7934  -18.7128   21.6812 N.2     1  UNL1       -0.1467
     14 C          -2.8350  -18.1782   22.6189 C.2     1  UNL1        0.1198
     15 C          -4.1621  -18.7446   22.2092 C.2     1  UNL1        0.0238
     16 C          -5.5436  -18.5692   22.7666 C.3     1  UNL1        0.0705
     17 C          -7.9944  -16.5702   22.1180 C.3     1  UNL1        0.0258
     18 C          -7.8647  -15.3109   22.9225 C.3     1  UNL1        0.0281
     19 C          -6.5406  -15.5116   27.2185 C.ar    1  UNL1       -0.0000
     20 C          -5.5200  -15.4885   26.1195 C.ar    1  UNL1       -0.0003
     21 C          -5.9614  -15.4216   24.6874 C.ar    1  UNL1       -0.0043
     22 C          -7.4233  -15.3778   24.3545 C.ar    1  UNL1       -0.0221
     23 C          -8.4439  -15.4009   25.4535 C.ar    1  UNL1       -0.0043
     24 C          -8.0026  -15.4678   26.8856 C.ar    1  UNL1       -0.0003
@<TRIPOS>BOND
     1    19    20   ar
     2    20    21   ar
     3    21    22   ar
     4    22    18    1
     5    18    17    1
     6    17     1    1
     7     1     2    1
     8     2     3    1
     9     3     4    1
    10     4     5    1
    11     5     6    1
    12     6     8    1
    13     8     9    2
    14     9    10    1
    15    10    11    2
    16    11    12    1
    17    12    13    2
    18    13    14    1
    19    14    15    2
    20    15    16    1
    21    22    23   ar
    22    23    24   ar
    23    24    19   ar
    24     6     1    1
    25    16     8    1
    26    15    11    1
    27     3     7    1
@<TRIPOS>MOLECULE
*****
 24 27 0 0 0
SMALL
GASTEIGER

@<TRIPOS>ATOM
      1 C          -6.5042  -15.9793   24.7588 C.3     1  UNL1        0.0886
      2 C          -5.7927  -15.3437   25.9163 C.3     1  UNL1        0.0885
      3 N          -6.5516  -14.9920   27.1615 N.3     1  UNL1       -0.2947
      4 C          -8.0218  -15.2759   27.2492 C.3     1  UNL1        0.0903
      5 C          -8.7332  -15.9116   26.0916 C.3     1  UNL1        0.1076
      6 N          -7.9744  -16.2632   24.8465 N.pl3   1  UNL1       -0.3093
      7 H          -6.4365  -13.9884   27.3029 H       1  UNL1        0.1233
      8 C          -8.6858  -16.8988   23.6889 C.2     1  UNL1        0.0295
      9 C          -8.5612  -18.3744   23.4506 C.2     1  UNL1        0.0120
     10 C          -9.2726  -19.0100   22.2930 C.2     1  UNL1        0.0216
     11 C         -10.1087  -18.1698   21.3737 C.2     1  UNL1        0.1008
     12 N         -10.9198  -18.5135   20.1597 N.2     1  UNL1       -0.1482
     13 N         -11.5459  -17.2502   19.6477 N.2     1  UNL1       -0.1467
     14 C         -11.1216  -16.1258   20.5453 C.2     1  UNL1        0.1198
     15 C         -10.2333  -16.6941   21.6120 C.2     1  UNL1        0.0238
     16 C          -9.5219  -16.0586   22.7696 C.3     1  UNL1        0.0705
     17 C          -5.7453  -16.3309   23.5136 C.3     1  UNL1        0.0258
     18 C          -4.4756  -17.1240   23.6078 C.3     1  UNL1        0.0281
     19 C          -3.5709  -20.2946   20.5454 C.ar    1  UNL1       -0.0000
     20 C          -2.4491  -19.5715   21.2301 C.ar    1  UNL1       -0.0003
     21 C          -2.7507  -18.5146   22.2509 C.ar    1  UNL1       -0.0043
     22 C          -4.1740  -18.1809   22.5870 C.ar    1  UNL1       -0.0221
     23 C          -5.2957  -18.9040   21.9023 C.ar    1  UNL1       -0.0043
     24 C          -4.9941  -19.9609   20.8814 C.ar    1  UNL1       -0.0003
@<TRIPOS>BOND
     1    19    20   ar
     2    20    21   ar
     3    21    22   ar
     4    22    18    1
     5    18    17    1
     6    17     1    1
     7     1     2    1
     8     2     3    1
     9     3     4    1
    10     4     5    1
    11     5     6    1
    12     6     8    1
    13     8     9    2
    14     9    10    1
    15    10    11    2
    16    11    12    1
    17    12    13    2
    18    13    14    1
    19    14    15    2
    20    15    16    1
    21    22    23   ar
    22    23    24   ar
    23    24    19   ar
    24     6     1    1
    25    16     8    1
    26    15    11    1
    27     3     7    1
@<TRIPOS>MOLECULE
*****
 24 27 0 0 0
SMALL
GASTEIGER

@<TRIPOS>ATOM
      1 C         -10.3639  -18.8082   22.4482 C.3     1  UNL1        0.0886
      2 C         -11.8181  -18.4405   22.4352 C.3     1  UNL1        0.0885
      3 N         -12.4273  -17.8335   21.2062 N.3     1  UNL1       -0.2947
      4 C         -11.5823  -17.5941   19.9902 C.3     1  UNL1        0.0903
      5 C         -10.1281  -17.9619   20.0032 C.3     1  UNL1        0.1076
      6 N          -9.5190  -18.5689   21.2322 N.pl3   1  UNL1       -0.3093
      7 H         -12.8084  -16.9287   21.4827 H       1  UNL1        0.1233
      8 C          -8.0647  -18.9366   21.2452 C.2     1  UNL1        0.0295
      9 C          -7.5595  -20.0299   20.3512 C.2     1  UNL1        0.0120
     10 C          -6.1053  -20.3976   20.3642 C.2     1  UNL1        0.0216
     11 C          -5.1564  -19.6719   21.2714 C.2     1  UNL1        0.1008
     12 N          -3.6807  -19.8133   21.5004 N.2     1  UNL1       -0.1482
     13 N          -3.2740  -18.8073   22.5360 N.2     1  UNL1       -0.1467
     14 C          -4.4982  -18.0442   22.9471 C.2     1  UNL1        0.1198
     15 C          -5.6616  -18.5786   22.1655 C.2     1  UNL1        0.0238
     16 C          -7.1158  -18.2110   22.1524 C.3     1  UNL1        0.0705
     17 C          -9.7548  -19.4153   23.6772 C.3     1  UNL1        0.0258
     18 C         -10.0561  -18.8365   25.0279 C.3     1  UNL1        0.0281
     19 C          -7.8770  -15.1603   26.4375 C.ar    1  UNL1       -0.0000
     20 C          -8.2600  -15.2977   24.9936 C.ar    1  UNL1       -0.0003
     21 C          -8.9864  -16.5231   24.5238 C.ar    1  UNL1       -0.0043
     22 C          -9.3297  -17.6111   25.4977 C.ar    1  UNL1       -0.0221
     23 C          -8.9467  -17.4737   26.9414 C.ar    1  UNL1       -0.0043
     24 C          -8.2203  -16.2483   27.4113 C.ar    1  UNL1       -0.0003
@<TRIPOS>BOND
     1    19    20   ar
     2    20    21   ar
     3    21    22   ar
     4    22    18    1
     5    18    17    1
     6    17     1    1
     7     1     2    1
     8     2     3    1
     9     3     4    1
    10     4     5    1
    11     5     6    1
    12     6     8    1
    13     8     9    2
    14     9    10    1
    15    10    11    2
    16    11    12    1
    17    12    13    2
    18    13    14    1
    19    14    15    2
    20    15    16    1
    21    22    23   ar
    22    23    24   ar
    23    24    19   ar
    24     6     1    1
    25    16     8    1
    26    15    11    1
    27     3     7    1
@<TRIPOS>MOLECULE
*****
 24 27 0 0 0
SMALL
GASTEIGER

@<TRIPOS>ATOM
      1 C         -14.3920   -8.2358   17.8703 C.3     1  UNL1        0.0886
      2 C         -14.9263   -9.6373   17.8946 C.3     1  UNL1        0.0885
      3 N         -16.0321  -10.0021   18.8402 N.3     1  UNL1       -0.2947
      4 C         -16.6037   -8.9655   19.7614 C.3     1  UNL1        0.0903
      5 C         -16.0694   -7.5640   19.7371 C.3     1  UNL1        0.1076
      6 N         -14.9637   -7.1992   18.7916 N.pl3   1  UNL1       -0.3093
      7 H         -15.6792  -10.7567   19.4288 H       1  UNL1        0.1233
      8 C         -14.4294   -5.7978   18.7672 C.2     1  UNL1        0.0295
      9 C         -13.6669   -5.2652   19.9440 C.2     1  UNL1        0.0120
     10 C         -13.1326   -3.8638   19.9197 C.2     1  UNL1        0.0216
     11 C         -13.3609   -2.9949   18.7184 C.2     1  UNL1        0.1008
     12 N         -12.9573   -1.5838   18.4091 N.2     1  UNL1       -0.1482
     13 N         -13.4703   -1.2442   17.0411 N.2     1  UNL1       -0.1467
     14 C         -14.1911   -2.4455   16.5049 C.2     1  UNL1        0.1198
     15 C         -14.1234   -3.5275   17.5416 C.2     1  UNL1        0.0238
     16 C         -14.6577   -4.9289   17.5660 C.3     1  UNL1        0.0705
     17 C         -13.2862   -7.8711   16.9247 C.3     1  UNL1        0.0258
     18 C         -11.8675   -7.8295   17.4100 C.3     1  UNL1        0.0281
     19 C          -9.7394   -3.8843   17.8050 C.ar    1  UNL1       -0.0000
     20 C         -10.5093   -4.1994   16.5568 C.ar    1  UNL1       -0.0003
     21 C         -11.2187   -5.5145   16.4252 C.ar    1  UNL1       -0.0043
     22 C         -11.1581   -6.5144   17.5416 C.ar    1  UNL1       -0.0221
     23 C         -10.3882   -6.1992   18.7898 C.ar    1  UNL1       -0.0043
     24 C          -9.6788   -4.8841   18.9215 C.ar    1  UNL1       -0.0003
@<TRIPOS>BOND
     1    19    20   ar
     2    20    21   ar
     3    21    22   ar
     4    22    18    1
     5    18    17    1
     6    17     1    1
     7     1     2    1
     8     2     3    1
     9     3     4    1
    10     4     5    1
    11     5     6    1
    12     6     8    1
    13     8     9    2
    14     9    10    1
    15    10    11    2
    16    11    12    1
    17    12    13    2
    18    13    14    1
    19    14    15    2
    20    15    16    1
    21    22    23   ar
    22    23    24   ar
    23    24    19   ar
    24     6     1    1
    25    16     8    1
    26    15    11    1
    27     3     7    1
@<TRIPOS>MOLECULE
*****
 24 27 0 0 0
SMALL
GASTEIGER

@<TRIPOS>ATOM
      1 C         -11.4676   -6.5901   17.1735 C.3     1  UNL1        0.0886
      2 C         -10.9945   -8.0096   17.0668 C.3     1  UNL1        0.0885
      3 N          -9.9055   -8.5071   17.9704 N.3     1  UNL1       -0.2947
      4 C          -9.2895   -7.5852   18.9807 C.3     1  UNL1        0.0903
      5 C          -9.7627   -6.1657   19.0874 C.3     1  UNL1        0.1076
      6 N         -10.8516   -5.6682   18.1838 N.pl3   1  UNL1       -0.3093
      7 H          -9.1489   -8.8320   17.3684 H       1  UNL1        0.1233
      8 C         -11.3248   -4.2488   18.2905 C.2     1  UNL1        0.0295
      9 C         -12.3951   -3.8871   19.2771 C.2     1  UNL1        0.0120
     10 C         -12.8682   -2.4676   19.3838 C.2     1  UNL1        0.0216
     11 C         -12.2709   -1.4099   18.5037 C.2     1  UNL1        0.1008
     12 N         -12.5335    0.0621   18.3840 N.2     1  UNL1       -0.1482
     13 N         -11.6255    0.6101   17.3233 N.2     1  UNL1       -0.1467
     14 C         -10.8016   -0.5232   16.7875 C.2     1  UNL1        0.1198
     15 C         -11.2006   -1.7716   17.5171 C.2     1  UNL1        0.0238
     16 C         -10.7275   -3.1911   17.4104 C.3     1  UNL1        0.0705
     17 C         -12.5567   -6.0926   16.2699 C.3     1  UNL1        0.0258
     18 C         -13.7962   -6.9127   16.0672 C.3     1  UNL1        0.0281
     19 C         -16.2583   -8.1833   19.6130 C.ar    1  UNL1       -0.0000
     20 C         -15.6501   -9.2177   18.7129 C.ar    1  UNL1       -0.0003
     21 C         -14.8294   -8.7941   17.5309 C.ar    1  UNL1       -0.0043
     22 C         -14.6169   -7.3363   17.2491 C.ar    1  UNL1       -0.0221
     23 C         -15.2250   -6.3019   18.1492 C.ar    1  UNL1       -0.0043
     24 C         -16.0457   -6.7254   19.3312 C.ar    1  UNL1       -0.0003
@<TRIPOS>BOND
     1    19    20   ar
     2    20    21   ar
     3    21    22   ar
     4    22    18    1
     5    18    17    1
     6    17     1    1
     7     1     2    1
     8     2     3    1
     9     3     4    1
    10     4     5    1
    11     5     6    1
    12     6     8    1
    13     8     9    2
    14     9    10    1
    15    10    11    2
    16    11    12    1
    17    12    13    2
    18    13    14    1
    19    14    15    2
    20    15    16    1
    21    22    23   ar
    22    23    24   ar
    23    24    19   ar
    24     6     1    1
    25    16     8    1
    26    15    11    1
    27     3     7    1
@<TRIPOS>MOLECULE
*****
 24 27 0 0 0
SMALL
GASTEIGER

@<TRIPOS>ATOM
      1 C         -15.2626   -2.7586   19.5463 C.3     1  UNL1        0.0886
      2 C         -15.5635   -1.3173   19.8326 C.3     1  UNL1        0.0885
      3 N         -16.7607   -0.6628   19.2095 N.3     1  UNL1       -0.2947
      4 C         -17.6571   -1.4497   18.2999 C.3     1  UNL1        0.0903
      5 C         -17.3562   -2.8911   18.0136 C.3     1  UNL1        0.1076
      6 N         -16.1590   -3.5455   18.6367 N.pl3   1  UNL1       -0.3093
      7 H         -16.4148    0.1297   18.6685 H       1  UNL1        0.1233
      8 C         -15.8581   -4.9869   18.3504 C.2     1  UNL1        0.0295
      9 C         -15.1342   -5.3665   17.0927 C.2     1  UNL1        0.0120
     10 C         -14.8333   -6.8079   16.8064 C.2     1  UNL1        0.0216
     11 C         -15.2563   -7.8696   17.7778 C.2     1  UNL1        0.1008
     12 N         -15.0997   -9.3613   17.7653 N.2     1  UNL1       -0.1482
     13 N         -15.7268   -9.9037   19.0154 N.2     1  UNL1       -0.1467
     14 C         -16.2710   -8.7471   19.8004 C.2     1  UNL1        0.1198
     15 C         -15.9802   -7.4900   19.0355 C.2     1  UNL1        0.0238
     16 C         -16.2811   -6.0486   19.3218 C.3     1  UNL1        0.0705
     17 C         -14.0653   -3.4130   20.1695 C.3     1  UNL1        0.0258
     18 C         -12.6999   -3.1840   19.5922 C.3     1  UNL1        0.0281
     19 C         -10.1550   -6.6898   18.3747 C.ar    1  UNL1       -0.0000
     20 C          -9.6198   -5.2943   18.2471 C.ar    1  UNL1       -0.0003
     21 C         -10.4681   -4.1257   18.6529 C.ar    1  UNL1       -0.0043
     22 C         -11.8516   -4.3526   19.1864 C.ar    1  UNL1       -0.0221
     23 C         -12.3868   -5.7480   19.3139 C.ar    1  UNL1       -0.0043
     24 C         -11.5385   -6.9167   18.9081 C.ar    1  UNL1       -0.0003
@<TRIPOS>BOND
     1    19    20   ar
     2    20    21   ar
     3    21    22   ar
     4    22    18    1
     5    18    17    1
     6    17     1    1
     7     1     2    1
     8     2     3    1
     9     3     4    1
    10     4     5    1
    11     5     6    1
    12     6     8    1
    13     8     9    2
    14     9    10    1
    15    10    11    2
    16    11    12    1
    17    12    13    2
    18    13    14    1
    19    14    15    2
    20    15    16    1
    21    22    23   ar
    22    23    24   ar
    23    24    19   ar
    24     6     1    1
    25    16     8    1
    26    15    11    1
    27     3     7    1
@<TRIPOS>MOLECULE
*****
 24 27 0 0 0
SMALL
GASTEIGER

@<TRIPOS>ATOM
      1 C         -12.4872   -1.5403   17.4889 C.3     1  UNL1        0.0886
      2 C         -12.3447   -0.0528   17.3592 C.3     1  UNL1        0.0885
      3 N         -13.3300    0.8565   18.0318 N.3     1  UNL1       -0.2947
      4 C         -14.4577    0.2783   18.8341 C.3     1  UNL1        0.0903
      5 C         -14.6002   -1.2093   18.9638 C.3     1  UNL1        0.1076
      6 N         -13.6149   -2.1186   18.2912 N.pl3   1  UNL1       -0.3093
      7 H         -13.7521    1.4269   17.2990 H       1  UNL1        0.1233
      8 C         -13.7574   -3.6062   18.4209 C.2     1  UNL1        0.0295
      9 C         -13.2761   -4.3005   19.6603 C.2     1  UNL1        0.0120
     10 C         -13.4186   -5.7882   19.7900 C.2     1  UNL1        0.0216
     11 C         -14.0423   -6.5814   18.6802 C.2     1  UNL1        0.1008
     12 N         -14.3143   -8.0483   18.5250 N.2     1  UNL1       -0.1482
     13 N         -14.9637   -8.2606   17.1896 N.2     1  UNL1       -0.1467
     14 C         -15.0931   -6.9248   16.5195 C.2     1  UNL1        0.1198
     15 C         -14.5236   -5.8870   17.4407 C.2     1  UNL1        0.0238
     16 C         -14.3811   -4.3994   17.3111 C.3     1  UNL1        0.0705
     17 C         -11.5018   -2.4496   16.8162 C.3     1  UNL1        0.0258
     18 C         -10.3807   -3.0566   17.6065 C.3     1  UNL1        0.0281
     19 C         -10.1714   -7.5183   18.1534 C.ar    1  UNL1       -0.0000
     20 C         -10.8233   -6.9423   16.9313 C.ar    1  UNL1       -0.0003
     21 C         -10.8930   -5.4550   16.7490 C.ar    1  UNL1       -0.0043
     22 C         -10.3109   -4.5439   17.7887 C.ar    1  UNL1       -0.0221
     23 C          -9.6592   -5.1199   19.0107 C.ar    1  UNL1       -0.0043
     24 C          -9.5894   -6.6071   19.1931 C.ar    1  UNL1       -0.0003
@<TRIPOS>BOND
     1    19    20   ar
     2    20    21   ar
     3    21    22   ar
     4    22    18    1
     5    18    17    1
     6    17     1    1
     7     1     2    1
     8     2     3    1
     9     3     4    1
    10     4     5    1
    11     5     6    1
    12     6     8    1
    13     8     9    2
    14     9    10    1
    15    10    11    2
    16    11    12    1
    17    12    13    2
    18    13    14    1
    19    14    15    2
    20    15    16    1
    21    22    23   ar
    22    23    24   ar
    23    24    19   ar
    24     6     1    1
    25    16     8    1
    26    15    11    1
    27     3     7    1
