@<TRIPOS>MOLECULE
*****
 32 35 0 0 0
SMALL
GASTEIGER

@<TRIPOS>ATOM
      1 C          -8.7183  -18.2380   21.0797 C.ar    1  UNL1        0.0951
      2 C          -9.5403  -18.7980   19.9570 C.ar    1  UNL1        0.1454
      3 F         -10.9270  -18.2809   19.7124 F       1  UNL1       -0.2040
      4 C          -8.9757  -19.8749   19.0787 C.ar    1  UNL1        0.0312
      5 C          -7.5890  -20.3920   19.3232 C.ar    1  UNL1        0.0204
      6 C          -6.7670  -19.8319   20.4460 C.ar    1  UNL1        0.0924
      7 C          -7.3316  -18.7550   21.3243 C.ar    1  UNL1        0.1598
      8 F          -6.5095  -18.1951   22.4471 F       1  UNL1       -0.2026
      9 C          -9.2829  -17.1611   21.9580 C.2     1  UNL1        0.2036
     10 O          -9.5957  -15.8114   21.3830 O.2     1  UNL1       -0.2863
     11 C          -5.6968  -14.7807   25.9910 C.3     1  UNL1        0.0307
     12 C          -6.9079  -15.6640   25.9373 C.2     1  UNL1        0.0074
     13 C          -7.5135  -16.1845   27.2070 C.2     1  UNL1        0.2278
     14 N          -8.7246  -17.0679   27.1533 N.2     1  UNL1       -0.0314
     15 C          -9.3301  -17.4308   25.8298 C.2     1  UNL1        0.3720
     16 N         -10.5147  -18.2759   25.4659 N.2     1  UNL1       -0.0307
     17 C         -10.6412  -18.2778   23.9712 C.2     1  UNL1        0.2390
     18 C          -9.5348  -17.4337   23.4113 C.2     1  UNL1        0.0896
     19 C          -8.7245  -16.9103   24.5600 C.2     1  UNL1        0.0771
     20 C          -7.5134  -16.0269   24.6138 C.3     1  UNL1        0.0602
     21 N          -5.3803  -20.3490   20.6906 N.pl3   1  UNL1       -0.2127
     22 H          -5.2383  -21.3030   20.8877 H       1  UNL1        0.1738
     23 S          -4.2100  -19.4124   20.6346 S.O2    1  UNL1        0.0758
     24 O          -3.6303  -20.0638   21.8550 O.2     1  UNL1       -0.1499
     25 O          -4.7896  -18.7610   19.4141 O.2     1  UNL1       -0.1499
     26 C          -3.0396  -18.4758   20.5786 C.ar    1  UNL1        0.1524
     27 C          -2.0306  -18.6016   19.4759 C.ar    1  UNL1        0.0225
     28 C          -0.8602  -17.6650   19.4199 C.ar    1  UNL1        0.0015
     29 C          -0.6989  -16.6027   20.4666 C.ar    1  UNL1        0.0024
     30 C          -1.7079  -16.4770   21.5693 C.ar    1  UNL1        0.0310
     31 C          -2.8782  -17.4136   21.6253 C.ar    1  UNL1        0.1589
     32 F          -3.8873  -17.2879   22.7280 F       1  UNL1       -0.2027
@<TRIPOS>BOND
     1    11    12    1
     2    12    13    2
     3    13    14    1
     4    14    15    2
     5    15    16    1
     6    16    17    2
     7    17    18    1
     8    18     9    1
     9     9    10    2
    10     9     1    1
    11     1     2   ar
    12     2     3    1
    13     2     4   ar
    14     4     5   ar
    15     5     6   ar
    16     6    21    1
    17    21    23    1
    18    23    24    2
    19    23    25    2
    20    23    26    1
    21    26    27   ar
    22    27    28   ar
    23    28    29   ar
    24    29    30   ar
    25    30    31   ar
    26    31    32    1
    27     6     7   ar
    28     7     8    1
    29    18    19    2
    30    19    20    1
    31    20    12    1
    32    19    15    1
    33     7     1   ar
    34    31    26   ar
    35    21    22    1
@<TRIPOS>MOLECULE
*****
 32 35 0 0 0
SMALL
GASTEIGER

@<TRIPOS>ATOM
      1 C          -4.8617  -19.5828   21.2884 C.ar    1  UNL1        0.0951
      2 C          -3.5375  -20.0145   20.7316 C.ar    1  UNL1        0.1454
      3 F          -3.4282  -21.3019   19.9695 F       1  UNL1       -0.2040
      4 C          -2.3226  -19.1590   20.9368 C.ar    1  UNL1        0.0312
      5 C          -2.4319  -17.8716   21.6989 C.ar    1  UNL1        0.0204
      6 C          -3.7562  -17.4399   22.2557 C.ar    1  UNL1        0.0924
      7 C          -4.9711  -18.2954   22.0505 C.ar    1  UNL1        0.1598
      8 F          -6.2952  -17.8636   22.6074 F       1  UNL1       -0.2026
      9 C          -6.0766  -20.4383   21.0832 C.2     1  UNL1        0.2036
     10 O          -5.9938  -21.9212   21.2933 O.2     1  UNL1       -0.2863
     11 C         -10.2650  -19.5475   25.1397 C.3     1  UNL1        0.0307
     12 C         -10.0497  -19.3286   23.6715 C.2     1  UNL1        0.0074
     13 C         -11.1305  -18.7040   22.8399 C.2     1  UNL1        0.2278
     14 N         -10.9152  -18.4850   21.3717 N.2     1  UNL1       -0.0314
     15 C          -9.6191  -18.8907   20.7350 C.2     1  UNL1        0.3720
     16 N          -9.1231  -18.8003   19.3223 N.2     1  UNL1       -0.0307
     17 C          -7.7357  -19.3690   19.2807 C.2     1  UNL1        0.2390
     18 C          -7.3742  -19.8109   20.6678 C.2     1  UNL1        0.0896
     19 C          -8.5382  -19.5153   21.5666 C.2     1  UNL1        0.0771
     20 C          -8.7535  -19.7343   23.0348 C.3     1  UNL1        0.0602
     21 N          -3.8655  -16.1525   23.0178 N.pl3   1  UNL1       -0.2127
     22 H          -3.2097  -15.4339   22.8668 H       1  UNL1        0.1738
     23 S          -4.9739  -15.9600   24.0099 S.O2    1  UNL1        0.0758
     24 O          -5.5261  -14.8420   23.1762 O.2     1  UNL1       -0.1499
     25 O          -4.4218  -17.0780   24.8437 O.2     1  UNL1       -0.1499
     26 C          -6.0824  -15.7676   25.0021 C.ar    1  UNL1        0.1524
     27 C          -5.7631  -15.5718   26.4546 C.ar    1  UNL1        0.0225
     28 C          -6.8715  -15.3793   27.4468 C.ar    1  UNL1        0.0015
     29 C          -8.2991  -15.3827   26.9865 C.ar    1  UNL1        0.0024
     30 C          -8.6184  -15.5784   25.5340 C.ar    1  UNL1        0.0310
     31 C          -7.5100  -15.7709   24.5418 C.ar    1  UNL1        0.1589
     32 F          -7.8292  -15.9667   23.0894 F       1  UNL1       -0.2027
@<TRIPOS>BOND
     1    11    12    1
     2    12    13    2
     3    13    14    1
     4    14    15    2
     5    15    16    1
     6    16    17    2
     7    17    18    1
     8    18     9    1
     9     9    10    2
    10     9     1    1
    11     1     2   ar
    12     2     3    1
    13     2     4   ar
    14     4     5   ar
    15     5     6   ar
    16     6    21    1
    17    21    23    1
    18    23    24    2
    19    23    25    2
    20    23    26    1
    21    26    27   ar
    22    27    28   ar
    23    28    29   ar
    24    29    30   ar
    25    30    31   ar
    26    31    32    1
    27     6     7   ar
    28     7     8    1
    29    18    19    2
    30    19    20    1
    31    20    12    1
    32    19    15    1
    33     7     1   ar
    34    31    26   ar
    35    21    22    1
@<TRIPOS>MOLECULE
*****
 32 35 0 0 0
SMALL
GASTEIGER

@<TRIPOS>ATOM
      1 C          -9.8343  -17.6026   21.3730 C.ar    1  UNL1        0.0951
      2 C         -10.9713  -17.7823   20.4114 C.ar    1  UNL1        0.1454
      3 F         -12.1788  -16.8972   20.5039 F       1  UNL1       -0.2040
      4 C         -10.9010  -18.8472   19.3573 C.ar    1  UNL1        0.0312
      5 C          -9.6935  -19.7323   19.2648 C.ar    1  UNL1        0.0204
      6 C          -8.5564  -19.5525   20.2265 C.ar    1  UNL1        0.0924
      7 C          -8.6268  -18.4877   21.2806 C.ar    1  UNL1        0.1598
      8 F          -7.4897  -18.3079   22.2422 F       1  UNL1       -0.2026
      9 C          -9.9047  -16.5377   22.4271 C.2     1  UNL1        0.2036
     10 O         -11.2277  -16.1601   23.0246 O.2     1  UNL1       -0.2863
     11 C          -8.5130  -16.6129   28.1586 C.3     1  UNL1        0.0307
     12 C          -7.9657  -16.0738   26.8703 C.2     1  UNL1        0.0074
     13 C          -6.6837  -15.2951   26.8676 C.2     1  UNL1        0.2278
     14 N          -6.1363  -14.7559   25.5793 N.2     1  UNL1       -0.0314
     15 C          -6.8710  -14.9955   24.2936 C.2     1  UNL1        0.3720
     16 N          -6.5777  -14.5905   22.8795 N.2     1  UNL1       -0.0307
     17 C          -7.6784  -15.1188   22.0081 C.2     1  UNL1        0.2390
     18 C          -8.6520  -15.8505   22.8838 C.2     1  UNL1        0.0896
     19 C          -8.1529  -15.7743   24.2963 C.2     1  UNL1        0.0771
     20 C          -8.7003  -16.3134   25.5846 C.3     1  UNL1        0.0602
     21 N          -7.3489  -20.4376   20.1340 N.pl3   1  UNL1       -0.2127
     22 H          -7.4271  -21.3375   19.7424 H       1  UNL1        0.1738
     23 S          -6.0223  -19.9516   20.6380 S.O2    1  UNL1        0.0758
     24 O          -6.0353  -21.0140   21.6968 O.2     1  UNL1       -0.1499
     25 O          -6.0093  -18.8892   19.5792 O.2     1  UNL1       -0.1499
     26 C          -4.6957  -19.4656   21.1420 C.ar    1  UNL1        0.1524
     27 C          -4.6180  -18.6961   22.4272 C.ar    1  UNL1        0.0225
     28 C          -3.2914  -18.2100   22.9312 C.ar    1  UNL1        0.0015
     29 C          -2.0427  -18.4935   22.1500 C.ar    1  UNL1        0.0024
     30 C          -2.1204  -19.2630   20.8648 C.ar    1  UNL1        0.0310
     31 C          -3.4469  -19.7490   20.3608 C.ar    1  UNL1        0.1589
     32 F          -3.5248  -20.5185   19.0756 F       1  UNL1       -0.2027
@<TRIPOS>BOND
     1    11    12    1
     2    12    13    2
     3    13    14    1
     4    14    15    2
     5    15    16    1
     6    16    17    2
     7    17    18    1
     8    18     9    1
     9     9    10    2
    10     9     1    1
    11     1     2   ar
    12     2     3    1
    13     2     4   ar
    14     4     5   ar
    15     5     6   ar
    16     6    21    1
    17    21    23    1
    18    23    24    2
    19    23    25    2
    20    23    26    1
    21    26    27   ar
    22    27    28   ar
    23    28    29   ar
    24    29    30   ar
    25    30    31   ar
    26    31    32    1
    27     6     7   ar
    28     7     8    1
    29    18    19    2
    30    19    20    1
    31    20    12    1
    32    19    15    1
    33     7     1   ar
    34    31    26   ar
    35    21    22    1
@<TRIPOS>MOLECULE
*****
 32 35 0 0 0
SMALL
GASTEIGER

@<TRIPOS>ATOM
      1 C          -6.3629  -19.3033   21.1914 C.ar    1  UNL1        0.0951
      2 C          -5.2369  -20.2481   20.8925 C.ar    1  UNL1        0.1454
      3 F          -5.5019  -21.5144   20.1333 F       1  UNL1       -0.2040
      4 C          -3.8459  -19.9267   21.3526 C.ar    1  UNL1        0.0312
      5 C          -3.5809  -18.6604   22.1118 C.ar    1  UNL1        0.0204
      6 C          -4.7070  -17.7156   22.4108 C.ar    1  UNL1        0.0924
      7 C          -6.0980  -18.0370   21.9506 C.ar    1  UNL1        0.1598
      8 F          -7.2240  -17.0922   22.2496 F       1  UNL1       -0.2026
      9 C          -7.7539  -19.6248   20.7313 C.2     1  UNL1        0.2036
     10 O          -7.9877  -20.1076   19.3305 O.2     1  UNL1       -0.2863
     11 C         -12.0522  -15.8212   19.3713 C.3     1  UNL1        0.0307
     12 C         -11.6999  -16.7829   20.4672 C.2     1  UNL1        0.0074
     13 C         -12.6131  -16.9437   21.6462 C.2     1  UNL1        0.2278
     14 N         -12.2607  -17.9054   22.7422 N.2     1  UNL1       -0.0314
     15 C         -10.9951  -18.7061   22.6591 C.2     1  UNL1        0.3720
     16 N         -10.3888  -19.7236   23.5796 N.2     1  UNL1       -0.0307
     17 C          -9.1009  -20.1915   22.9694 C.2     1  UNL1        0.2390
     18 C          -8.9111  -19.4633   21.6719 C.2     1  UNL1        0.0896
     19 C         -10.0819  -18.5453   21.4801 C.2     1  UNL1        0.0771
     20 C         -10.4342  -17.5836   20.3842 C.3     1  UNL1        0.0602
     21 N          -4.4419  -16.4493   23.1699 N.pl3   1  UNL1       -0.2127
     22 H          -3.6759  -15.8807   22.9268 H       1  UNL1        0.1738
     23 S          -5.3441  -16.0492   24.2995 S.O2    1  UNL1        0.0758
     24 O          -5.8765  -14.9163   23.4732 O.2     1  UNL1       -0.1499
     25 O          -4.8118  -17.1822   25.1259 O.2     1  UNL1       -0.1499
     26 C          -6.2463  -15.6492   25.4292 C.ar    1  UNL1        0.1524
     27 C          -5.6942  -14.8834   26.5948 C.ar    1  UNL1        0.0225
     28 C          -6.5963  -14.4834   27.7245 C.ar    1  UNL1        0.0015
     29 C          -8.0505  -14.8492   27.6885 C.ar    1  UNL1        0.0024
     30 C          -8.6027  -15.6150   26.5230 C.ar    1  UNL1        0.0310
     31 C          -7.7006  -16.0150   25.3933 C.ar    1  UNL1        0.1589
     32 F          -8.2527  -16.7808   24.2277 F       1  UNL1       -0.2027
@<TRIPOS>BOND
     1    11    12    1
     2    12    13    2
     3    13    14    1
     4    14    15    2
     5    15    16    1
     6    16    17    2
     7    17    18    1
     8    18     9    1
     9     9    10    2
    10     9     1    1
    11     1     2   ar
    12     2     3    1
    13     2     4   ar
    14     4     5   ar
    15     5     6   ar
    16     6    21    1
    17    21    23    1
    18    23    24    2
    19    23    25    2
    20    23    26    1
    21    26    27   ar
    22    27    28   ar
    23    28    29   ar
    24    29    30   ar
    25    30    31   ar
    26    31    32    1
    27     6     7   ar
    28     7     8    1
    29    18    19    2
    30    19    20    1
    31    20    12    1
    32    19    15    1
    33     7     1   ar
    34    31    26   ar
    35    21    22    1
@<TRIPOS>MOLECULE
*****
 32 35 0 0 0
SMALL
GASTEIGER

@<TRIPOS>ATOM
      1 C          -8.9183  -19.1605   21.8336 C.ar    1  UNL1        0.0951
      2 C          -9.8346  -18.8462   20.6883 C.ar    1  UNL1        0.1454
      3 F         -11.1534  -18.1789   20.9443 F       1  UNL1       -0.2040
      4 C          -9.4321  -19.1992   19.2871 C.ar    1  UNL1        0.0312
      5 C          -8.1133  -19.8665   19.0311 C.ar    1  UNL1        0.0204
      6 C          -7.1970  -20.1808   20.1765 C.ar    1  UNL1        0.0924
      7 C          -7.5995  -19.8278   21.5777 C.ar    1  UNL1        0.1598
      8 F          -6.6832  -20.1421   22.7229 F       1  UNL1       -0.2026
      9 C          -9.3208  -18.8075   23.2348 C.2     1  UNL1        0.2036
     10 O         -10.0610  -19.8046   24.0762 O.2     1  UNL1       -0.2863
     11 C          -3.7039  -17.0071   23.2015 C.3     1  UNL1        0.0307
     12 C          -5.0492  -16.5029   23.6327 C.2     1  UNL1        0.0074
     13 C          -5.1752  -15.1483   24.2645 C.2     1  UNL1        0.2278
     14 N          -6.5205  -14.6440   24.6957 N.2     1  UNL1       -0.0314
     15 C          -7.7398  -15.4943   24.4951 C.2     1  UNL1        0.3720
     16 N          -9.1869  -15.2657   24.8169 N.2     1  UNL1       -0.0307
     17 C          -9.9553  -16.4791   24.3839 C.2     1  UNL1        0.2390
     18 C          -8.9831  -17.4575   23.7946 C.2     1  UNL1        0.0896
     19 C          -7.6138  -16.8489   23.8632 C.2     1  UNL1        0.0771
     20 C          -6.2685  -17.3531   23.4321 C.3     1  UNL1        0.0602
     21 N          -5.8782  -20.8481   19.9205 N.pl3   1  UNL1       -0.2127
     22 H          -5.8386  -21.8212   19.7766 H       1  UNL1        0.1738
     23 S          -4.6197  -20.0327   19.8837 S.O2    1  UNL1        0.0758
     24 O          -5.4315  -18.7752   19.9811 O.2     1  UNL1       -0.1499
     25 O          -3.8078  -21.2902   19.7862 O.2     1  UNL1       -0.1499
     26 C          -3.3612  -19.2173   19.8468 C.ar    1  UNL1        0.1524
     27 C          -3.0539  -18.3660   18.6507 C.ar    1  UNL1        0.0225
     28 C          -1.7954  -17.5506   18.6138 C.ar    1  UNL1        0.0015
     29 C          -0.8442  -17.5866   19.7730 C.ar    1  UNL1        0.0024
     30 C          -1.1514  -18.4380   20.9692 C.ar    1  UNL1        0.0310
     31 C          -2.4099  -19.2533   21.0061 C.ar    1  UNL1        0.1589
     32 F          -2.7173  -20.1046   22.2022 F       1  UNL1       -0.2027
@<TRIPOS>BOND
     1    11    12    1
     2    12    13    2
     3    13    14    1
     4    14    15    2
     5    15    16    1
     6    16    17    2
     7    17    18    1
     8    18     9    1
     9     9    10    2
    10     9     1    1
    11     1     2   ar
    12     2     3    1
    13     2     4   ar
    14     4     5   ar
    15     5     6   ar
    16     6    21    1
    17    21    23    1
    18    23    24    2
    19    23    25    2
    20    23    26    1
    21    26    27   ar
    22    27    28   ar
    23    28    29   ar
    24    29    30   ar
    25    30    31   ar
    26    31    32    1
    27     6     7   ar
    28     7     8    1
    29    18    19    2
    30    19    20    1
    31    20    12    1
    32    19    15    1
    33     7     1   ar
    34    31    26   ar
    35    21    22    1
@<TRIPOS>MOLECULE
*****
 32 35 0 0 0
SMALL
GASTEIGER

@<TRIPOS>ATOM
      1 C          -5.8101  -15.8052   24.4546 C.ar    1  UNL1        0.0951
      2 C          -5.4558  -15.7336   25.9104 C.ar    1  UNL1        0.1454
      3 F          -4.0248  -15.5636   26.3265 F       1  UNL1       -0.2040
      4 C          -6.5326  -15.8319   26.9501 C.ar    1  UNL1        0.0312
      5 C          -7.9637  -16.0019   26.5340 C.ar    1  UNL1        0.0204
      6 C          -8.3179  -16.0736   25.0781 C.ar    1  UNL1        0.0924
      7 C          -7.2412  -15.9752   24.0385 C.ar    1  UNL1        0.1598
      8 F          -7.5955  -16.0469   22.5827 F       1  UNL1       -0.2026
      9 C          -4.7334  -15.7069   23.4150 C.2     1  UNL1        0.2036
     10 O          -4.4310  -14.3863   22.7710 O.2     1  UNL1       -0.2863
     11 C          -7.3956  -19.8808   20.2084 C.3     1  UNL1        0.0307
     12 C          -6.0541  -19.6128   20.8235 C.2     1  UNL1        0.0074
     13 C          -4.9447  -20.6103   20.6675 C.2     1  UNL1        0.2278
     14 N          -3.6031  -20.3423   21.2826 N.2     1  UNL1       -0.0314
     15 C          -3.3709  -19.0768   22.0538 C.2     1  UNL1        0.3720
     16 N          -2.1640  -18.5430   22.7668 N.2     1  UNL1       -0.0307
     17 C          -2.5275  -17.2156   23.3635 C.2     1  UNL1        0.2390
     18 C          -3.9590  -16.9291   23.0193 C.2     1  UNL1        0.0896
     19 C          -4.4803  -18.0794   22.2098 C.2     1  UNL1        0.0771
     20 C          -5.8219  -18.3474   21.5947 C.3     1  UNL1        0.0602
     21 N          -9.7490  -16.2435   24.6621 N.pl3   1  UNL1       -0.2127
     22 H         -10.4642  -15.7857   25.1602 H       1  UNL1        0.1738
     23 S         -10.0904  -17.1110   23.4870 S.O2    1  UNL1        0.0758
     24 O         -10.9853  -16.0331   22.9511 O.2     1  UNL1       -0.1499
     25 O          -9.1955  -18.1890   24.0227 O.2     1  UNL1       -0.1499
     26 C         -10.4318  -17.9786   22.3118 C.ar    1  UNL1        0.1524
     27 C         -10.3158  -17.4342   20.9189 C.ar    1  UNL1        0.0225
     28 C         -10.6572  -18.3017   19.7438 C.ar    1  UNL1        0.0015
     29 C         -11.1146  -19.7136   19.9616 C.ar    1  UNL1        0.0024
     30 C         -11.2306  -20.2580   21.3545 C.ar    1  UNL1        0.0310
     31 C         -10.8892  -19.3905   22.5296 C.ar    1  UNL1        0.1589
     32 F         -11.0052  -19.9348   23.9225 F       1  UNL1       -0.2027
@<TRIPOS>BOND
     1    11    12    1
     2    12    13    2
     3    13    14    1
     4    14    15    2
     5    15    16    1
     6    16    17    2
     7    17    18    1
     8    18     9    1
     9     9    10    2
    10     9     1    1
    11     1     2   ar
    12     2     3    1
    13     2     4   ar
    14     4     5   ar
    15     5     6   ar
    16     6    21    1
    17    21    23    1
    18    23    24    2
    19    23    25    2
    20    23    26    1
    21    26    27   ar
    22    27    28   ar
    23    28    29   ar
    24    29    30   ar
    25    30    31   ar
    26    31    32    1
    27     6     7   ar
    28     7     8    1
    29    18    19    2
    30    19    20    1
    31    20    12    1
    32    19    15    1
    33     7     1   ar
    34    31    26   ar
    35    21    22    1
@<TRIPOS>MOLECULE
*****
 32 35 0 0 0
SMALL
GASTEIGER

@<TRIPOS>ATOM
      1 C          -7.7176  -19.3607   20.4347 C.ar    1  UNL1        0.0951
      2 C          -8.8528  -19.8421   19.5806 C.ar    1  UNL1        0.1454
      3 F          -8.6836  -21.0642   18.7274 F       1  UNL1       -0.2040
      4 C         -10.1572  -19.1014   19.5796 C.ar    1  UNL1        0.0312
      5 C         -10.3264  -17.8794   20.4328 C.ar    1  UNL1        0.0204
      6 C          -9.1911  -17.3980   21.2869 C.ar    1  UNL1        0.0924
      7 C          -7.8867  -18.1386   21.2879 C.ar    1  UNL1        0.1598
      8 F          -6.7515  -17.6571   22.1420 F       1  UNL1       -0.2026
      9 C          -6.4132  -20.1013   20.4357 C.2     1  UNL1        0.2036
     10 O          -6.2704  -21.3698   19.6479 O.2     1  UNL1       -0.2863
     11 C          -1.9348  -17.5317   17.5839 C.3     1  UNL1        0.0307
     12 C          -2.3352  -17.8659   18.9903 C.2     1  UNL1        0.0074
     13 C          -1.4333  -17.5042   20.1329 C.2     1  UNL1        0.2278
     14 N          -1.8337  -17.8384   21.5393 N.2     1  UNL1       -0.0314
     15 C          -3.1360  -18.5343   21.8031 C.2     1  UNL1        0.3720
     16 N          -3.7923  -18.9882   23.0733 N.2     1  UNL1       -0.0307
     17 C          -5.0998  -19.6304   22.7156 C.2     1  UNL1        0.2390
     18 C          -5.2516  -19.5735   21.2244 C.2     1  UNL1        0.0896
     19 C          -4.0379  -18.8961   20.6605 C.2     1  UNL1        0.0771
     20 C          -3.6375  -18.5619   19.2541 C.3     1  UNL1        0.0602
     21 N          -9.3603  -16.1759   22.1401 N.pl3   1  UNL1       -0.2127
     22 H          -9.9469  -15.4440   21.8408 H       1  UNL1        0.1738
     23 S          -8.6358  -16.0689   23.4491 S.O2    1  UNL1        0.0758
     24 O          -7.8929  -14.8695   22.9400 O.2     1  UNL1       -0.1499
     25 O          -9.3788  -17.2683   23.9583 O.2     1  UNL1       -0.1499
     26 C          -7.9114  -15.9619   24.7583 C.ar    1  UNL1        0.1524
     27 C          -8.6614  -16.1305   26.0464 C.ar    1  UNL1        0.0225
     28 C          -7.9370  -16.0235   27.3555 C.ar    1  UNL1        0.0015
     29 C          -6.4626  -15.7480   27.3766 C.ar    1  UNL1        0.0024
     30 C          -5.7127  -15.5795   26.0885 C.ar    1  UNL1        0.0310
     31 C          -6.4370  -15.6864   24.7794 C.ar    1  UNL1        0.1589
     32 F          -5.6872  -15.5179   23.4913 F       1  UNL1       -0.2027
@<TRIPOS>BOND
     1    11    12    1
     2    12    13    2
     3    13    14    1
     4    14    15    2
     5    15    16    1
     6    16    17    2
     7    17    18    1
     8    18     9    1
     9     9    10    2
    10     9     1    1
    11     1     2   ar
    12     2     3    1
    13     2     4   ar
    14     4     5   ar
    15     5     6   ar
    16     6    21    1
    17    21    23    1
    18    23    24    2
    19    23    25    2
    20    23    26    1
    21    26    27   ar
    22    27    28   ar
    23    28    29   ar
    24    29    30   ar
    25    30    31   ar
    26    31    32    1
    27     6     7   ar
    28     7     8    1
    29    18    19    2
    30    19    20    1
    31    20    12    1
    32    19    15    1
    33     7     1   ar
    34    31    26   ar
    35    21    22    1
@<TRIPOS>MOLECULE
*****
 32 35 0 0 0
SMALL
GASTEIGER

@<TRIPOS>ATOM
      1 C          -7.8137  -19.6100   20.6159 C.ar    1  UNL1        0.0951
      2 C          -8.6820  -19.6471   19.3934 C.ar    1  UNL1        0.1454
      3 F          -8.1701  -20.2707   18.1288 F       1  UNL1       -0.2040
      4 C         -10.0620  -19.0608   19.4353 C.ar    1  UNL1        0.0312
      5 C         -10.5738  -18.4373   20.6999 C.ar    1  UNL1        0.0204
      6 C          -9.7055  -18.4001   21.9226 C.ar    1  UNL1        0.0924
      7 C          -8.3255  -18.9864   21.8806 C.ar    1  UNL1        0.1598
      8 F          -7.4574  -18.9492   23.1033 F       1  UNL1       -0.2026
      9 C          -6.4337  -20.1963   20.5740 C.2     1  UNL1        0.2036
     10 O          -6.2368  -21.6672   20.7921 O.2     1  UNL1       -0.2863
     11 C          -3.6043  -17.7660   25.1435 C.3     1  UNL1        0.0307
     12 C          -3.5188  -17.7917   23.6461 C.2     1  UNL1        0.0074
     13 C          -2.4444  -17.0167   22.9428 C.2     1  UNL1        0.2278
     14 N          -2.3589  -17.0424   21.4455 N.2     1  UNL1       -0.0314
     15 C          -3.3479  -17.8432   20.6514 C.2     1  UNL1        0.3720
     16 N          -3.5120  -18.0575   19.1759 N.2     1  UNL1       -0.0307
     17 C          -4.6879  -18.9651   18.9673 C.2     1  UNL1        0.2390
     18 C          -5.2506  -19.3117   20.3139 C.2     1  UNL1        0.0896
     19 C          -4.4224  -18.6183   21.3547 C.2     1  UNL1        0.0771
     20 C          -4.5078  -18.5925   22.8521 C.3     1  UNL1        0.0602
     21 N         -10.2174  -17.7766   23.1871 N.pl3   1  UNL1       -0.2127
     22 H         -11.1773  -17.8165   23.4022 H       1  UNL1        0.1738
     23 S          -9.2668  -17.0921   24.1240 S.O2    1  UNL1        0.0758
     24 O          -9.0857  -15.9832   23.1304 O.2     1  UNL1       -0.1499
     25 O          -9.4478  -18.2010   25.1178 O.2     1  UNL1       -0.1499
     26 C          -8.3161  -16.4076   25.0610 C.ar    1  UNL1        0.1524
     27 C          -8.6981  -16.1985   26.4964 C.ar    1  UNL1        0.0225
     28 C          -7.7475  -15.5141   27.4334 C.ar    1  UNL1        0.0015
     29 C          -6.4149  -15.0388   26.9350 C.ar    1  UNL1        0.0024
     30 C          -6.0330  -15.2479   25.4996 C.ar    1  UNL1        0.0310
     31 C          -6.9835  -15.9323   24.5626 C.ar    1  UNL1        0.1589
     32 F          -6.6017  -16.1414   23.1273 F       1  UNL1       -0.2027
@<TRIPOS>BOND
     1    11    12    1
     2    12    13    2
     3    13    14    1
     4    14    15    2
     5    15    16    1
     6    16    17    2
     7    17    18    1
     8    18     9    1
     9     9    10    2
    10     9     1    1
    11     1     2   ar
    12     2     3    1
    13     2     4   ar
    14     4     5   ar
    15     5     6   ar
    16     6    21    1
    17    21    23    1
    18    23    24    2
    19    23    25    2
    20    23    26    1
    21    26    27   ar
    22    27    28   ar
    23    28    29   ar
    24    29    30   ar
    25    30    31   ar
    26    31    32    1
    27     6     7   ar
    28     7     8    1
    29    18    19    2
    30    19    20    1
    31    20    12    1
    32    19    15    1
    33     7     1   ar
    34    31    26   ar
    35    21    22    1
@<TRIPOS>MOLECULE
*****
 32 35 0 0 0
SMALL
GASTEIGER

@<TRIPOS>ATOM
      1 C          -5.7622  -15.7226   24.3421 C.ar    1  UNL1        0.0951
      2 C          -5.4724  -15.3824   25.7740 C.ar    1  UNL1        0.1454
      3 F          -4.0538  -15.2233   26.2347 F       1  UNL1       -0.2040
      4 C          -6.6011  -15.2014   26.7452 C.ar    1  UNL1        0.0312
      5 C          -8.0198  -15.3605   26.2845 C.ar    1  UNL1        0.0204
      6 C          -8.3095  -15.7007   24.8525 C.ar    1  UNL1        0.0924
      7 C          -7.1808  -15.8817   23.8814 C.ar    1  UNL1        0.1598
      8 F          -7.4707  -16.2218   22.4495 F       1  UNL1       -0.2026
      9 C          -4.6335  -15.9036   23.3710 C.2     1  UNL1        0.2036
     10 O          -3.9069  -14.7063   22.8338 O.2     1  UNL1       -0.2863
     11 C           0.1232  -16.5633   19.9460 C.3     1  UNL1        0.0307
     12 C          -0.9285  -17.4138   20.5945 C.2     1  UNL1        0.0074
     13 C          -0.9046  -18.9028   20.4152 C.2     1  UNL1        0.2278
     14 N          -1.9563  -19.7533   21.0637 N.2     1  UNL1       -0.0314
     15 C          -3.0319  -19.1148   21.8915 C.2     1  UNL1        0.3720
     16 N          -4.1926  -19.6913   22.6468 N.2     1  UNL1       -0.0307
     17 C          -4.9338  -18.5585   23.2929 C.2     1  UNL1        0.2390
     18 C          -4.2313  -17.2819   22.9370 C.2     1  UNL1        0.0896
     19 C          -3.0558  -17.6258   22.0709 C.2     1  UNL1        0.0771
     20 C          -2.0040  -16.7753   21.4224 C.3     1  UNL1        0.0602
     21 N          -9.7281  -15.8598   24.3918 N.pl3   1  UNL1       -0.2127
     22 H         -10.4320  -15.2748   24.7545 H       1  UNL1        0.1738
     23 S         -10.0743  -16.9102   23.3785 S.O2    1  UNL1        0.0758
     24 O          -9.3606  -17.9404   24.2025 O.2     1  UNL1       -0.1499
     25 O         -10.7881  -15.8800   22.5544 O.2     1  UNL1       -0.1499
     26 C         -10.4205  -17.9606   22.3651 C.ar    1  UNL1        0.1524
     27 C         -10.1075  -17.7361   20.9154 C.ar    1  UNL1        0.0225
     28 C         -10.4537  -18.7864   19.9020 C.ar    1  UNL1        0.0015
     29 C         -11.1128  -20.0612   20.3383 C.ar    1  UNL1        0.0024
     30 C         -11.4258  -20.2857   21.7880 C.ar    1  UNL1        0.0310
     31 C         -11.0797  -19.2354   22.8014 C.ar    1  UNL1        0.1589
     32 F         -11.3926  -19.4598   24.2511 F       1  UNL1       -0.2027
@<TRIPOS>BOND
     1    11    12    1
     2    12    13    2
     3    13    14    1
     4    14    15    2
     5    15    16    1
     6    16    17    2
     7    17    18    1
     8    18     9    1
     9     9    10    2
    10     9     1    1
    11     1     2   ar
    12     2     3    1
    13     2     4   ar
    14     4     5   ar
    15     5     6   ar
    16     6    21    1
    17    21    23    1
    18    23    24    2
    19    23    25    2
    20    23    26    1
    21    26    27   ar
    22    27    28   ar
    23    28    29   ar
    24    29    30   ar
    25    30    31   ar
    26    31    32    1
    27     6     7   ar
    28     7     8    1
    29    18    19    2
    30    19    20    1
    31    20    12    1
    32    19    15    1
    33     7     1   ar
    34    31    26   ar
    35    21    22    1
