@<TRIPOS>MOLECULE
*****
 31 35 0 0 0
SMALL
GASTEIGER

@<TRIPOS>ATOM
      1 C           0.3051    2.0660   19.1214 C.ar    1  UNL1        0.1829
      2 N          -0.7482    2.4789   20.1063 N.ar    1  UNL1       -0.2103
      3 C          -1.4652    3.6712   19.5457 C.ar    1  UNL1        0.1414
      4 N          -0.8550    3.9953   18.2143 N.ar    1  UNL1       -0.2361
      5 N           0.2392    3.0032   17.9521 N.ar    1  UNL1       -0.1488
      6 C          -1.3744    5.1519   17.4128 C.3     1  UNL1        0.1289
      7 C          -2.5041    5.9844   17.9426 C.3     1  UNL1        0.0272
      8 C          -3.1143    5.6603   19.2740 C.3     1  UNL1        0.0140
      9 C          -2.5949    4.5037   20.0755 C.3     1  UNL1        0.0803
     10 C          -3.2052    4.1796   21.4069 C.ar    1  UNL1       -0.0192
     11 C          -2.4632    4.5011   22.6702 C.ar    1  UNL1       -0.0019
     12 C          -3.0735    4.1770   24.0016 C.ar    1  UNL1        0.0293
     13 C          -4.4257    3.5314   24.0696 C.ar    1  UNL1        0.1398
     14 F          -5.0359    3.2073   25.4010 F       1  UNL1       -0.2042
     15 C          -5.1676    3.2099   22.8063 C.ar    1  UNL1        0.0251
     16 C          -4.5574    3.5340   21.4749 C.ar    1  UNL1       -0.0232
     17 C          -5.2994    3.2125   20.2115 C.3     1  UNL1        0.0308
     18 C           3.1900   -0.5463   18.3449 C.ar    1  UNL1        0.1548
     19 C           2.2379    0.6021   18.1880 C.ar    1  UNL1        0.0415
     20 C           1.2572    0.9176   19.2783 C.ar    1  UNL1        0.0406
     21 C           1.2288    0.0847   20.5255 C.ar    1  UNL1        0.0048
     22 C           2.1809   -1.0637   20.6823 C.ar    1  UNL1        0.0207
     23 C           3.1615   -1.3792   19.5921 C.ar    1  UNL1        0.0994
     24 N           4.1136   -2.5276   19.7489 N.ar    1  UNL1       -0.2839
     25 C           3.8620   -3.9453   19.3285 C.ar    1  UNL1        0.1826
     26 N           5.0774   -4.7538   19.6735 N.ar    1  UNL1       -0.2280
     27 C           6.0803   -3.8358   20.3072 C.ar    1  UNL1        0.0786
     28 C           7.4400   -4.2253   20.8066 C.3     1  UNL1        0.0538
     29 C           5.4846   -2.4600   20.3538 C.ar    1  UNL1        0.0963
     30 C           5.4352   -0.0649   17.1295 C.3     1  UNL1        0.2525
     31 O           4.1707   -0.8618   17.2545 O.3     1  UNL1       -0.4700
@<TRIPOS>BOND
     1    30    31    1
     2    31    18    1
     3    18    19   ar
     4    19    20   ar
     5    20     1    1
     6     1     2   ar
     7     2     3   ar
     8     3     4   ar
     9     4     5   ar
    10     4     6    1
    11     6     7    1
    12     7     8    1
    13     8     9    1
    14     9    10    1
    15    10    11   ar
    16    11    12   ar
    17    12    13   ar
    18    13    14    1
    19    13    15   ar
    20    15    16   ar
    21    16    17    1
    22    20    21   ar
    23    21    22   ar
    24    22    23   ar
    25    23    24    1
    26    24    25   ar
    27    25    26   ar
    28    26    27   ar
    29    27    28    1
    30    27    29   ar
    31    23    18   ar
    32    29    24   ar
    33     5     1   ar
    34    16    10   ar
    35     9     3    1
@<TRIPOS>MOLECULE
*****
 31 35 0 0 0
SMALL
GASTEIGER

@<TRIPOS>ATOM
      1 C           0.3356    2.0516   19.2186 C.ar    1  UNL1        0.1829
      2 N          -0.7019    2.4754   20.2156 N.ar    1  UNL1       -0.2103
      3 C          -1.5029    3.5879   19.6067 C.ar    1  UNL1        0.1414
      4 N          -0.9603    3.8518   18.2333 N.ar    1  UNL1       -0.2361
      5 N           0.1759    2.9023   17.9935 N.ar    1  UNL1       -0.1488
      6 C          -1.5710    4.9225   17.3786 C.3     1  UNL1        0.1289
      7 C          -2.7243    5.7293   17.8972 C.3     1  UNL1        0.0272
      8 C          -3.2668    5.4654   19.2705 C.3     1  UNL1        0.0140
      9 C          -2.6561    4.3947   20.1253 C.3     1  UNL1        0.0803
     10 C          -3.1987    4.1309   21.4986 C.ar    1  UNL1       -0.0192
     11 C          -4.4082    3.2610   21.6728 C.ar    1  UNL1       -0.0019
     12 C          -4.9507    2.9972   23.0461 C.ar    1  UNL1        0.0293
     13 C          -4.2838    3.6031   24.2452 C.ar    1  UNL1        0.1398
     14 F          -4.8263    3.3392   25.6185 F       1  UNL1       -0.2042
     15 C          -3.0742    4.4729   24.0710 C.ar    1  UNL1        0.0251
     16 C          -2.5317    4.7368   22.6977 C.ar    1  UNL1       -0.0232
     17 C          -1.3221    5.6067   22.5235 C.3     1  UNL1        0.0308
     18 C           2.6053   -0.6910   20.9726 C.ar    1  UNL1        0.1548
     19 C           1.5868    0.3930   20.7786 C.ar    1  UNL1        0.0415
     20 C           1.3541    0.9676   19.4127 C.ar    1  UNL1        0.0406
     21 C           2.1398    0.4582   18.2409 C.ar    1  UNL1        0.0048
     22 C           3.1582   -0.6258   18.4350 C.ar    1  UNL1        0.0207
     23 C           3.3910   -1.2004   19.8008 C.ar    1  UNL1        0.0994
     24 N           4.4094   -2.2845   19.9949 N.ar    1  UNL1       -0.2839
     25 C           4.1718   -3.7567   19.8332 C.ar    1  UNL1        0.1826
     26 N           5.4598   -4.4687   20.1231 N.ar    1  UNL1       -0.2280
     27 C           6.4935   -3.4366   20.4640 C.ar    1  UNL1        0.0786
     28 C           7.9250   -3.7069   20.8213 C.3     1  UNL1        0.0538
     29 C           5.8443   -2.0867   20.3847 C.ar    1  UNL1        0.0963
     30 C           3.4932   -0.4334   23.4006 C.3     1  UNL1        0.2525
     31 O           2.8380   -1.2656   22.3386 O.3     1  UNL1       -0.4700
@<TRIPOS>BOND
     1    30    31    1
     2    31    18    1
     3    18    19   ar
     4    19    20   ar
     5    20     1    1
     6     1     2   ar
     7     2     3   ar
     8     3     4   ar
     9     4     5   ar
    10     4     6    1
    11     6     7    1
    12     7     8    1
    13     8     9    1
    14     9    10    1
    15    10    11   ar
    16    11    12   ar
    17    12    13   ar
    18    13    14    1
    19    13    15   ar
    20    15    16   ar
    21    16    17    1
    22    20    21   ar
    23    21    22   ar
    24    22    23   ar
    25    23    24    1
    26    24    25   ar
    27    25    26   ar
    28    26    27   ar
    29    27    28    1
    30    27    29   ar
    31    23    18   ar
    32    29    24   ar
    33     5     1   ar
    34    16    10   ar
    35     9     3    1
@<TRIPOS>MOLECULE
*****
 31 35 0 0 0
SMALL
GASTEIGER

@<TRIPOS>ATOM
      1 C           3.4907   -0.6270   25.2283 C.ar    1  UNL1        0.1829
      2 N           3.0739   -0.3024   23.8244 N.ar    1  UNL1       -0.2103
      3 C           3.6433   -1.3527   22.9173 C.ar    1  UNL1        0.1414
      4 N           4.4119   -2.3263   23.7606 N.ar    1  UNL1       -0.2361
      5 N           4.3176   -1.8778   25.1889 N.ar    1  UNL1       -0.1488
      6 C           5.0984   -3.4955   23.1190 C.3     1  UNL1        0.1289
      7 C           5.0162   -3.6911   21.6341 C.3     1  UNL1        0.0272
      8 C           4.2476   -2.7174   20.7908 C.3     1  UNL1        0.0140
      9 C           3.5611   -1.5482   21.4324 C.3     1  UNL1        0.0803
     10 C           2.7925   -0.5745   20.5891 C.ar    1  UNL1       -0.0192
     11 C           1.2948   -0.6426   20.5415 C.ar    1  UNL1       -0.0019
     12 C           0.5262    0.3311   19.6982 C.ar    1  UNL1        0.0293
     13 C           1.2552    1.3728   18.9025 C.ar    1  UNL1        0.1398
     14 F           0.4866    2.3465   18.0592 F       1  UNL1       -0.2042
     15 C           2.7529    1.4409   18.9500 C.ar    1  UNL1        0.0251
     16 C           3.5215    0.4672   19.7933 C.ar    1  UNL1       -0.0232
     17 C           5.0192    0.5353   19.8409 C.3     1  UNL1        0.0308
     18 C           2.4368    0.2376   28.9555 C.ar    1  UNL1        0.1548
     19 C           2.7857   -0.5504   27.7277 C.ar    1  UNL1        0.0415
     20 C           3.1418    0.1610   26.4561 C.ar    1  UNL1        0.0406
     21 C           3.1489    1.6603   26.4122 C.ar    1  UNL1        0.0048
     22 C           2.8000    2.4482   27.6400 C.ar    1  UNL1        0.0207
     23 C           2.4439    1.7369   28.9116 C.ar    1  UNL1        0.0994
     24 N           2.0950    2.5248   30.1394 N.ar    1  UNL1       -0.2839
     25 C           3.0304    2.8723   31.2594 C.ar    1  UNL1        0.1826
     26 N           2.2629    3.6659   32.2749 N.ar    1  UNL1       -0.2280
     27 C           0.8533    3.8089   31.7826 C.ar    1  UNL1        0.0786
     28 C          -0.2576    4.5304   32.4864 C.3     1  UNL1        0.0538
     29 C           0.7496    3.1037   30.4627 C.ar    1  UNL1        0.0963
     30 C           3.1574   -0.8584   31.1982 C.3     1  UNL1        0.2525
     31 O           2.0807   -0.4739   30.2272 O.3     1  UNL1       -0.4700
@<TRIPOS>BOND
     1    30    31    1
     2    31    18    1
     3    18    19   ar
     4    19    20   ar
     5    20     1    1
     6     1     2   ar
     7     2     3   ar
     8     3     4   ar
     9     4     5   ar
    10     4     6    1
    11     6     7    1
    12     7     8    1
    13     8     9    1
    14     9    10    1
    15    10    11   ar
    16    11    12   ar
    17    12    13   ar
    18    13    14    1
    19    13    15   ar
    20    15    16   ar
    21    16    17    1
    22    20    21   ar
    23    21    22   ar
    24    22    23   ar
    25    23    24    1
    26    24    25   ar
    27    25    26   ar
    28    26    27   ar
    29    27    28    1
    30    27    29   ar
    31    23    18   ar
    32    29    24   ar
    33     5     1   ar
    34    16    10   ar
    35     9     3    1
@<TRIPOS>MOLECULE
*****
 31 35 0 0 0
SMALL
GASTEIGER

@<TRIPOS>ATOM
      1 C           1.2905    1.2237   23.1807 C.ar    1  UNL1        0.1829
      2 N           2.1892    0.2974   22.4162 N.ar    1  UNL1       -0.2103
      3 C           1.9028    0.4752   20.9546 C.ar    1  UNL1        0.1414
      4 N           0.8272    1.5114   20.8157 N.ar    1  UNL1       -0.2361
      5 N           0.4488    1.9740   22.1915 N.ar    1  UNL1       -0.1488
      6 C           0.3312    1.8998   19.4544 C.3     1  UNL1        0.1289
      7 C           0.9110    1.2520   18.2320 C.3     1  UNL1        0.0272
      8 C           1.9866    0.2159   18.3709 C.3     1  UNL1        0.0140
      9 C           2.4826   -0.1726   19.7322 C.3     1  UNL1        0.0803
     10 C           3.5582   -1.2087   19.8711 C.ar    1  UNL1       -0.0192
     11 C           3.2029   -2.6659   19.8515 C.ar    1  UNL1       -0.0019
     12 C           4.2786   -3.7021   19.9904 C.ar    1  UNL1        0.0293
     13 C           5.7095   -3.2811   20.1489 C.ar    1  UNL1        0.1398
     14 F           6.7852   -4.3173   20.2878 F       1  UNL1       -0.2042
     15 C           6.0648   -1.8240   20.1686 C.ar    1  UNL1        0.0251
     16 C           4.9891   -0.7878   20.0297 C.ar    1  UNL1       -0.0232
     17 C           5.3445    0.6695   20.0493 C.3     1  UNL1        0.0308
     18 C           2.4662    1.6684   26.9450 C.ar    1  UNL1        0.1548
     19 C           2.5146    1.5186   25.4533 C.ar    1  UNL1        0.0415
     20 C           1.2421    1.3734   24.6724 C.ar    1  UNL1        0.0406
     21 C          -0.0787    1.3780   25.3833 C.ar    1  UNL1        0.0048
     22 C          -0.1271    1.5277   26.8750 C.ar    1  UNL1        0.0207
     23 C           1.1454    1.6729   27.6559 C.ar    1  UNL1        0.0994
     24 N           1.0970    1.8226   29.1476 N.ar    1  UNL1       -0.2839
     25 C           1.4011    0.7506   30.1517 C.ar    1  UNL1        0.1826
     26 N           1.2280    1.3361   31.5218 N.ar    1  UNL1       -0.2280
     27 C           0.8170    2.7701   31.3645 C.ar    1  UNL1        0.0786
     28 C           0.5362    3.7341   32.4789 C.3     1  UNL1        0.0538
     29 C           0.7360    3.0707   29.8972 C.ar    1  UNL1        0.0963
     30 C           4.2837    3.1787   28.0247 C.3     1  UNL1        0.2525
     31 O           3.7387    1.8136   27.7259 O.3     1  UNL1       -0.4700
@<TRIPOS>BOND
     1    30    31    1
     2    31    18    1
     3    18    19   ar
     4    19    20   ar
     5    20     1    1
     6     1     2   ar
     7     2     3   ar
     8     3     4   ar
     9     4     5   ar
    10     4     6    1
    11     6     7    1
    12     7     8    1
    13     8     9    1
    14     9    10    1
    15    10    11   ar
    16    11    12   ar
    17    12    13   ar
    18    13    14    1
    19    13    15   ar
    20    15    16   ar
    21    16    17    1
    22    20    21   ar
    23    21    22   ar
    24    22    23   ar
    25    23    24    1
    26    24    25   ar
    27    25    26   ar
    28    26    27   ar
    29    27    28    1
    30    27    29   ar
    31    23    18   ar
    32    29    24   ar
    33     5     1   ar
    34    16    10   ar
    35     9     3    1
@<TRIPOS>MOLECULE
*****
 31 35 0 0 0
SMALL
GASTEIGER

@<TRIPOS>ATOM
      1 C           4.4909   -2.0795   23.7407 C.ar    1  UNL1        0.1829
      2 N           3.7135   -1.3607   22.6782 N.ar    1  UNL1       -0.2103
      3 C           3.8166   -2.1558   21.4104 C.ar    1  UNL1        0.1414
      4 N           4.6578   -3.3660   21.6894 N.ar    1  UNL1       -0.2361
      5 N           5.0746   -3.3188   23.1296 N.ar    1  UNL1       -0.1488
      6 C           4.9356   -4.3545   20.5960 C.3     1  UNL1        0.1289
      7 C           4.3723   -4.1329   19.2237 C.3     1  UNL1        0.0272
      8 C           3.5310   -2.9227   18.9447 C.3     1  UNL1        0.0140
      9 C           3.2532   -1.9342   20.0381 C.3     1  UNL1        0.0803
     10 C           2.4120   -0.7240   19.7591 C.ar    1  UNL1       -0.0192
     11 C           1.0468   -0.6028   20.3687 C.ar    1  UNL1       -0.0019
     12 C           0.2056    0.6074   20.0897 C.ar    1  UNL1        0.0293
     13 C           0.7295    1.6963   19.2011 C.ar    1  UNL1        0.1398
     14 F          -0.1117    2.9065   18.9221 F       1  UNL1       -0.2042
     15 C           2.0947    1.5751   18.5915 C.ar    1  UNL1        0.0251
     16 C           2.9359    0.3650   18.8705 C.ar    1  UNL1       -0.0232
     17 C           4.3011    0.2438   18.2609 C.3     1  UNL1        0.0308
     18 C           3.7286   -0.4188   27.2636 C.ar    1  UNL1        0.1548
     19 C           3.5637   -0.8616   25.8400 C.ar    1  UNL1        0.0415
     20 C           4.6558   -1.6367   25.1643 C.ar    1  UNL1        0.0406
     21 C           5.9128   -1.9689   25.9123 C.ar    1  UNL1        0.0048
     22 C           6.0777   -1.5261   27.3360 C.ar    1  UNL1        0.0207
     23 C           4.9856   -0.7511   28.0116 C.ar    1  UNL1        0.0994
     24 N           5.1504   -0.3083   29.4352 N.ar    1  UNL1       -0.2839
     25 C           5.4689    1.0838   29.8944 C.ar    1  UNL1        0.1826
     26 N           5.5411    1.0726   31.3926 N.ar    1  UNL1       -0.2280
     27 C           5.2673   -0.3263   31.8594 C.ar    1  UNL1        0.0786
     28 C           5.2397   -0.7904   33.2856 C.3     1  UNL1        0.0538
     29 C           5.0259   -1.1797   30.6497 C.ar    1  UNL1        0.0963
     30 C           1.6320   -0.3550   28.7967 C.3     1  UNL1        0.2525
     31 O           2.6364    0.3562   27.9393 O.3     1  UNL1       -0.4700
@<TRIPOS>BOND
     1    30    31    1
     2    31    18    1
     3    18    19   ar
     4    19    20   ar
     5    20     1    1
     6     1     2   ar
     7     2     3   ar
     8     3     4   ar
     9     4     5   ar
    10     4     6    1
    11     6     7    1
    12     7     8    1
    13     8     9    1
    14     9    10    1
    15    10    11   ar
    16    11    12   ar
    17    12    13   ar
    18    13    14    1
    19    13    15   ar
    20    15    16   ar
    21    16    17    1
    22    20    21   ar
    23    21    22   ar
    24    22    23   ar
    25    23    24    1
    26    24    25   ar
    27    25    26   ar
    28    26    27   ar
    29    27    28    1
    30    27    29   ar
    31    23    18   ar
    32    29    24   ar
    33     5     1   ar
    34    16    10   ar
    35     9     3    1
@<TRIPOS>MOLECULE
*****
 31 35 0 0 0
SMALL
GASTEIGER

@<TRIPOS>ATOM
      1 C           2.4699    0.2608   22.4069 C.ar    1  UNL1        0.1829
      2 N           3.6800   -0.5006   21.9531 N.ar    1  UNL1       -0.2103
      3 C           3.6771   -0.5246   20.4533 C.ar    1  UNL1        0.1414
      4 N           2.4652    0.2219   19.9801 N.ar    1  UNL1       -0.2361
      5 N           1.7191    0.7073   21.1875 N.ar    1  UNL1       -0.1488
      6 C           2.1976    0.3633   18.5110 C.3     1  UNL1        0.1289
      7 C           3.1419   -0.2419   17.5151 C.3     1  UNL1        0.0272
      8 C           4.3538   -0.9885   17.9883 C.3     1  UNL1        0.0140
      9 C           4.6214   -1.1298   19.4574 C.3     1  UNL1        0.0803
     10 C           5.8333   -1.8764   19.9306 C.ar    1  UNL1       -0.0192
     11 C           7.1194   -1.1430   20.1715 C.ar    1  UNL1       -0.0019
     12 C           8.3313   -1.8895   20.6447 C.ar    1  UNL1        0.0293
     13 C           8.2571   -3.3696   20.8769 C.ar    1  UNL1        0.1398
     14 F           9.4691   -4.1161   21.3501 F       1  UNL1       -0.2042
     15 C           6.9711   -4.1030   20.6359 C.ar    1  UNL1        0.0251
     16 C           5.7592   -3.3564   20.1628 C.ar    1  UNL1       -0.0232
     17 C           4.4731   -4.0900   19.9218 C.3     1  UNL1        0.0308
     18 C           0.3449    1.3865   25.5639 C.ar    1  UNL1        0.1548
     19 C           0.7356    1.1187   24.1407 C.ar    1  UNL1        0.0415
     20 C           2.0792    0.5286   23.8301 C.ar    1  UNL1        0.0406
     21 C           3.0320    0.2063   24.9428 C.ar    1  UNL1        0.0048
     22 C           2.6413    0.4741   26.3661 C.ar    1  UNL1        0.0207
     23 C           1.2977    1.0642   26.6766 C.ar    1  UNL1        0.0994
     24 N           0.9070    1.3320   28.0999 N.ar    1  UNL1       -0.2839
     25 C           0.0607    0.4447   28.9638 C.ar    1  UNL1        0.1826
     26 N          -0.0754    1.0984   30.3069 N.ar    1  UNL1       -0.2280
     27 C           0.6869    2.3898   30.2732 C.ar    1  UNL1        0.0786
     28 C           0.8189    3.3656   31.4047 C.3     1  UNL1        0.0538
     29 C           1.2940    2.5342   28.9092 C.ar    1  UNL1        0.0963
     30 C          -1.5713    3.0446   24.9904 C.3     1  UNL1        0.2525
     31 O          -0.9988    1.9767   25.8745 O.3     1  UNL1       -0.4700
@<TRIPOS>BOND
     1    30    31    1
     2    31    18    1
     3    18    19   ar
     4    19    20   ar
     5    20     1    1
     6     1     2   ar
     7     2     3   ar
     8     3     4   ar
     9     4     5   ar
    10     4     6    1
    11     6     7    1
    12     7     8    1
    13     8     9    1
    14     9    10    1
    15    10    11   ar
    16    11    12   ar
    17    12    13   ar
    18    13    14    1
    19    13    15   ar
    20    15    16   ar
    21    16    17    1
    22    20    21   ar
    23    21    22   ar
    24    22    23   ar
    25    23    24    1
    26    24    25   ar
    27    25    26   ar
    28    26    27   ar
    29    27    28    1
    30    27    29   ar
    31    23    18   ar
    32    29    24   ar
    33     5     1   ar
    34    16    10   ar
    35     9     3    1
@<TRIPOS>MOLECULE
*****
 31 35 0 0 0
SMALL
GASTEIGER

@<TRIPOS>ATOM
      1 C           3.8218   -1.1934   24.7307 C.ar    1  UNL1        0.1829
      2 N           3.3628   -0.7914   23.3604 N.ar    1  UNL1       -0.2103
      3 C           4.1223   -1.6096   22.3586 C.ar    1  UNL1        0.1414
      4 N           5.0506   -2.5174   23.1097 N.ar    1  UNL1       -0.2361
      5 N           4.8649   -2.2601   24.5758 N.ar    1  UNL1       -0.1488
      6 C           5.9451   -3.4609   22.3617 C.3     1  UNL1        0.1289
      7 C           5.9113   -3.4967   20.8625 C.3     1  UNL1        0.0272
      8 C           4.9829   -2.5889   20.1114 C.3     1  UNL1        0.0140
      9 C           4.0884   -1.6454   20.8594 C.3     1  UNL1        0.0803
     10 C           3.1601   -0.7376   20.1083 C.ar    1  UNL1       -0.0192
     11 C           1.6761   -0.8777   20.2754 C.ar    1  UNL1       -0.0019
     12 C           0.7478    0.0301   19.5243 C.ar    1  UNL1        0.0293
     13 C           1.3035    1.0779   18.6060 C.ar    1  UNL1        0.1398
     14 F           0.3751    1.9856   17.8549 F       1  UNL1       -0.2042
     15 C           2.7875    1.2179   18.4389 C.ar    1  UNL1        0.0251
     16 C           3.7158    0.3101   19.1900 C.ar    1  UNL1       -0.0232
     17 C           5.1999    0.4502   19.0228 C.3     1  UNL1        0.0308
     18 C           2.1099    1.2543   27.3439 C.ar    1  UNL1        0.1548
     19 C           2.6069    0.6888   26.0464 C.ar    1  UNL1        0.0415
     20 C           3.3248   -0.6280   26.0282 C.ar    1  UNL1        0.0406
     21 C           3.5459   -1.3794   27.3074 C.ar    1  UNL1        0.0048
     22 C           3.0490   -0.8140   28.6049 C.ar    1  UNL1        0.0207
     23 C           2.3310    0.5028   28.6231 C.ar    1  UNL1        0.0994
     24 N           1.8341    1.0682   29.9205 N.ar    1  UNL1       -0.2839
     25 C           0.4248    1.4873   30.2175 C.ar    1  UNL1        0.1826
     26 N           0.3789    1.9919   31.6293 N.ar    1  UNL1       -0.2280
     27 C           1.7599    1.8847   32.2050 C.ar    1  UNL1        0.0786
     28 C           2.1697    2.2791   33.5930 C.3     1  UNL1        0.0538
     29 C           2.6592    1.3139   31.1489 C.ar    1  UNL1        0.0963
     30 C           2.1557    3.8385   27.6080 C.3     1  UNL1        0.2525
     31 O           1.3919    2.5712   27.3621 O.3     1  UNL1       -0.4700
@<TRIPOS>BOND
     1    30    31    1
     2    31    18    1
     3    18    19   ar
     4    19    20   ar
     5    20     1    1
     6     1     2   ar
     7     2     3   ar
     8     3     4   ar
     9     4     5   ar
    10     4     6    1
    11     6     7    1
    12     7     8    1
    13     8     9    1
    14     9    10    1
    15    10    11   ar
    16    11    12   ar
    17    12    13   ar
    18    13    14    1
    19    13    15   ar
    20    15    16   ar
    21    16    17    1
    22    20    21   ar
    23    21    22   ar
    24    22    23   ar
    25    23    24    1
    26    24    25   ar
    27    25    26   ar
    28    26    27   ar
    29    27    28    1
    30    27    29   ar
    31    23    18   ar
    32    29    24   ar
    33     5     1   ar
    34    16    10   ar
    35     9     3    1
@<TRIPOS>MOLECULE
*****
 31 35 0 0 0
SMALL
GASTEIGER

@<TRIPOS>ATOM
      1 C          -0.9233    3.0083   21.8641 C.ar    1  UNL1        0.1829
      2 N          -2.1683    3.4978   21.1856 N.ar    1  UNL1       -0.2103
      3 C          -1.8536    3.7063   19.7338 C.ar    1  UNL1        0.1414
      4 N          -0.4141    3.3457   19.5152 N.ar    1  UNL1       -0.2361
      5 N           0.1609    2.9143   20.8318 N.ar    1  UNL1       -0.1488
      6 C           0.1872    3.4568   18.1455 C.3     1  UNL1        0.1289
      7 C          -0.6510    3.9284   16.9945 C.3     1  UNL1        0.0272
      8 C          -2.0905    4.2890   17.2131 C.3     1  UNL1        0.0140
      9 C          -2.6918    4.1779   18.5828 C.3     1  UNL1        0.0803
     10 C          -4.1313    4.5385   18.8015 C.ar    1  UNL1       -0.0192
     11 C          -5.2076    3.5325   18.5198 C.ar    1  UNL1       -0.0019
     12 C          -6.6471    3.8930   18.7384 C.ar    1  UNL1        0.0293
     13 C          -7.0103    5.2597   19.2388 C.ar    1  UNL1        0.1398
     14 F          -8.4498    5.6202   19.4574 F       1  UNL1       -0.2042
     15 C          -5.9340    6.2657   19.5205 C.ar    1  UNL1        0.0251
     16 C          -4.4945    5.9051   19.3018 C.ar    1  UNL1       -0.0232
     17 C          -3.4181    6.9112   19.5836 C.3     1  UNL1        0.0308
     18 C          -1.5396    2.9977   25.7846 C.ar    1  UNL1        0.1548
     19 C          -1.6764    3.3341   24.3292 C.ar    1  UNL1        0.0415
     20 C          -0.7865    2.6719   23.3195 C.ar    1  UNL1        0.0406
     21 C           0.2402    1.6733   23.7652 C.ar    1  UNL1        0.0048
     22 C           0.3770    1.3369   25.2206 C.ar    1  UNL1        0.0207
     23 C          -0.5129    1.9991   26.2303 C.ar    1  UNL1        0.0994
     24 N          -0.3761    1.6627   27.6856 N.ar    1  UNL1       -0.2839
     25 C          -1.0322    0.5124   28.3902 C.ar    1  UNL1        0.1826
     26 N          -0.6208    0.5563   29.8320 N.ar    1  UNL1       -0.2280
     27 C           0.2896    1.7337   30.0186 C.ar    1  UNL1        0.0786
     28 C           0.9354    2.1536   31.3056 C.3     1  UNL1        0.0538
     29 C           0.4408    2.4175   28.6921 C.ar    1  UNL1        0.0963
     30 C          -3.8860    3.8578   26.4950 C.3     1  UNL1        0.2525
     31 O          -2.4296    3.6599   26.7943 O.3     1  UNL1       -0.4700
@<TRIPOS>BOND
     1    30    31    1
     2    31    18    1
     3    18    19   ar
     4    19    20   ar
     5    20     1    1
     6     1     2   ar
     7     2     3   ar
     8     3     4   ar
     9     4     5   ar
    10     4     6    1
    11     6     7    1
    12     7     8    1
    13     8     9    1
    14     9    10    1
    15    10    11   ar
    16    11    12   ar
    17    12    13   ar
    18    13    14    1
    19    13    15   ar
    20    15    16   ar
    21    16    17    1
    22    20    21   ar
    23    21    22   ar
    24    22    23   ar
    25    23    24    1
    26    24    25   ar
    27    25    26   ar
    28    26    27   ar
    29    27    28    1
    30    27    29   ar
    31    23    18   ar
    32    29    24   ar
    33     5     1   ar
    34    16    10   ar
    35     9     3    1
@<TRIPOS>MOLECULE
*****
 31 35 0 0 0
SMALL
GASTEIGER

@<TRIPOS>ATOM
      1 C         -15.9049   -2.2454   19.5454 C.ar    1  UNL1        0.1829
      2 N         -14.6846   -3.0058   19.1180 N.ar    1  UNL1       -0.2103
      3 C         -15.0167   -4.4684   19.1447 C.ar    1  UNL1        0.1414
      4 N         -16.4423   -4.6119   19.5887 N.ar    1  UNL1       -0.2361
      5 N         -16.9912   -3.2380   19.8363 N.ar    1  UNL1       -0.1488
      6 C         -17.0564   -5.9750   19.7101 C.3     1  UNL1        0.1289
      7 C         -16.2449   -7.1945   19.3876 C.3     1  UNL1        0.0272
      8 C         -14.8193   -7.0510   18.9436 C.3     1  UNL1        0.0140
      9 C         -14.2052   -5.6879   18.8222 C.3     1  UNL1        0.0803
     10 C         -12.7796   -5.5444   18.3782 C.ar    1  UNL1       -0.0192
     11 C         -11.7314   -5.0990   19.3543 C.ar    1  UNL1       -0.0019
     12 C         -10.3058   -4.9554   18.9103 C.ar    1  UNL1        0.0293
     13 C          -9.9284   -5.2574   17.4903 C.ar    1  UNL1        0.1398
     14 F          -8.5028   -5.1138   17.0464 F       1  UNL1       -0.2042
     15 C         -10.9767   -5.7028   16.5143 C.ar    1  UNL1        0.0251
     16 C         -12.4023   -5.8463   16.9583 C.ar    1  UNL1       -0.0232
     17 C         -13.4506   -6.2918   15.9821 C.3     1  UNL1        0.0308
     18 C         -15.1493    1.6215   19.0706 C.ar    1  UNL1        0.1548
     19 C         -15.0353    0.1304   18.9545 C.ar    1  UNL1        0.0415
     20 C         -16.0188   -0.7543   19.6615 C.ar    1  UNL1        0.0406
     21 C         -17.1163   -0.1478   20.4847 C.ar    1  UNL1        0.0048
     22 C         -17.2303    1.3433   20.6008 C.ar    1  UNL1        0.0207
     23 C         -16.2467    2.2280   19.8938 C.ar    1  UNL1        0.0994
     24 N         -16.3607    3.7192   20.0099 N.ar    1  UNL1       -0.2839
     25 C         -17.2156    4.6073   19.1553 C.ar    1  UNL1        0.1826
     26 N         -17.0231    6.0210   19.6182 N.ar    1  UNL1       -0.2280
     27 C         -16.0491    6.0066   20.7589 C.ar    1  UNL1        0.0786
     28 C         -15.5688    7.2045   21.5234 C.3     1  UNL1        0.0538
     29 C         -15.6397    4.5840   21.0010 C.ar    1  UNL1        0.0963
     30 C         -13.5387    2.0535   17.0782 C.3     1  UNL1        0.2525
     31 O         -14.1656    2.5062   18.3635 O.3     1  UNL1       -0.4700
@<TRIPOS>BOND
     1    30    31    1
     2    31    18    1
     3    18    19   ar
     4    19    20   ar
     5    20     1    1
     6     1     2   ar
     7     2     3   ar
     8     3     4   ar
     9     4     5   ar
    10     4     6    1
    11     6     7    1
    12     7     8    1
    13     8     9    1
    14     9    10    1
    15    10    11   ar
    16    11    12   ar
    17    12    13   ar
    18    13    14    1
    19    13    15   ar
    20    15    16   ar
    21    16    17    1
    22    20    21   ar
    23    21    22   ar
    24    22    23   ar
    25    23    24    1
    26    24    25   ar
    27    25    26   ar
    28    26    27   ar
    29    27    28    1
    30    27    29   ar
    31    23    18   ar
    32    29    24   ar
    33     5     1   ar
    34    16    10   ar
    35     9     3    1
