@<TRIPOS>MOLECULE
*****
 25 28 0 0 0
SMALL
GASTEIGER

@<TRIPOS>ATOM
      1 N          -8.6387  -15.7046   24.2210 N.3     1  UNL1       -0.3204
      2 C          -7.9171  -16.8320   23.5439 C.3     1  UNL1        0.0783
      3 C          -6.4288  -16.7711   23.3671 C.3     1  UNL1        0.1229
      4 N          -5.7071  -17.8984   22.6901 N.ar    1  UNL1       -0.3134
      5 C          -6.4738  -19.0867   22.1899 C.ar    1  UNL1        0.1207
      6 N          -5.4972  -20.0394   21.5666 N.ar    1  UNL1       -0.2294
      7 C          -4.1270  -19.4400   21.6815 C.ar    1  UNL1        0.1174
      8 C          -2.7780  -19.9281   21.2435 C.ar    1  UNL1        0.1194
      9 N          -1.5587  -19.0930   21.4999 N.ar    1  UNL1       -0.2406
     10 C          -1.6884  -17.7697   22.1943 C.ar    1  UNL1        0.1005
     11 C          -3.0374  -17.2816   22.6323 C.ar    1  UNL1        0.0394
     12 C          -4.2567  -18.1168   22.3759 C.ar    1  UNL1        0.0818
     13 C          -7.9621  -19.1476   22.3668 C.3     1  UNL1        0.0698
     14 C          -8.6837  -18.0203   23.0438 C.3     1  UNL1        0.0482
     15 H          -7.9676  -14.9867   24.4941 H       1  UNL1        0.1189
     16 H          -9.1168  -16.0564   25.0505 H       1  UNL1        0.1189
     17 C         -10.1721  -18.0813   23.2206 C.ar    1  UNL1        0.0091
     18 C         -11.0781  -17.6693   22.0984 C.ar    1  UNL1        0.0300
     19 C         -12.5665  -17.7303   22.2752 C.ar    1  UNL1        0.1672
     20 F         -13.4725  -17.3184   21.1531 F       1  UNL1       -0.2018
     21 C         -13.1486  -18.2031   23.5742 C.ar    1  UNL1        0.1696
     22 F         -14.6369  -18.2641   23.7510 F       1  UNL1       -0.2017
     23 C         -12.2425  -18.6151   24.6964 C.ar    1  UNL1        0.0612
     24 C         -10.7542  -18.5541   24.5195 C.ar    1  UNL1        0.1386
     25 F          -9.8481  -18.9660   25.6417 F       1  UNL1       -0.2044
@<TRIPOS>BOND
     1     2     1    1
     2     2     3    1
     3     3     4    1
     4     4     5   ar
     5     5     6   ar
     6     6     7   ar
     7     7     8   ar
     8     8     9   ar
     9     9    10   ar
    10    10    11   ar
    11    11    12   ar
    12     5    13    1
    13    13    14    1
    14    14    17    1
    15    17    18   ar
    16    18    19   ar
    17    19    20    1
    18    19    21   ar
    19    21    22    1
    20    21    23   ar
    21    23    24   ar
    22    24    25    1
    23    14     2    1
    24    24    17   ar
    25    12     4   ar
    26    12     7   ar
    27     1    15    1
    28     1    16    1
@<TRIPOS>MOLECULE
*****
 25 28 0 0 0
SMALL
GASTEIGER

@<TRIPOS>ATOM
      1 N          -9.4726  -19.6166   19.8859 N.3     1  UNL1       -0.3204
      2 C          -8.3003  -19.1722   20.7097 C.3     1  UNL1        0.0783
      3 C          -6.9069  -19.3282   20.1766 C.3     1  UNL1        0.1229
      4 N          -5.7347  -18.8839   21.0003 N.ar    1  UNL1       -0.3134
      5 C          -5.9559  -18.2836   22.3570 C.ar    1  UNL1        0.1207
      6 N          -4.6154  -17.9398   22.9358 N.ar    1  UNL1       -0.2294
      7 C          -3.5658  -18.3276   21.9369 C.ar    1  UNL1        0.1174
      8 C          -2.0696  -18.2248   21.9619 C.ar    1  UNL1        0.1194
      9 N          -1.2651  -18.7055   20.7908 N.ar    1  UNL1       -0.2406
     10 C          -1.9569  -19.2890   19.5945 C.ar    1  UNL1        0.1005
     11 C          -3.4531  -19.3918   19.5695 C.ar    1  UNL1        0.0394
     12 C          -4.2576  -18.9111   20.7406 C.ar    1  UNL1        0.0818
     13 C          -7.3493  -18.1276   22.8901 C.3     1  UNL1        0.0698
     14 C          -8.5215  -18.5719   22.0664 C.3     1  UNL1        0.0482
     15 H          -9.1406  -19.9972   18.9997 H       1  UNL1        0.1189
     16 H         -10.0834  -18.8197   19.7062 H       1  UNL1        0.1189
     17 C          -9.9149  -18.4159   22.5994 C.ar    1  UNL1        0.0091
     18 C         -10.7428  -17.2309   22.1990 C.ar    1  UNL1        0.0300
     19 C         -12.1362  -17.0749   22.7321 C.ar    1  UNL1        0.1672
     20 F         -12.9641  -15.8900   22.3316 F       1  UNL1       -0.2018
     21 C         -12.7016  -18.1039   23.6655 C.ar    1  UNL1        0.1696
     22 F         -14.0950  -17.9479   24.1985 F       1  UNL1       -0.2017
     23 C         -11.8737  -19.2889   24.0659 C.ar    1  UNL1        0.0612
     24 C         -10.4803  -19.4449   23.5329 C.ar    1  UNL1        0.1386
     25 F          -9.6524  -20.6299   23.9333 F       1  UNL1       -0.2044
@<TRIPOS>BOND
     1     2     1    1
     2     2     3    1
     3     3     4    1
     4     4     5   ar
     5     5     6   ar
     6     6     7   ar
     7     7     8   ar
     8     8     9   ar
     9     9    10   ar
    10    10    11   ar
    11    11    12   ar
    12     5    13    1
    13    13    14    1
    14    14    17    1
    15    17    18   ar
    16    18    19   ar
    17    19    20    1
    18    19    21   ar
    19    21    22    1
    20    21    23   ar
    21    23    24   ar
    22    24    25    1
    23    14     2    1
    24    24    17   ar
    25    12     4   ar
    26    12     7   ar
    27     1    15    1
    28     1    16    1
@<TRIPOS>MOLECULE
*****
 25 28 0 0 0
SMALL
GASTEIGER

@<TRIPOS>ATOM
      1 N          -8.8389  -15.7133   24.1318 N.3     1  UNL1       -0.3204
      2 C          -8.1024  -16.8388   23.4676 C.3     1  UNL1        0.0783
      3 C          -6.6067  -16.7972   23.3617 C.3     1  UNL1        0.1229
      4 N          -5.8702  -17.9225   22.6976 N.ar    1  UNL1       -0.3134
      5 C          -6.6294  -19.0895   22.1393 C.ar    1  UNL1        0.1207
      6 N          -5.6383  -20.0452   21.5440 N.ar    1  UNL1       -0.2294
      7 C          -4.2666  -19.4689   21.7344 C.ar    1  UNL1        0.1174
      8 C          -2.9056  -19.9691   21.3506 C.ar    1  UNL1        0.1194
      9 N          -1.6879  -19.1575   21.6799 N.ar    1  UNL1       -0.2406
     10 C          -1.8312  -17.8456   22.3929 C.ar    1  UNL1        0.1005
     11 C          -3.1922  -17.3453   22.7766 C.ar    1  UNL1        0.0394
     12 C          -4.4099  -18.1569   22.4474 C.ar    1  UNL1        0.0818
     13 C          -8.1251  -19.1311   22.2451 C.3     1  UNL1        0.0698
     14 C          -8.8616  -18.0058   22.9092 C.3     1  UNL1        0.0482
     15 H          -8.1711  -15.0109   24.4498 H       1  UNL1        0.1189
     16 H          -9.3604  -16.0732   24.9311 H       1  UNL1        0.1189
     17 C         -10.3573  -18.0474   23.0151 C.ar    1  UNL1        0.0091
     18 C         -11.0069  -18.4454   24.3071 C.ar    1  UNL1        0.0300
     19 C         -12.5026  -18.4870   24.4130 C.ar    1  UNL1        0.1672
     20 F         -13.1523  -18.8850   25.7050 F       1  UNL1       -0.2018
     21 C         -13.3486  -18.1306   23.2267 C.ar    1  UNL1        0.1696
     22 F         -14.8443  -18.1722   23.3325 F       1  UNL1       -0.2017
     23 C         -12.6989  -17.7326   21.9346 C.ar    1  UNL1        0.0612
     24 C         -11.2032  -17.6910   21.8288 C.ar    1  UNL1        0.1386
     25 F         -10.5535  -17.2930   20.5367 F       1  UNL1       -0.2044
@<TRIPOS>BOND
     1     2     1    1
     2     2     3    1
     3     3     4    1
     4     4     5   ar
     5     5     6   ar
     6     6     7   ar
     7     7     8   ar
     8     8     9   ar
     9     9    10   ar
    10    10    11   ar
    11    11    12   ar
    12     5    13    1
    13    13    14    1
    14    14    17    1
    15    17    18   ar
    16    18    19   ar
    17    19    20    1
    18    19    21   ar
    19    21    22    1
    20    21    23   ar
    21    23    24   ar
    22    24    25    1
    23    14     2    1
    24    24    17   ar
    25    12     4   ar
    26    12     7   ar
    27     1    15    1
    28     1    16    1
@<TRIPOS>MOLECULE
*****
 25 28 0 0 0
SMALL
GASTEIGER

@<TRIPOS>ATOM
      1 N          -6.2415  -21.1701   22.3379 N.3     1  UNL1       -0.3204
      2 C          -6.9772  -19.8664   22.2411 C.3     1  UNL1        0.0783
      3 C          -8.4275  -19.7939   22.6172 C.3     1  UNL1        0.1229
      4 N          -9.1631  -18.4903   22.5205 N.ar    1  UNL1       -0.3134
      5 C          -8.4484  -17.2592   22.0476 C.ar    1  UNL1        0.1207
      6 N          -9.4279  -16.1232   22.0549 N.ar    1  UNL1       -0.2294
      7 C         -10.7479  -16.6522   22.5322 C.ar    1  UNL1        0.1174
      8 C         -12.0777  -15.9907   22.7420 C.ar    1  UNL1        0.1194
      9 N         -13.2438  -16.7922   23.2395 N.ar    1  UNL1       -0.2406
     10 C         -13.0802  -18.2553   23.5273 C.ar    1  UNL1        0.1005
     11 C         -11.7504  -18.9167   23.3175 C.ar    1  UNL1        0.0394
     12 C         -10.5842  -18.1152   22.8199 C.ar    1  UNL1        0.0818
     13 C          -6.9981  -17.3317   21.6716 C.3     1  UNL1        0.0698
     14 C          -6.2625  -18.6353   21.7683 C.3     1  UNL1        0.0482
     15 H          -6.8761  -21.8945   22.6741 H       1  UNL1        0.1189
     16 H          -5.4616  -21.0730   22.9880 H       1  UNL1        0.1189
     17 C          -4.8122  -18.7078   21.3923 C.ar    1  UNL1        0.0091
     18 C          -4.4186  -18.9520   19.9656 C.ar    1  UNL1        0.0300
     19 C          -2.9683  -19.0245   19.5895 C.ar    1  UNL1        0.1672
     20 F          -2.5748  -19.2688   18.1628 F       1  UNL1       -0.2018
     21 C          -1.9117  -18.8528   20.6401 C.ar    1  UNL1        0.1696
     22 F          -0.4614  -18.9253   20.2641 F       1  UNL1       -0.2017
     23 C          -2.3053  -18.6085   22.0668 C.ar    1  UNL1        0.0612
     24 C          -3.7556  -18.5360   22.4429 C.ar    1  UNL1        0.1386
     25 F          -4.1491  -18.2918   23.8695 F       1  UNL1       -0.2044
@<TRIPOS>BOND
     1     2     1    1
     2     2     3    1
     3     3     4    1
     4     4     5   ar
     5     5     6   ar
     6     6     7   ar
     7     7     8   ar
     8     8     9   ar
     9     9    10   ar
    10    10    11   ar
    11    11    12   ar
    12     5    13    1
    13    13    14    1
    14    14    17    1
    15    17    18   ar
    16    18    19   ar
    17    19    20    1
    18    19    21   ar
    19    21    22    1
    20    21    23   ar
    21    23    24   ar
    22    24    25    1
    23    14     2    1
    24    24    17   ar
    25    12     4   ar
    26    12     7   ar
    27     1    15    1
    28     1    16    1
@<TRIPOS>MOLECULE
*****
 25 28 0 0 0
SMALL
GASTEIGER

@<TRIPOS>ATOM
      1 N          -8.4467  -19.2890   19.6942 N.3     1  UNL1       -0.3204
      2 C          -7.2318  -18.9141   20.4904 C.3     1  UNL1        0.0783
      3 C          -5.8799  -18.9141   19.8406 C.3     1  UNL1        0.1229
      4 N          -4.6651  -18.5391   20.6366 N.ar    1  UNL1       -0.3134
      5 C          -4.8023  -18.1641   22.0825 C.ar    1  UNL1        0.1207
      6 N          -3.4353  -17.8424   22.6096 N.ar    1  UNL1       -0.2294
      7 C          -2.4533  -18.0185   21.4895 C.ar    1  UNL1        0.1174
      8 C          -0.9652  -17.8424   21.4223 C.ar    1  UNL1        0.1194
      9 N          -0.2372  -18.0970   20.1358 N.ar    1  UNL1       -0.2406
     10 C          -0.9973  -18.5276   18.9165 C.ar    1  UNL1        0.1005
     11 C          -2.4854  -18.7037   18.9836 C.ar    1  UNL1        0.0394
     12 C          -3.2134  -18.4491   20.2701 C.ar    1  UNL1        0.0818
     13 C          -6.1543  -18.1641   22.7323 C.3     1  UNL1        0.0698
     14 C          -7.3690  -18.5391   21.9362 C.3     1  UNL1        0.0482
     15 H          -8.1708  -19.5128   18.7381 H       1  UNL1        0.1189
     16 H          -9.1017  -18.5073   19.6850 H       1  UNL1        0.1189
     17 C          -8.7210  -18.5391   22.5861 C.ar    1  UNL1        0.0091
     18 C          -9.1617  -19.7191   23.4005 C.ar    1  UNL1        0.0300
     19 C         -10.5137  -19.7190   24.0503 C.ar    1  UNL1        0.1672
     20 F         -10.9544  -20.8991   24.8647 F       1  UNL1       -0.2018
     21 C         -11.4248  -18.5390   23.8856 C.ar    1  UNL1        0.1696
     22 F         -12.7768  -18.5390   24.5355 F       1  UNL1       -0.2017
     23 C         -10.9841  -17.3590   23.0712 C.ar    1  UNL1        0.0612
     24 C          -9.6322  -17.3590   22.4214 C.ar    1  UNL1        0.1386
     25 F          -9.1915  -16.1790   21.6070 F       1  UNL1       -0.2044
@<TRIPOS>BOND
     1     2     1    1
     2     2     3    1
     3     3     4    1
     4     4     5   ar
     5     5     6   ar
     6     6     7   ar
     7     7     8   ar
     8     8     9   ar
     9     9    10   ar
    10    10    11   ar
    11    11    12   ar
    12     5    13    1
    13    13    14    1
    14    14    17    1
    15    17    18   ar
    16    18    19   ar
    17    19    20    1
    18    19    21   ar
    19    21    22    1
    20    21    23   ar
    21    23    24   ar
    22    24    25    1
    23    14     2    1
    24    24    17   ar
    25    12     4   ar
    26    12     7   ar
    27     1    15    1
    28     1    16    1
@<TRIPOS>MOLECULE
*****
 25 28 0 0 0
SMALL
GASTEIGER

@<TRIPOS>ATOM
      1 N         -13.8323   -4.1977   19.8940 N.3     1  UNL1       -0.3204
      2 C         -13.2595   -3.0883   19.0626 C.3     1  UNL1        0.0783
      3 C         -13.8684   -1.7185   19.1178 C.3     1  UNL1        0.1229
      4 N         -13.2957   -0.6091   18.2865 N.ar    1  UNL1       -0.3134
      5 C         -12.1140   -0.8694   17.4000 C.ar    1  UNL1        0.1207
      6 N         -11.7688    0.4115   16.6999 N.ar    1  UNL1       -0.2294
      7 C         -12.7370    1.4634   17.1537 C.ar    1  UNL1        0.1174
      8 C         -12.8813    2.9141   16.8007 C.ar    1  UNL1        0.1194
      9 N         -13.9693    3.7340   17.4283 N.ar    1  UNL1       -0.2406
     10 C         -14.9130    3.1033   18.4089 C.ar    1  UNL1        0.1005
     11 C         -14.7687    1.6526   18.7618 C.ar    1  UNL1        0.0394
     12 C         -13.6807    0.8326   18.1343 C.ar    1  UNL1        0.0818
     13 C         -11.5051   -2.2392   17.3448 C.3     1  UNL1        0.0698
     14 C         -12.0779   -3.3486   18.1761 C.3     1  UNL1        0.0482
     15 H         -14.6249   -3.8458   20.4310 H       1  UNL1        0.1189
     16 H         -13.1179   -4.5480   20.5322 H       1  UNL1        0.1189
     17 C         -11.4689   -4.7183   18.1209 C.ar    1  UNL1        0.0091
     18 C         -10.3688   -5.0889   19.0709 C.ar    1  UNL1        0.0300
     19 C          -9.7599   -6.4586   19.0157 C.ar    1  UNL1        0.1672
     20 F          -8.6598   -6.8292   19.9657 F       1  UNL1       -0.2018
     21 C         -10.2511   -7.4578   18.0106 C.ar    1  UNL1        0.1696
     22 F          -9.6422   -8.8275   17.9554 F       1  UNL1       -0.2017
     23 C         -11.3512   -7.0872   17.0606 C.ar    1  UNL1        0.0612
     24 C         -11.9601   -5.7175   17.1158 C.ar    1  UNL1        0.1386
     25 F         -13.0602   -5.3469   16.1658 F       1  UNL1       -0.2044
@<TRIPOS>BOND
     1     2     1    1
     2     2     3    1
     3     3     4    1
     4     4     5   ar
     5     5     6   ar
     6     6     7   ar
     7     7     8   ar
     8     8     9   ar
     9     9    10   ar
    10    10    11   ar
    11    11    12   ar
    12     5    13    1
    13    13    14    1
    14    14    17    1
    15    17    18   ar
    16    18    19   ar
    17    19    20    1
    18    19    21   ar
    19    21    22    1
    20    21    23   ar
    21    23    24   ar
    22    24    25    1
    23    14     2    1
    24    24    17   ar
    25    12     4   ar
    26    12     7   ar
    27     1    15    1
    28     1    16    1
@<TRIPOS>MOLECULE
*****
 25 28 0 0 0
SMALL
GASTEIGER

@<TRIPOS>ATOM
      1 N         -10.3619   -2.3205   17.2632 N.3     1  UNL1       -0.3204
      2 C         -11.7249   -2.2445   17.8851 C.3     1  UNL1        0.0783
      3 C         -12.4100   -0.9180   18.0306 C.3     1  UNL1        0.1229
      4 N         -13.7728   -0.8420   18.6525 N.ar    1  UNL1       -0.3134
      5 C         -14.4506   -2.0924   19.1289 C.ar    1  UNL1        0.1207
      6 N         -15.7846   -1.7087   19.6975 N.ar    1  UNL1       -0.2294
      7 C         -15.9312   -0.2211   19.5725 C.ar    1  UNL1        0.1174
      8 C         -17.0363    0.7149   19.9633 C.ar    1  UNL1        0.1194
      9 N         -16.8979    2.1865   19.7082 N.ar    1  UNL1       -0.2406
     10 C         -15.6546    2.7222   19.0624 C.ar    1  UNL1        0.1005
     11 C         -14.5495    1.7862   18.6716 C.ar    1  UNL1        0.0394
     12 C         -14.6879    0.3145   18.9266 C.ar    1  UNL1        0.0818
     13 C         -13.7656   -3.4189   18.9834 C.3     1  UNL1        0.0698
     14 C         -12.4027   -3.4950   18.3615 C.3     1  UNL1        0.0482
     15 H         -10.0557   -1.3839   16.9998 H       1  UNL1        0.1189
     16 H         -10.3995   -2.9120   16.4331 H       1  UNL1        0.1189
     17 C         -11.7176   -4.8215   18.2161 C.ar    1  UNL1        0.0091
     18 C         -10.5788   -5.1810   19.1238 C.ar    1  UNL1        0.0300
     19 C          -9.8938   -6.5075   18.9783 C.ar    1  UNL1        0.1672
     20 F          -8.7550   -6.8670   19.8860 F       1  UNL1       -0.2018
     21 C         -10.3475   -7.4743   17.9251 C.ar    1  UNL1        0.1696
     22 F          -9.6624   -8.8008   17.7797 F       1  UNL1       -0.2017
     23 C         -11.4863   -7.1148   17.0175 C.ar    1  UNL1        0.0612
     24 C         -12.1713   -5.7883   17.1629 C.ar    1  UNL1        0.1386
     25 F         -13.3101   -5.4288   16.2552 F       1  UNL1       -0.2044
@<TRIPOS>BOND
     1     2     1    1
     2     2     3    1
     3     3     4    1
     4     4     5   ar
     5     5     6   ar
     6     6     7   ar
     7     7     8   ar
     8     8     9   ar
     9     9    10   ar
    10    10    11   ar
    11    11    12   ar
    12     5    13    1
    13    13    14    1
    14    14    17    1
    15    17    18   ar
    16    18    19   ar
    17    19    20    1
    18    19    21   ar
    19    21    22    1
    20    21    23   ar
    21    23    24   ar
    22    24    25    1
    23    14     2    1
    24    24    17   ar
    25    12     4   ar
    26    12     7   ar
    27     1    15    1
    28     1    16    1
@<TRIPOS>MOLECULE
*****
 25 28 0 0 0
SMALL
GASTEIGER

@<TRIPOS>ATOM
      1 N         -13.7685   -4.4491   20.1984 N.3     1  UNL1       -0.3204
      2 C         -13.3246   -3.3296   19.3040 C.3     1  UNL1        0.0783
      3 C         -13.9614   -1.9768   19.4234 C.3     1  UNL1        0.1229
      4 N         -13.5177   -0.8574   18.5290 N.ar    1  UNL1       -0.3134
      5 C         -12.4371   -1.0908   17.5152 C.ar    1  UNL1        0.1207
      6 N         -12.2092    0.1946   16.7764 N.ar    1  UNL1       -0.2294
      7 C         -13.1489    1.2224   17.3336 C.ar    1  UNL1        0.1174
      8 C         -13.3726    2.6664   16.9946 C.ar    1  UNL1        0.1194
      9 N         -14.4051    3.4601   17.7388 N.ar    1  UNL1       -0.2406
     10 C         -15.2138    2.8100   18.8220 C.ar    1  UNL1        0.1005
     11 C         -14.9900    1.3661   19.1610 C.ar    1  UNL1        0.0394
     12 C         -13.9576    0.5723   18.4168 C.ar    1  UNL1        0.0818
     13 C         -11.8003   -2.4437   17.3957 C.3     1  UNL1        0.0698
     14 C         -12.2441   -3.5631   18.2901 C.3     1  UNL1        0.0482
     15 H         -14.5047   -4.1157   20.8206 H       1  UNL1        0.1189
     16 H         -12.9769   -4.7756   20.7527 H       1  UNL1        0.1189
     17 C         -11.6073   -4.9160   18.1707 C.ar    1  UNL1        0.0091
     18 C         -12.3260   -6.0230   17.4580 C.ar    1  UNL1        0.0300
     19 C         -11.6892   -7.3758   17.3386 C.ar    1  UNL1        0.1672
     20 F         -12.4080   -8.4828   16.6259 F       1  UNL1       -0.2018
     21 C         -10.3337   -7.6216   17.9318 C.ar    1  UNL1        0.1696
     22 F          -9.6969   -8.9745   17.8124 F       1  UNL1       -0.2017
     23 C          -9.6149   -6.5147   18.6445 C.ar    1  UNL1        0.0612
     24 C         -10.2517   -5.1618   18.7639 C.ar    1  UNL1        0.1386
     25 F          -9.5330   -4.0548   19.4766 F       1  UNL1       -0.2044
@<TRIPOS>BOND
     1     2     1    1
     2     2     3    1
     3     3     4    1
     4     4     5   ar
     5     5     6   ar
     6     6     7   ar
     7     7     8   ar
     8     8     9   ar
     9     9    10   ar
    10    10    11   ar
    11    11    12   ar
    12     5    13    1
    13    13    14    1
    14    14    17    1
    15    17    18   ar
    16    18    19   ar
    17    19    20    1
    18    19    21   ar
    19    21    22    1
    20    21    23   ar
    21    23    24   ar
    22    24    25    1
    23    14     2    1
    24    24    17   ar
    25    12     4   ar
    26    12     7   ar
    27     1    15    1
    28     1    16    1
@<TRIPOS>MOLECULE
*****
 25 28 0 0 0
SMALL
GASTEIGER

@<TRIPOS>ATOM
      1 N           6.7531   -5.5310   32.2547 N.3     1  UNL1       -0.3204
      2 C           6.8912   -4.9459   30.8804 C.3     1  UNL1        0.0783
      3 C           7.0905   -5.8472   29.6980 C.3     1  UNL1        0.1229
      4 N           7.2285   -5.2622   28.3238 N.ar    1  UNL1       -0.3134
      5 C           7.1673   -3.7758   28.1318 C.ar    1  UNL1        0.1207
      6 N           7.3337   -3.4902   26.6687 N.ar    1  UNL1       -0.2294
      7 C           7.4977   -4.8000   25.9564 C.ar    1  UNL1        0.1174
      8 C           7.6978   -5.1370   24.5085 C.ar    1  UNL1        0.1194
      9 N           7.8329   -6.5691   24.0836 N.ar    1  UNL1       -0.2406
     10 C           7.7679   -7.6643   25.1065 C.ar    1  UNL1        0.1005
     11 C           7.5678   -7.3274   26.5543 C.ar    1  UNL1        0.0394
     12 C           7.4327   -5.8952   26.9793 C.ar    1  UNL1        0.0818
     13 C           6.9681   -2.8744   29.3142 C.3     1  UNL1        0.0698
     14 C           6.8300   -3.4595   30.6884 C.3     1  UNL1        0.0482
     15 H           6.8182   -6.5474   32.1996 H       1  UNL1        0.1189
     16 H           5.8485   -5.2690   32.6465 H       1  UNL1        0.1189
     17 C           6.6307   -2.5581   31.8708 C.ar    1  UNL1        0.0091
     18 C           5.2666   -2.4049   32.4756 C.ar    1  UNL1        0.0300
     19 C           5.0674   -1.5036   33.6579 C.ar    1  UNL1        0.1672
     20 F           3.7033   -1.3503   34.2627 F       1  UNL1       -0.2018
     21 C           6.2322   -0.7555   34.2354 C.ar    1  UNL1        0.1696
     22 F           6.0329    0.1459   35.4177 F       1  UNL1       -0.2017
     23 C           7.5962   -0.9087   33.6306 C.ar    1  UNL1        0.0612
     24 C           7.7955   -1.8101   32.4482 C.ar    1  UNL1        0.1386
     25 F           9.1596   -1.9633   31.8434 F       1  UNL1       -0.2044
@<TRIPOS>BOND
     1     2     1    1
     2     2     3    1
     3     3     4    1
     4     4     5   ar
     5     5     6   ar
     6     6     7   ar
     7     7     8   ar
     8     8     9   ar
     9     9    10   ar
    10    10    11   ar
    11    11    12   ar
    12     5    13    1
    13    13    14    1
    14    14    17    1
    15    17    18   ar
    16    18    19   ar
    17    19    20    1
    18    19    21   ar
    19    21    22    1
    20    21    23   ar
    21    23    24   ar
    22    24    25    1
    23    14     2    1
    24    24    17   ar
    25    12     4   ar
    26    12     7   ar
    27     1    15    1
    28     1    16    1
