@<TRIPOS>MOLECULE
*****
 20 23 0 0 0
SMALL
GASTEIGER

@<TRIPOS>ATOM
      1 C         -12.9368  -16.2799   20.4668 C.3     1  UNL1        0.0899
      2 N         -11.5903  -16.8891   20.7235 N.3     1  UNL1       -0.2671
      3 C         -11.0926  -18.0033   19.8513 C.3     1  UNL1        0.0989
      4 C          -9.7460  -18.6125   20.1080 C.ar    1  UNL1       -0.0098
      5 C          -9.2483  -19.7267   19.2358 C.ar    1  UNL1       -0.0032
      6 C          -7.9019  -20.3358   19.4925 C.ar    1  UNL1       -0.0003
      7 C          -7.0532  -19.8308   20.6215 C.ar    1  UNL1       -0.0003
      8 C          -7.5509  -18.7166   21.4938 C.ar    1  UNL1       -0.0042
      9 C          -8.8973  -18.1075   21.2370 C.ar    1  UNL1       -0.0197
     10 C          -9.3951  -16.9932   22.1092 C.3     1  UNL1        0.0602
     11 C         -10.7416  -16.3841   21.8525 C.3     1  UNL1        0.0811
     12 C          -8.5464  -16.4882   23.2382 C.ar    1  UNL1       -0.0170
     13 C          -7.2852  -15.7299   22.9474 C.ar    1  UNL1       -0.0034
     14 C          -6.4365  -15.2249   24.0764 C.ar    1  UNL1        0.0062
     15 C          -6.8490  -15.4782   25.4962 C.ar    1  UNL1        0.0295
     16 S          -6.2197  -15.1056   26.8058 S.2     1  UNL1       -0.0864
     17 C          -7.0919  -15.6336   27.9060 C.ar    1  UNL1        0.0354
     18 C          -8.2602  -16.3324   27.2764 C.ar    1  UNL1        0.0075
     19 C          -8.1101  -16.2364   25.7870 C.ar    1  UNL1        0.0062
     20 C          -8.9588  -16.7414   24.6580 C.ar    1  UNL1       -0.0034
@<TRIPOS>BOND
     1     1     2    1
     2     2     3    1
     3     3     4    1
     4     4     5   ar
     5     5     6   ar
     6     6     7   ar
     7     7     8   ar
     8     8     9   ar
     9     9    10    1
    10    10    12    1
    11    12    13   ar
    12    13    14   ar
    13    14    15   ar
    14    15    16   ar
    15    16    17   ar
    16    17    18   ar
    17    18    19   ar
    18    19    20   ar
    19    10    11    1
    20    11     2    1
    21     9     4   ar
    22    20    12   ar
    23    19    15   ar
@<TRIPOS>MOLECULE
*****
 20 23 0 0 0
SMALL
GASTEIGER

@<TRIPOS>ATOM
      1 C         -13.4199   -1.2066   18.5522 C.3     1  UNL1        0.0899
      2 N         -12.9999   -2.6463   18.5848 N.3     1  UNL1       -0.2671
      3 C         -11.5585   -3.0024   18.7983 C.3     1  UNL1        0.0989
      4 C         -11.1385   -4.4420   18.8310 C.ar    1  UNL1       -0.0098
      5 C          -9.6971   -4.7981   19.0444 C.ar    1  UNL1       -0.0032
      6 C          -9.2771   -6.2377   19.0770 C.ar    1  UNL1       -0.0003
      7 C         -10.2985   -7.3212   18.8963 C.ar    1  UNL1       -0.0003
      8 C         -11.7399   -6.9652   18.6829 C.ar    1  UNL1       -0.0042
      9 C         -12.1599   -5.5256   18.6502 C.ar    1  UNL1       -0.0197
     10 C         -13.6013   -5.1694   18.4367 C.3     1  UNL1        0.0602
     11 C         -14.0213   -3.7298   18.4041 C.3     1  UNL1        0.0811
     12 C         -14.6227   -6.2530   18.2560 C.ar    1  UNL1       -0.0170
     13 C         -14.8223   -6.8781   16.9071 C.ar    1  UNL1       -0.0034
     14 C         -15.8437   -7.9616   16.7263 C.ar    1  UNL1        0.0062
     15 C         -16.6655   -8.4201   17.8944 C.ar    1  UNL1        0.0295
     16 S         -17.7393   -9.4599   18.0197 S.2     1  UNL1       -0.0864
     17 C         -18.2033   -9.4775   19.4460 C.ar    1  UNL1        0.0354
     18 C         -17.4163   -8.4485   20.2022 C.ar    1  UNL1        0.0075
     19 C         -16.4659   -7.7950   19.2433 C.ar    1  UNL1        0.0062
     20 C         -15.4445   -6.7114   19.4240 C.ar    1  UNL1       -0.0034
@<TRIPOS>BOND
     1     1     2    1
     2     2     3    1
     3     3     4    1
     4     4     5   ar
     5     5     6   ar
     6     6     7   ar
     7     7     8   ar
     8     8     9   ar
     9     9    10    1
    10    10    12    1
    11    12    13   ar
    12    13    14   ar
    13    14    15   ar
    14    15    16   ar
    15    16    17   ar
    16    17    18   ar
    17    18    19   ar
    18    19    20   ar
    19    10    11    1
    20    11     2    1
    21     9     4   ar
    22    20    12   ar
    23    19    15   ar
@<TRIPOS>MOLECULE
*****
 20 23 0 0 0
SMALL
GASTEIGER

@<TRIPOS>ATOM
      1 C          -5.0939  -20.9672   20.2748 C.3     1  UNL1        0.0899
      2 N          -5.6435  -19.8511   21.1129 N.3     1  UNL1       -0.2671
      3 C          -4.7111  -18.9510   21.8681 C.3     1  UNL1        0.0989
      4 C          -5.2608  -17.8349   22.7062 C.ar    1  UNL1       -0.0098
      5 C          -4.3284  -16.9348   23.4614 C.ar    1  UNL1       -0.0032
      6 C          -4.8780  -15.8187   24.2994 C.ar    1  UNL1       -0.0003
      7 C          -6.3601  -15.6028   24.3821 C.ar    1  UNL1       -0.0003
      8 C          -7.2925  -16.5029   23.6269 C.ar    1  UNL1       -0.0042
      9 C          -6.7428  -17.6189   22.7889 C.ar    1  UNL1       -0.0197
     10 C          -7.6752  -18.5191   22.0336 C.3     1  UNL1        0.0602
     11 C          -7.1256  -19.6351   21.1956 C.3     1  UNL1        0.0811
     12 C          -9.1573  -18.3031   22.1164 C.ar    1  UNL1       -0.0170
     13 C          -9.9088  -17.7938   20.9222 C.ar    1  UNL1       -0.0034
     14 C         -11.3909  -17.5778   21.0050 C.ar    1  UNL1        0.0062
     15 C         -12.1214  -17.8712   22.2819 C.ar    1  UNL1        0.0295
     16 S         -13.5686  -17.7563   22.6593 S.2     1  UNL1       -0.0864
     17 C         -13.7114  -18.1946   24.0868 C.ar    1  UNL1        0.0354
     18 C         -12.3526  -18.5804   24.5914 C.ar    1  UNL1        0.0075
     19 C         -11.3699  -18.3805   23.4759 C.ar    1  UNL1        0.0062
     20 C          -9.8878  -18.5965   23.3932 C.ar    1  UNL1       -0.0034
@<TRIPOS>BOND
     1     1     2    1
     2     2     3    1
     3     3     4    1
     4     4     5   ar
     5     5     6   ar
     6     6     7   ar
     7     7     8   ar
     8     8     9   ar
     9     9    10    1
    10    10    12    1
    11    12    13   ar
    12    13    14   ar
    13    14    15   ar
    14    15    16   ar
    15    16    17   ar
    16    17    18   ar
    17    18    19   ar
    18    19    20   ar
    19    10    11    1
    20    11     2    1
    21     9     4   ar
    22    20    12   ar
    23    19    15   ar
@<TRIPOS>MOLECULE
*****
 20 23 0 0 0
SMALL
GASTEIGER

@<TRIPOS>ATOM
      1 C         -10.4295   -7.5383   17.9764 C.3     1  UNL1        0.0899
      2 N         -11.7366   -6.9388   18.4033 N.3     1  UNL1       -0.2671
      3 C         -11.7777   -5.5445   18.9548 C.3     1  UNL1        0.0989
      4 C         -13.0849   -4.9450   19.3817 C.ar    1  UNL1       -0.0098
      5 C         -13.1260   -3.5507   19.9332 C.ar    1  UNL1       -0.0032
      6 C         -14.4330   -2.9513   20.3600 C.ar    1  UNL1       -0.0003
      7 C         -15.6990   -3.7462   20.2354 C.ar    1  UNL1       -0.0003
      8 C         -15.6579   -5.1405   19.6839 C.ar    1  UNL1       -0.0042
      9 C         -14.3508   -5.7399   19.2570 C.ar    1  UNL1       -0.0197
     10 C         -14.3096   -7.1343   18.7055 C.3     1  UNL1        0.0602
     11 C         -13.0026   -7.7337   18.2787 C.3     1  UNL1        0.0811
     12 C         -15.5756   -7.9292   18.5809 C.ar    1  UNL1       -0.0170
     13 C         -16.0071   -8.8324   19.6981 C.ar    1  UNL1       -0.0034
     14 C         -17.2731   -9.6273   19.5735 C.ar    1  UNL1        0.0062
     15 C         -18.1075   -9.5190   18.3316 C.ar    1  UNL1        0.0295
     16 S         -19.3941  -10.1751   17.9266 S.2     1  UNL1       -0.0864
     17 C         -19.7577   -9.6774   16.5590 C.ar    1  UNL1        0.0354
     18 C         -18.6958   -8.7138   16.1189 C.ar    1  UNL1        0.0075
     19 C         -17.6759   -8.6158   17.2145 C.ar    1  UNL1        0.0062
     20 C         -16.4099   -7.8209   17.3391 C.ar    1  UNL1       -0.0034
@<TRIPOS>BOND
     1     1     2    1
     2     2     3    1
     3     3     4    1
     4     4     5   ar
     5     5     6   ar
     6     6     7   ar
     7     7     8   ar
     8     8     9   ar
     9     9    10    1
    10    10    12    1
    11    12    13   ar
    12    13    14   ar
    13    14    15   ar
    14    15    16   ar
    15    16    17   ar
    16    17    18   ar
    17    18    19   ar
    18    19    20   ar
    19    10    11    1
    20    11     2    1
    21     9     4   ar
    22    20    12   ar
    23    19    15   ar
@<TRIPOS>MOLECULE
*****
 20 23 0 0 0
SMALL
GASTEIGER

@<TRIPOS>ATOM
      1 C          -9.2638   -7.6185   18.9693 C.3     1  UNL1        0.0899
      2 N         -10.4137   -6.6632   18.8457 N.3     1  UNL1       -0.2671
      3 C         -10.1792   -5.1870   18.9712 C.3     1  UNL1        0.0989
      4 C         -11.3292   -4.2318   18.8476 C.ar    1  UNL1       -0.0098
      5 C         -11.0947   -2.7556   18.9731 C.ar    1  UNL1       -0.0032
      6 C         -12.2446   -1.8004   18.8495 C.ar    1  UNL1       -0.0003
      7 C         -13.6290   -2.3214   18.6004 C.ar    1  UNL1       -0.0003
      8 C         -13.8634   -3.7976   18.4749 C.ar    1  UNL1       -0.0042
      9 C         -12.7135   -4.7528   18.5985 C.ar    1  UNL1       -0.0197
     10 C         -12.9480   -6.2291   18.4730 C.3     1  UNL1        0.0602
     11 C         -11.7981   -7.1843   18.5966 C.3     1  UNL1        0.0811
     12 C         -14.3324   -6.7501   18.2240 C.ar    1  UNL1       -0.0170
     13 C         -14.7998   -6.9962   16.8200 C.ar    1  UNL1       -0.0034
     14 C         -16.1842   -7.5172   16.5709 C.ar    1  UNL1        0.0062
     15 C         -17.1011   -7.7921   17.7258 C.ar    1  UNL1        0.0295
     16 S         -18.5092   -8.3052   17.7893 S.2     1  UNL1       -0.0864
     17 C         -18.9120   -8.3762   19.2325 C.ar    1  UNL1        0.0354
     18 C         -17.7529   -7.9071   20.0609 C.ar    1  UNL1        0.0075
     19 C         -16.6337   -7.5460   19.1297 C.ar    1  UNL1        0.0062
     20 C         -15.2493   -7.0250   19.3788 C.ar    1  UNL1       -0.0034
@<TRIPOS>BOND
     1     1     2    1
     2     2     3    1
     3     3     4    1
     4     4     5   ar
     5     5     6   ar
     6     6     7   ar
     7     7     8   ar
     8     8     9   ar
     9     9    10    1
    10    10    12    1
    11    12    13   ar
    12    13    14   ar
    13    14    15   ar
    14    15    16   ar
    15    16    17   ar
    16    17    18   ar
    17    18    19   ar
    18    19    20   ar
    19    10    11    1
    20    11     2    1
    21     9     4   ar
    22    20    12   ar
    23    19    15   ar
@<TRIPOS>MOLECULE
*****
 20 23 0 0 0
SMALL
GASTEIGER

@<TRIPOS>ATOM
      1 C         -11.3922  -18.5250   24.7096 C.3     1  UNL1        0.0899
      2 N         -10.4805  -18.7124   23.5333 N.3     1  UNL1       -0.2671
      3 C         -11.0306  -19.2113   22.2300 C.3     1  UNL1        0.0989
      4 C         -10.1188  -19.3987   21.0537 C.ar    1  UNL1       -0.0098
      5 C         -10.6689  -19.8977   19.7505 C.ar    1  UNL1       -0.0032
      6 C          -9.7572  -20.0850   18.5742 C.ar    1  UNL1       -0.0003
      7 C          -8.2954  -19.7734   18.7012 C.ar    1  UNL1       -0.0003
      8 C          -7.7454  -19.2744   20.0044 C.ar    1  UNL1       -0.0042
      9 C          -8.6571  -19.0871   21.1806 C.ar    1  UNL1       -0.0197
     10 C          -8.1070  -18.5881   22.4840 C.3     1  UNL1        0.0602
     11 C          -9.0187  -18.4008   23.6602 C.3     1  UNL1        0.0811
     12 C          -6.6452  -18.2765   22.6109 C.ar    1  UNL1       -0.0170
     13 C          -6.2013  -17.0517   23.3545 C.ar    1  UNL1       -0.0034
     14 C          -4.7395  -16.7401   23.4815 C.ar    1  UNL1        0.0062
     15 C          -3.7217  -17.6533   22.8648 C.ar    1  UNL1        0.0295
     16 S          -2.2230  -17.6050   22.8258 S.2     1  UNL1       -0.0864
     17 C          -1.7407  -18.8000   22.0580 C.ar    1  UNL1        0.0354
     18 C          -2.9413  -19.5867   21.6226 C.ar    1  UNL1        0.0075
     19 C          -4.1657  -18.8780   22.1213 C.ar    1  UNL1        0.0062
     20 C          -5.6274  -19.1896   21.9943 C.ar    1  UNL1       -0.0034
@<TRIPOS>BOND
     1     1     2    1
     2     2     3    1
     3     3     4    1
     4     4     5   ar
     5     5     6   ar
     6     6     7   ar
     7     7     8   ar
     8     8     9   ar
     9     9    10    1
    10    10    12    1
    11    12    13   ar
    12    13    14   ar
    13    14    15   ar
    14    15    16   ar
    15    16    17   ar
    16    17    18   ar
    17    18    19   ar
    18    19    20   ar
    19    10    11    1
    20    11     2    1
    21     9     4   ar
    22    20    12   ar
    23    19    15   ar
@<TRIPOS>MOLECULE
*****
 20 23 0 0 0
SMALL
GASTEIGER

@<TRIPOS>ATOM
      1 C          -8.7086  -15.3216   25.6595 C.3     1  UNL1        0.0899
      2 N          -8.9321  -16.1896   24.4566 N.3     1  UNL1       -0.2671
      3 C         -10.3138  -16.3531   23.8962 C.3     1  UNL1        0.0989
      4 C         -10.5373  -17.2211   22.6933 C.ar    1  UNL1       -0.0098
      5 C         -11.9190  -17.3847   22.1328 C.ar    1  UNL1       -0.0032
      6 C         -12.1425  -18.2527   20.9301 C.ar    1  UNL1       -0.0003
      7 C         -10.9843  -18.9570   20.2878 C.ar    1  UNL1       -0.0003
      8 C          -9.6027  -18.7935   20.8483 C.ar    1  UNL1       -0.0042
      9 C          -9.3792  -17.9255   22.0511 C.ar    1  UNL1       -0.0197
     10 C          -7.9974  -17.7619   22.6116 C.3     1  UNL1        0.0602
     11 C          -7.7739  -16.8939   23.8144 C.3     1  UNL1        0.0811
     12 C          -6.8393  -18.4663   21.9694 C.ar    1  UNL1       -0.0170
     13 C          -7.0798  -19.4490   20.8619 C.ar    1  UNL1       -0.0034
     14 C          -5.9216  -20.1534   20.2196 C.ar    1  UNL1        0.0062
     15 C          -4.5229  -19.8750   20.6848 C.ar    1  UNL1        0.0295
     16 S          -3.1934  -20.4126   20.2453 S.2     1  UNL1       -0.0864
     17 C          -2.1312  -19.7622   21.0812 C.ar    1  UNL1        0.0354
     18 C          -2.8043  -18.8225   22.0372 C.ar    1  UNL1        0.0075
     19 C          -4.2825  -18.8923   21.7922 C.ar    1  UNL1        0.0062
     20 C          -5.4407  -18.1879   22.4345 C.ar    1  UNL1       -0.0034
@<TRIPOS>BOND
     1     1     2    1
     2     2     3    1
     3     3     4    1
     4     4     5   ar
     5     5     6   ar
     6     6     7   ar
     7     7     8   ar
     8     8     9   ar
     9     9    10    1
    10    10    12    1
    11    12    13   ar
    12    13    14   ar
    13    14    15   ar
    14    15    16   ar
    15    16    17   ar
    16    17    18   ar
    17    18    19   ar
    18    19    20   ar
    19    10    11    1
    20    11     2    1
    21     9     4   ar
    22    20    12   ar
    23    19    15   ar
@<TRIPOS>MOLECULE
*****
 20 23 0 0 0
SMALL
GASTEIGER

@<TRIPOS>ATOM
      1 C          -6.4233  -14.8100   27.3603 C.3     1  UNL1        0.0899
      2 N          -6.7365  -15.4834   26.0569 N.3     1  UNL1       -0.2671
      3 C          -8.1600  -15.6094   25.6010 C.3     1  UNL1        0.0989
      4 C          -8.4732  -16.2828   24.2976 C.ar    1  UNL1       -0.0098
      5 C          -9.8966  -16.4089   23.8417 C.ar    1  UNL1       -0.0032
      6 C         -10.2098  -17.0821   22.5384 C.ar    1  UNL1       -0.0003
      7 C          -9.0996  -17.6293   21.6911 C.ar    1  UNL1       -0.0003
      8 C          -7.6761  -17.5032   22.1470 C.ar    1  UNL1       -0.0042
      9 C          -7.3630  -16.8299   23.4503 C.ar    1  UNL1       -0.0197
     10 C          -5.9395  -16.7038   23.9063 C.3     1  UNL1        0.0602
     11 C          -5.6263  -16.0305   25.2096 C.3     1  UNL1        0.0811
     12 C          -4.8292  -17.2510   23.0590 C.ar    1  UNL1       -0.0170
     13 C          -4.8412  -18.6933   22.6470 C.ar    1  UNL1       -0.0034
     14 C          -3.7309  -19.2405   21.7997 C.ar    1  UNL1        0.0062
     15 C          -2.6088  -18.3453   21.3643 C.ar    1  UNL1        0.0295
     16 S          -1.3867  -18.6000   20.5327 S.2     1  UNL1       -0.0864
     17 C          -0.6195  -17.3151   20.4307 C.ar    1  UNL1        0.0354
     18 C          -1.3674  -16.2664   21.1992 C.ar    1  UNL1        0.0075
     19 C          -2.5969  -16.9031   21.7763 C.ar    1  UNL1        0.0062
     20 C          -3.7071  -16.3559   22.6236 C.ar    1  UNL1       -0.0034
@<TRIPOS>BOND
     1     1     2    1
     2     2     3    1
     3     3     4    1
     4     4     5   ar
     5     5     6   ar
     6     6     7   ar
     7     7     8   ar
     8     8     9   ar
     9     9    10    1
    10    10    12    1
    11    12    13   ar
    12    13    14   ar
    13    14    15   ar
    14    15    16   ar
    15    16    17   ar
    16    17    18   ar
    17    18    19   ar
    18    19    20   ar
    19    10    11    1
    20    11     2    1
    21     9     4   ar
    22    20    12   ar
    23    19    15   ar
@<TRIPOS>MOLECULE
*****
 20 23 0 0 0
SMALL
GASTEIGER

@<TRIPOS>ATOM
      1 C          -3.6089  -19.2153   21.2954 C.3     1  UNL1        0.0899
      2 N          -4.5655  -18.4206   22.1341 N.3     1  UNL1       -0.2671
      3 C          -4.0464  -17.5302   23.2239 C.3     1  UNL1        0.0989
      4 C          -5.0030  -16.7356   24.0627 C.ar    1  UNL1       -0.0098
      5 C          -4.4839  -15.8452   25.1525 C.ar    1  UNL1       -0.0032
      6 C          -5.4405  -15.0506   25.9912 C.ar    1  UNL1       -0.0003
      7 C          -6.9163  -15.1465   25.7401 C.ar    1  UNL1       -0.0003
      8 C          -7.4354  -16.0368   24.6503 C.ar    1  UNL1       -0.0042
      9 C          -6.4788  -16.8314   23.8116 C.ar    1  UNL1       -0.0197
     10 C          -6.9979  -17.7219   22.7218 C.3     1  UNL1        0.0602
     11 C          -6.0412  -18.5165   21.8831 C.3     1  UNL1        0.0811
     12 C          -8.4736  -17.8177   22.4707 C.ar    1  UNL1       -0.0170
     13 C          -9.2599  -18.9578   23.0470 C.ar    1  UNL1       -0.0034
     14 C         -10.7357  -19.0536   22.7959 C.ar    1  UNL1        0.0062
     15 C         -11.4250  -18.0094   21.9686 C.ar    1  UNL1        0.0295
     16 S         -12.8569  -17.8410   21.5545 S.2     1  UNL1       -0.0864
     17 C         -12.9555  -16.5968   20.7224 C.ar    1  UNL1        0.0354
     18 C         -11.5846  -15.9964   20.6222 C.ar    1  UNL1        0.0075
     19 C         -10.6387  -16.8694   21.3924 C.ar    1  UNL1        0.0062
     20 C          -9.1630  -16.7736   21.6434 C.ar    1  UNL1       -0.0034
@<TRIPOS>BOND
     1     1     2    1
     2     2     3    1
     3     3     4    1
     4     4     5   ar
     5     5     6   ar
     6     6     7   ar
     7     7     8   ar
     8     8     9   ar
     9     9    10    1
    10    10    12    1
    11    12    13   ar
    12    13    14   ar
    13    14    15   ar
    14    15    16   ar
    15    16    17   ar
    16    17    18   ar
    17    18    19   ar
    18    19    20   ar
    19    10    11    1
    20    11     2    1
    21     9     4   ar
    22    20    12   ar
    23    19    15   ar
