@<TRIPOS>MOLECULE
*****
 45 50 0 0 0
SMALL
GASTEIGER

@<TRIPOS>ATOM
      1 C          -2.4628    4.5105   24.5496 C.ar    1  UNL1        0.1348
      2 C          -1.8999    5.2498   25.7271 C.ar    1  UNL1        0.0346
      3 C          -0.5280    4.9180   26.2350 C.ar    1  UNL1        0.0065
      4 C           0.2809    3.8470   25.5653 C.ar    1  UNL1        0.0432
      5 C          -0.2821    3.1077   24.3879 C.ar    1  UNL1        0.1256
      6 N          -1.6539    3.4395   23.8800 N.ar    1  UNL1       -0.2222
      7 C           1.6527    3.5152   26.0732 C.ar    1  UNL1        0.0851
      8 C           1.9727    2.5833   27.2042 C.ar    1  UNL1        0.1035
      9 N           3.4633    2.5492   27.3692 N.ar    1  UNL1       -0.2263
     10 C           4.0645    3.4601   26.3402 C.ar    1  UNL1        0.1478
     11 C           5.4862    3.8230   26.0290 C.ar    1  UNL1        0.0374
     12 C           5.7891    4.7830   24.9169 C.ar    1  UNL1        0.0046
     13 C           4.6701    5.3800   24.1159 C.ar    1  UNL1        0.0191
     14 C           3.2484    5.0171   24.4271 C.ar    1  UNL1        0.0814
     15 N           2.9455    4.0571   25.5392 N.ar    1  UNL1       -0.2888
     16 C           0.9770    1.8195   28.0259 C.ar    1  UNL1        0.0723
     17 C           0.0662    0.8258   27.3677 C.ar    1  UNL1        0.0078
     18 C          -0.9295    0.0620   28.1894 C.ar    1  UNL1        0.0209
     19 C          -1.0144    0.2919   29.6693 C.ar    1  UNL1        0.1021
     20 N          -0.1036    1.2855   30.3274 N.ar    1  UNL1       -0.2101
     21 C           0.8921    2.0493   29.5057 C.ar    1  UNL1        0.2264
     22 O           1.8028    3.0430   30.1639 O.3     1  UNL1       -0.4561
     23 C           2.9458    2.5666   31.0105 C.3     1  UNL1        0.2542
     24 C          -5.0453    4.4128   24.8163 C.2     1  UNL1        0.2414
     25 O          -4.8841    3.6515   26.0987 O.2     1  UNL1       -0.2733
     26 N          -3.8347    4.8423   24.0418 N.am    1  UNL1       -0.2682
     27 H          -3.9405    5.3420   23.2002 H       1  UNL1        0.1563
     28 C          -6.4172    4.7446   24.3084 C.3     1  UNL1        0.1319
     29 C          -7.2174    5.8307   24.9644 C.3     1  UNL1        0.0270
     30 C          -6.6569    4.4096   21.7432 C.3     1  UNL1        0.0862
     31 N          -6.9889    3.9904   23.1447 N.3     1  UNL1       -0.2902
     32 H          -6.6833    3.0221   23.2426 H       1  UNL1        0.1237
     33 C           0.5269    2.0366   23.7182 C.1     1  UNL1       -0.0404
     34 C           1.3357    0.9655   23.0485 C.1     1  UNL1       -0.0583
     35 C           2.1446   -0.1056   22.3788 C.ar    1  UNL1        0.0420
     36 C           1.9548   -0.3856   20.9174 C.ar    1  UNL1        0.0083
     37 C           2.7637   -1.4567   20.2478 C.ar    1  UNL1        0.0018
     38 C           3.7624   -2.2477   21.0395 C.ar    1  UNL1        0.0137
     39 C           4.5713   -3.3189   20.3698 C.ar    1  UNL1        0.0594
     40 C           4.3815   -3.5988   18.9085 C.3     1  UNL1        0.0521
     41 N           5.5700   -4.1099   21.1615 N.ar    1  UNL1       -0.2481
     42 C           5.7598   -3.8299   22.6229 C.ar    1  UNL1        0.0984
     43 C           4.9509   -2.7588   23.2925 C.ar    1  UNL1        0.0207
     44 C           3.9522   -1.9677   22.5008 C.ar    1  UNL1        0.0033
     45 C           3.1433   -0.8967   23.1705 C.ar    1  UNL1        0.0083
@<TRIPOS>BOND
     1    30    31    1
     2    31    28    1
     3    28    29    1
     4    28    24    1
     5    24    25    2
     6    24    26   am
     7    26     1    1
     8     1     2   ar
     9     2     3   ar
    10     3     4   ar
    11     4     7    1
    12     7     8   ar
    13     8    16    1
    14    16    17   ar
    15    17    18   ar
    16    18    19   ar
    17    19    20   ar
    18    20    21   ar
    19    21    22    1
    20    22    23    1
    21     8     9   ar
    22     9    10   ar
    23    10    11   ar
    24    11    12   ar
    25    12    13   ar
    26    13    14   ar
    27    14    15   ar
    28     4     5   ar
    29     5    33    1
    30    33    34    3
    31    34    35    1
    32    35    36   ar
    33    36    37   ar
    34    37    38   ar
    35    38    39   ar
    36    39    40    1
    37    39    41   ar
    38    41    42   ar
    39    42    43   ar
    40    43    44   ar
    41    44    45   ar
    42     5     6   ar
    43     6     1   ar
    44    15     7   ar
    45    45    35   ar
    46    21    16   ar
    47    15    10   ar
    48    44    38   ar
    49    31    32    1
    50    26    27    1
@<TRIPOS>MOLECULE
*****
 45 50 0 0 0
SMALL
GASTEIGER

@<TRIPOS>ATOM
      1 C          -2.4683    4.3238   22.8706 C.ar    1  UNL1        0.1348
      2 C          -2.2838    4.8669   24.2566 C.ar    1  UNL1        0.0346
      3 C          -1.1885    4.3334   25.1316 C.ar    1  UNL1        0.0065
      4 C          -0.2777    3.2567   24.6206 C.ar    1  UNL1        0.0432
      5 C          -0.4622    2.7136   23.2347 C.ar    1  UNL1        0.1256
      6 N          -1.5575    3.2471   22.3597 N.ar    1  UNL1       -0.2222
      7 C           0.8176    2.7231   25.4956 C.ar    1  UNL1        0.0851
      8 C           2.2773    3.0472   25.3775 C.ar    1  UNL1        0.1035
      9 N           3.0074    2.2961   26.4513 N.ar    1  UNL1       -0.2263
     10 C           1.9987    1.5078   27.2331 C.ar    1  UNL1        0.1478
     11 C           2.1378    0.5838   28.4065 C.ar    1  UNL1        0.0374
     12 C           0.9235   -0.0763   28.9893 C.ar    1  UNL1        0.0046
     13 C          -0.4300    0.1875   28.3987 C.ar    1  UNL1        0.0191
     14 C          -0.5690    1.1115   27.2253 C.ar    1  UNL1        0.0814
     15 N           0.6454    1.7717   26.6425 N.ar    1  UNL1       -0.2888
     16 C           2.8982    3.9618   24.3635 C.ar    1  UNL1        0.0723
     17 C           3.6919    3.3915   23.2255 C.ar    1  UNL1        0.0078
     18 C           4.3127    4.3061   22.2116 C.ar    1  UNL1        0.0209
     19 C           4.1399    5.7910   22.3356 C.ar    1  UNL1        0.1021
     20 N           3.3462    6.3612   23.4735 N.ar    1  UNL1       -0.2101
     21 C           2.7254    5.4466   24.4875 C.ar    1  UNL1        0.2264
     22 O           1.9317    6.0169   25.6254 O.3     1  UNL1       -0.4561
     23 C           1.1338    7.2717   25.4285 C.3     1  UNL1        0.2542
     24 C          -4.6910    3.9619   21.5750 C.2     1  UNL1        0.2414
     25 O          -4.7231    2.5327   22.0294 O.2     1  UNL1       -0.2733
     26 N          -3.5636    4.8574   21.9956 N.am    1  UNL1       -0.2682
     27 H          -3.5425    5.7954   21.6974 H       1  UNL1        0.1563
     28 C          -5.7863    4.4955   20.7000 C.3     1  UNL1        0.1319
     29 C          -5.5211    4.7689   19.2491 C.3     1  UNL1        0.0270
     30 C          -7.3502    4.7270   22.7616 C.3     1  UNL1        0.0862
     31 N          -7.1466    4.7556   21.2758 N.3     1  UNL1       -0.2902
     32 H          -7.4286    5.6828   20.9578 H       1  UNL1        0.1237
     33 C           0.4486    1.6368   22.7236 C.1     1  UNL1       -0.0404
     34 C           1.3594    0.5601   22.2127 C.1     1  UNL1       -0.0583
     35 C           2.2703   -0.5166   21.7017 C.ar    1  UNL1        0.0420
     36 C           2.1580   -0.9818   20.2801 C.ar    1  UNL1        0.0083
     37 C           3.0688   -2.0585   19.7691 C.ar    1  UNL1        0.0018
     38 C           4.0919   -2.6700   20.6798 C.ar    1  UNL1        0.0137
     39 C           5.0027   -3.7468   20.1687 C.ar    1  UNL1        0.0594
     40 C           4.8904   -4.2119   18.7471 C.3     1  UNL1        0.0521
     41 N           6.0258   -4.3583   21.0794 N.ar    1  UNL1       -0.2481
     42 C           6.1381   -3.8931   22.5010 C.ar    1  UNL1        0.0984
     43 C           5.2273   -2.8164   23.0120 C.ar    1  UNL1        0.0207
     44 C           4.2042   -2.2049   22.1014 C.ar    1  UNL1        0.0033
     45 C           3.2934   -1.1282   22.6123 C.ar    1  UNL1        0.0083
@<TRIPOS>BOND
     1    30    31    1
     2    31    28    1
     3    28    29    1
     4    28    24    1
     5    24    25    2
     6    24    26   am
     7    26     1    1
     8     1     2   ar
     9     2     3   ar
    10     3     4   ar
    11     4     7    1
    12     7     8   ar
    13     8    16    1
    14    16    17   ar
    15    17    18   ar
    16    18    19   ar
    17    19    20   ar
    18    20    21   ar
    19    21    22    1
    20    22    23    1
    21     8     9   ar
    22     9    10   ar
    23    10    11   ar
    24    11    12   ar
    25    12    13   ar
    26    13    14   ar
    27    14    15   ar
    28     4     5   ar
    29     5    33    1
    30    33    34    3
    31    34    35    1
    32    35    36   ar
    33    36    37   ar
    34    37    38   ar
    35    38    39   ar
    36    39    40    1
    37    39    41   ar
    38    41    42   ar
    39    42    43   ar
    40    43    44   ar
    41    44    45   ar
    42     5     6   ar
    43     6     1   ar
    44    15     7   ar
    45    45    35   ar
    46    21    16   ar
    47    15    10   ar
    48    44    38   ar
    49    31    32    1
    50    26    27    1
@<TRIPOS>MOLECULE
*****
 45 50 0 0 0
SMALL
GASTEIGER

@<TRIPOS>ATOM
      1 C          -0.2024    1.8221   20.4743 C.ar    1  UNL1        0.1348
      2 C           0.2567    1.8850   19.0477 C.ar    1  UNL1        0.0346
      3 C           1.5528    1.2445   18.6480 C.ar    1  UNL1        0.0065
      4 C           2.3898    0.5410   19.6748 C.ar    1  UNL1        0.0432
      5 C           1.9307    0.4781   21.1014 C.ar    1  UNL1        0.1256
      6 N           0.6346    1.1187   21.5012 N.ar    1  UNL1       -0.2222
      7 C           3.6859   -0.0995   19.2751 C.ar    1  UNL1        0.0851
      8 C           4.9566    0.6204   18.9331 C.ar    1  UNL1        0.1035
      9 N           5.9950   -0.4076   18.5938 N.ar    1  UNL1       -0.2263
     10 C           5.3660   -1.7629   18.7261 C.ar    1  UNL1        0.1478
     11 C           5.9083   -3.1458   18.5176 C.ar    1  UNL1        0.0374
     12 C           5.0235   -4.3383   18.7302 C.ar    1  UNL1        0.0046
     13 C           3.5965   -4.1480   19.1513 C.ar    1  UNL1        0.0191
     14 C           3.0541   -2.7651   19.3598 C.ar    1  UNL1        0.0814
     15 N           3.9389   -1.5725   19.1472 N.ar    1  UNL1       -0.2888
     16 C           5.1543    2.1073   18.9307 C.ar    1  UNL1        0.0723
     17 C           5.1522    2.8622   17.6344 C.ar    1  UNL1        0.0078
     18 C           5.3499    4.3491   17.6321 C.ar    1  UNL1        0.0209
     19 C           5.5497    5.0812   18.9260 C.ar    1  UNL1        0.1021
     20 N           5.5518    4.3264   20.2222 N.ar    1  UNL1       -0.2101
     21 C           5.3541    2.8394   20.2245 C.ar    1  UNL1        0.2264
     22 O           5.3563    2.0847   21.5209 O.3     1  UNL1       -0.4561
     23 C           4.8853    2.7529   22.7785 C.3     1  UNL1        0.2542
     24 C          -1.4928    3.7249   21.6843 C.2     1  UNL1        0.2414
     25 O          -0.1909    4.3467   22.0949 O.2     1  UNL1       -0.2733
     26 N          -1.4985    2.4627   20.8741 N.am    1  UNL1       -0.2682
     27 H          -2.3530    2.0546   20.6046 H       1  UNL1        0.1563
     28 C          -2.7889    4.3655   22.0841 C.3     1  UNL1        0.1319
     29 C          -3.1951    5.6769   21.4798 C.3     1  UNL1        0.0270
     30 C          -5.0318    3.1953   22.6758 C.3     1  UNL1        0.0862
     31 N          -3.6788    3.6946   23.0881 N.3     1  UNL1       -0.2902
     32 H          -3.1645    2.8898   23.4461 H       1  UNL1        0.1237
     33 C           2.7678   -0.2253   22.1284 C.1     1  UNL1       -0.0404
     34 C           3.6048   -0.9287   23.1553 C.1     1  UNL1       -0.0583
     35 C           4.4418   -1.6322   24.1823 C.ar    1  UNL1        0.0420
     36 C           4.3861   -1.2017   25.6181 C.ar    1  UNL1        0.0083
     37 C           5.2231   -1.9051   26.6449 C.ar    1  UNL1        0.0018
     38 C           6.1158   -3.0391   26.2360 C.ar    1  UNL1        0.0137
     39 C           6.9529   -3.7426   27.2630 C.ar    1  UNL1        0.0594
     40 C           6.8972   -3.3121   28.6988 C.3     1  UNL1        0.0521
     41 N           7.8456   -4.8765   26.8541 N.ar    1  UNL1       -0.2481
     42 C           7.9012   -5.3070   25.4182 C.ar    1  UNL1        0.0984
     43 C           7.0642   -4.6036   24.3913 C.ar    1  UNL1        0.0207
     44 C           6.1715   -3.4696   24.8002 C.ar    1  UNL1        0.0033
     45 C           5.3345   -2.7662   23.7734 C.ar    1  UNL1        0.0083
@<TRIPOS>BOND
     1    30    31    1
     2    31    28    1
     3    28    29    1
     4    28    24    1
     5    24    25    2
     6    24    26   am
     7    26     1    1
     8     1     2   ar
     9     2     3   ar
    10     3     4   ar
    11     4     7    1
    12     7     8   ar
    13     8    16    1
    14    16    17   ar
    15    17    18   ar
    16    18    19   ar
    17    19    20   ar
    18    20    21   ar
    19    21    22    1
    20    22    23    1
    21     8     9   ar
    22     9    10   ar
    23    10    11   ar
    24    11    12   ar
    25    12    13   ar
    26    13    14   ar
    27    14    15   ar
    28     4     5   ar
    29     5    33    1
    30    33    34    3
    31    34    35    1
    32    35    36   ar
    33    36    37   ar
    34    37    38   ar
    35    38    39   ar
    36    39    40    1
    37    39    41   ar
    38    41    42   ar
    39    42    43   ar
    40    43    44   ar
    41    44    45   ar
    42     5     6   ar
    43     6     1   ar
    44    15     7   ar
    45    45    35   ar
    46    21    16   ar
    47    15    10   ar
    48    44    38   ar
    49    31    32    1
    50    26    27    1
@<TRIPOS>MOLECULE
*****
 45 50 0 0 0
SMALL
GASTEIGER

@<TRIPOS>ATOM
      1 C           6.1584   -2.6234   29.8479 C.ar    1  UNL1        0.1348
      2 C           5.5545   -1.6669   30.8329 C.ar    1  UNL1        0.0346
      3 C           4.6090   -0.6021   30.3614 C.ar    1  UNL1        0.0065
      4 C           4.2675   -0.4939   28.9048 C.ar    1  UNL1        0.0432
      5 C           4.8714   -1.4504   27.9198 C.ar    1  UNL1        0.1256
      6 N           5.8169   -2.5151   28.3913 N.ar    1  UNL1       -0.2222
      7 C           3.3220    0.5709   28.4333 C.ar    1  UNL1        0.0851
      8 C           3.7079    1.8823   27.8158 C.ar    1  UNL1        0.1035
      9 N           2.4490    2.6331   27.4973 N.ar    1  UNL1       -0.2263
     10 C           1.2850    1.7858   27.9181 C.ar    1  UNL1        0.1478
     11 C          -0.1966    2.0100   27.8492 C.ar    1  UNL1        0.0374
     12 C          -1.1386    0.9598   28.3588 C.ar    1  UNL1        0.0046
     13 C          -0.5991   -0.3147   28.9373 C.ar    1  UNL1        0.0191
     14 C           0.8824   -0.5390   29.0061 C.ar    1  UNL1        0.0814
     15 N           1.8245    0.5113   28.4965 N.ar    1  UNL1       -0.2888
     16 C           5.1072    2.3591   27.5613 C.ar    1  UNL1        0.0723
     17 C           5.7897    2.0254   26.2679 C.ar    1  UNL1        0.0078
     18 C           7.1890    2.5023   26.0134 C.ar    1  UNL1        0.0209
     19 C           7.9057    3.3128   27.0523 C.ar    1  UNL1        0.1021
     20 N           7.2232    3.6464   28.3457 N.ar    1  UNL1       -0.2101
     21 C           5.8239    3.1696   28.6002 C.ar    1  UNL1        0.2264
     22 O           5.1415    3.5033   29.8936 O.3     1  UNL1       -0.4561
     23 C           4.5814    4.8773   30.1133 C.3     1  UNL1        0.2542
     24 C           7.0640   -5.0541   29.7009 C.2     1  UNL1        0.2414
     25 O           6.0786   -5.3553   28.6107 O.2     1  UNL1       -0.2733
     26 N           7.1039   -3.6882   30.3194 N.am    1  UNL1       -0.2682
     27 H           7.7507   -3.4905   31.0349 H       1  UNL1        0.1563
     28 C           8.0095   -6.1188   30.1724 C.3     1  UNL1        0.1319
     29 C           8.7082   -6.9962   29.1762 C.3     1  UNL1        0.0270
     30 C           9.2906   -7.2870   32.1073 C.3     1  UNL1        0.0862
     31 N           8.2563   -6.3063   31.6400 N.3     1  UNL1       -0.2902
     32 H           8.5249   -5.3954   32.0121 H       1  UNL1        0.1237
     33 C           4.5299   -1.3421   26.4632 C.1     1  UNL1       -0.0404
     34 C           4.1884   -1.2340   25.0066 C.1     1  UNL1       -0.0583
     35 C           3.8468   -1.1257   23.5500 C.ar    1  UNL1        0.0420
     36 C           2.7917   -0.1607   23.0967 C.ar    1  UNL1        0.0083
     37 C           2.4503   -0.0525   21.6401 C.ar    1  UNL1        0.0018
     38 C           3.1639   -0.9093   20.6368 C.ar    1  UNL1        0.0137
     39 C           2.8223   -0.8011   19.1802 C.ar    1  UNL1        0.0594
     40 C           1.7672    0.1639   18.7269 C.3     1  UNL1        0.0521
     41 N           3.5359   -1.6579   18.1769 N.ar    1  UNL1       -0.2481
     42 C           4.5911   -2.6230   18.6302 C.ar    1  UNL1        0.0984
     43 C           4.9326   -2.7312   20.0868 C.ar    1  UNL1        0.0207
     44 C           4.2190   -1.8744   21.0901 C.ar    1  UNL1        0.0033
     45 C           4.5604   -1.9825   22.5467 C.ar    1  UNL1        0.0083
@<TRIPOS>BOND
     1    30    31    1
     2    31    28    1
     3    28    29    1
     4    28    24    1
     5    24    25    2
     6    24    26   am
     7    26     1    1
     8     1     2   ar
     9     2     3   ar
    10     3     4   ar
    11     4     7    1
    12     7     8   ar
    13     8    16    1
    14    16    17   ar
    15    17    18   ar
    16    18    19   ar
    17    19    20   ar
    18    20    21   ar
    19    21    22    1
    20    22    23    1
    21     8     9   ar
    22     9    10   ar
    23    10    11   ar
    24    11    12   ar
    25    12    13   ar
    26    13    14   ar
    27    14    15   ar
    28     4     5   ar
    29     5    33    1
    30    33    34    3
    31    34    35    1
    32    35    36   ar
    33    36    37   ar
    34    37    38   ar
    35    38    39   ar
    36    39    40    1
    37    39    41   ar
    38    41    42   ar
    39    42    43   ar
    40    43    44   ar
    41    44    45   ar
    42     5     6   ar
    43     6     1   ar
    44    15     7   ar
    45    45    35   ar
    46    21    16   ar
    47    15    10   ar
    48    44    38   ar
    49    31    32    1
    50    26    27    1
@<TRIPOS>MOLECULE
*****
 45 50 0 0 0
SMALL
GASTEIGER

@<TRIPOS>ATOM
      1 C           2.9917   -0.1206   23.9101 C.ar    1  UNL1        0.1348
      2 C           4.1144    0.3785   24.7704 C.ar    1  UNL1        0.0346
      3 C           3.8797    1.5080   25.7291 C.ar    1  UNL1        0.0065
      4 C           2.5222    2.1384   25.8275 C.ar    1  UNL1        0.0432
      5 C           1.3995    1.6394   24.9671 C.ar    1  UNL1        0.1256
      6 N           1.6342    0.5099   24.0084 N.ar    1  UNL1       -0.2222
      7 C           2.2875    3.2679   26.7862 C.ar    1  UNL1        0.0851
      8 C           2.2174    3.1560   28.2804 C.ar    1  UNL1        0.1035
      9 N           1.9683    4.5266   28.8367 N.ar    1  UNL1       -0.2263
     10 C           1.8843    5.4856   27.6863 C.ar    1  UNL1        0.1478
     11 C           1.6538    6.9666   27.6290 C.ar    1  UNL1        0.0374
     12 C           1.6205    7.6698   26.3045 C.ar    1  UNL1        0.0046
     13 C           1.8178    6.8919   25.0372 C.ar    1  UNL1        0.0191
     14 C           2.0484    5.4109   25.0945 C.ar    1  UNL1        0.0814
     15 N           2.0817    4.7076   26.4191 N.ar    1  UNL1       -0.2888
     16 C           2.3698    1.8950   29.0782 C.ar    1  UNL1        0.0723
     17 C           3.7182    1.4962   29.6005 C.ar    1  UNL1        0.0078
     18 C           3.8706    0.2351   30.3983 C.ar    1  UNL1        0.0209
     19 C           2.6745   -0.6272   30.6739 C.ar    1  UNL1        0.1021
     20 N           1.3261   -0.2284   30.1516 N.ar    1  UNL1       -0.2101
     21 C           1.1738    1.0327   29.3537 C.ar    1  UNL1        0.2264
     22 O          -0.1747    1.4314   28.8315 O.3     1  UNL1       -0.4561
     23 C          -1.1908    0.3795   28.4981 C.3     1  UNL1        0.2542
     24 C           3.5540   -0.9602   21.5166 C.2     1  UNL1        0.2414
     25 O           3.6468    0.4592   21.0404 O.2     1  UNL1       -0.2733
     26 N           3.2264   -1.2501   22.9513 N.am    1  UNL1       -0.2682
     27 H           3.1655   -2.1817   23.2638 H       1  UNL1        0.1563
     28 C           3.7887   -2.0897   20.5579 C.3     1  UNL1        0.1319
     29 C           4.3729   -3.3811   21.0489 C.3     1  UNL1        0.0270
     30 C           4.4939   -1.5173   18.1237 C.3     1  UNL1        0.0862
     31 N           3.4392   -1.9279   19.1082 N.3     1  UNL1       -0.2902
     32 H           3.0743   -2.8261   18.7912 H       1  UNL1        0.1237
     33 C           0.0419    2.2698   25.0654 C.1     1  UNL1       -0.0404
     34 C          -1.3156    2.9002   25.1638 C.1     1  UNL1       -0.0583
     35 C          -2.6732    3.5307   25.2621 C.ar    1  UNL1        0.0420
     36 C          -3.0559    4.2992   26.4920 C.ar    1  UNL1        0.0083
     37 C          -4.4134    4.9296   26.5903 C.ar    1  UNL1        0.0018
     38 C          -5.3882    4.7915   25.4586 C.ar    1  UNL1        0.0137
     39 C          -6.7458    5.4219   25.5569 C.ar    1  UNL1        0.0594
     40 C          -7.1285    6.1905   26.7868 C.3     1  UNL1        0.0521
     41 N          -7.7206    5.2837   24.4252 N.ar    1  UNL1       -0.2481
     42 C          -7.3378    4.5151   23.1952 C.ar    1  UNL1        0.0984
     43 C          -5.9803    3.8847   23.0970 C.ar    1  UNL1        0.0207
     44 C          -5.0055    4.0229   24.2286 C.ar    1  UNL1        0.0033
     45 C          -3.6480    3.3925   24.1304 C.ar    1  UNL1        0.0083
@<TRIPOS>BOND
     1    30    31    1
     2    31    28    1
     3    28    29    1
     4    28    24    1
     5    24    25    2
     6    24    26   am
     7    26     1    1
     8     1     2   ar
     9     2     3   ar
    10     3     4   ar
    11     4     7    1
    12     7     8   ar
    13     8    16    1
    14    16    17   ar
    15    17    18   ar
    16    18    19   ar
    17    19    20   ar
    18    20    21   ar
    19    21    22    1
    20    22    23    1
    21     8     9   ar
    22     9    10   ar
    23    10    11   ar
    24    11    12   ar
    25    12    13   ar
    26    13    14   ar
    27    14    15   ar
    28     4     5   ar
    29     5    33    1
    30    33    34    3
    31    34    35    1
    32    35    36   ar
    33    36    37   ar
    34    37    38   ar
    35    38    39   ar
    36    39    40    1
    37    39    41   ar
    38    41    42   ar
    39    42    43   ar
    40    43    44   ar
    41    44    45   ar
    42     5     6   ar
    43     6     1   ar
    44    15     7   ar
    45    45    35   ar
    46    21    16   ar
    47    15    10   ar
    48    44    38   ar
    49    31    32    1
    50    26    27    1
@<TRIPOS>MOLECULE
*****
 45 50 0 0 0
SMALL
GASTEIGER

@<TRIPOS>ATOM
      1 C           2.8416   -0.1501   29.8576 C.ar    1  UNL1        0.1348
      2 C           2.3449    1.2435   30.1049 C.ar    1  UNL1        0.0346
      3 C           2.0975    2.1677   28.9496 C.ar    1  UNL1        0.0065
      4 C           2.3469    1.6983   27.5470 C.ar    1  UNL1        0.0432
      5 C           2.8437    0.3048   27.2996 C.ar    1  UNL1        0.1256
      6 N           3.0910   -0.6194   28.4549 N.ar    1  UNL1       -0.2222
      7 C           2.0996    2.6225   26.3917 C.ar    1  UNL1        0.0851
      8 C           3.1363    3.4378   25.6772 C.ar    1  UNL1        0.1035
      9 N           2.4495    4.2128   24.5919 N.ar    1  UNL1       -0.2263
     10 C           0.9884    3.8765   24.6358 C.ar    1  UNL1        0.1478
     11 C          -0.1731    4.3383   23.8065 C.ar    1  UNL1        0.0374
     12 C          -1.5509    3.8172   24.0896 C.ar    1  UNL1        0.0046
     13 C          -1.7673    2.8343   25.2019 C.ar    1  UNL1        0.0191
     14 C          -0.6058    2.3725   26.0311 C.ar    1  UNL1        0.0814
     15 N           0.7721    2.8937   25.7481 N.ar    1  UNL1       -0.2888
     16 C           4.6024    3.4720   25.9925 C.ar    1  UNL1        0.0723
     17 C           5.0851    4.1458   27.2428 C.ar    1  UNL1        0.0078
     18 C           6.5512    4.1801   27.5581 C.ar    1  UNL1        0.0209
     19 C           7.5346    3.5406   26.6232 C.ar    1  UNL1        0.1021
     20 N           7.0518    2.8669   25.3730 N.ar    1  UNL1       -0.2101
     21 C           5.5857    2.8326   25.0577 C.ar    1  UNL1        0.2264
     22 O           5.1031    2.1588   23.8074 O.3     1  UNL1       -0.4561
     23 C           5.0736    2.9144   22.5119 C.3     1  UNL1        0.2542
     24 C           4.4780   -1.2453   31.5524 C.2     1  UNL1        0.2414
     25 O           5.6199   -0.4922   30.9366 O.2     1  UNL1       -0.2733
     26 N           3.0890   -1.0743   31.0129 N.am    1  UNL1       -0.2682
     27 H           2.3396   -1.5685   31.4170 H       1  UNL1        0.1563
     28 C           4.7254   -2.1695   32.7077 C.3     1  UNL1        0.1319
     29 C           4.2865   -1.7789   34.0879 C.3     1  UNL1        0.0270
     30 C           6.8635   -3.5181   32.1077 C.3     1  UNL1        0.0862
     31 N           5.4115   -3.4843   32.4828 N.3     1  UNL1       -0.2902
     32 H           5.3184   -4.0167   33.3478 H       1  UNL1        0.1237
     33 C           3.0931   -0.1647   25.8969 C.1     1  UNL1       -0.0404
     34 C           3.3426   -0.6341   24.4943 C.1     1  UNL1       -0.0583
     35 C           3.5920   -1.1035   23.0916 C.ar    1  UNL1        0.0420
     36 C           4.2721   -2.4186   22.8506 C.ar    1  UNL1        0.0083
     37 C           4.5215   -2.8879   21.4480 C.ar    1  UNL1        0.0018
     38 C           4.0908   -2.0423   20.2864 C.ar    1  UNL1        0.0137
     39 C           4.3403   -2.5117   18.8836 C.ar    1  UNL1        0.0594
     40 C           5.0204   -3.8267   18.6426 C.3     1  UNL1        0.0521
     41 N           3.9096   -1.6660   17.7220 N.ar    1  UNL1       -0.2481
     42 C           3.2295   -0.3509   17.9631 C.ar    1  UNL1        0.0984
     43 C           2.9801    0.1184   19.3658 C.ar    1  UNL1        0.0207
     44 C           3.4107   -0.7272   20.5274 C.ar    1  UNL1        0.0033
     45 C           3.1613   -0.2579   21.9300 C.ar    1  UNL1        0.0083
@<TRIPOS>BOND
     1    30    31    1
     2    31    28    1
     3    28    29    1
     4    28    24    1
     5    24    25    2
     6    24    26   am
     7    26     1    1
     8     1     2   ar
     9     2     3   ar
    10     3     4   ar
    11     4     7    1
    12     7     8   ar
    13     8    16    1
    14    16    17   ar
    15    17    18   ar
    16    18    19   ar
    17    19    20   ar
    18    20    21   ar
    19    21    22    1
    20    22    23    1
    21     8     9   ar
    22     9    10   ar
    23    10    11   ar
    24    11    12   ar
    25    12    13   ar
    26    13    14   ar
    27    14    15   ar
    28     4     5   ar
    29     5    33    1
    30    33    34    3
    31    34    35    1
    32    35    36   ar
    33    36    37   ar
    34    37    38   ar
    35    38    39   ar
    36    39    40    1
    37    39    41   ar
    38    41    42   ar
    39    42    43   ar
    40    43    44   ar
    41    44    45   ar
    42     5     6   ar
    43     6     1   ar
    44    15     7   ar
    45    45    35   ar
    46    21    16   ar
    47    15    10   ar
    48    44    38   ar
    49    31    32    1
    50    26    27    1
@<TRIPOS>MOLECULE
*****
 45 50 0 0 0
SMALL
GASTEIGER

@<TRIPOS>ATOM
      1 C           6.1694   -3.2410   25.1174 C.ar    1  UNL1        0.1348
      2 C           7.1579   -2.9483   24.0279 C.ar    1  UNL1        0.0346
      3 C           6.9104   -1.8166   23.0750 C.ar    1  UNL1        0.0065
      4 C           5.6746   -0.9776   23.2117 C.ar    1  UNL1        0.0432
      5 C           4.6862   -1.2703   24.3013 C.ar    1  UNL1        0.1256
      6 N           4.9336   -2.4020   25.2542 N.ar    1  UNL1       -0.2222
      7 C           5.4272    0.1541   22.2588 C.ar    1  UNL1        0.0851
      8 C           5.0215    0.0232   20.8207 C.ar    1  UNL1        0.1035
      9 N           4.8856    1.4036   20.2498 N.ar    1  UNL1       -0.2263
     10 C           5.2073    2.3878   21.3351 C.ar    1  UNL1        0.1478
     11 C           5.2387    3.8873   21.3532 C.ar    1  UNL1        0.0374
     12 C           5.6048    4.6147   22.6129 C.ar    1  UNL1        0.0046
     13 C           5.9396    3.8425   23.8546 C.ar    1  UNL1        0.0191
     14 C           5.9082    2.3429   23.8365 C.ar    1  UNL1        0.0814
     15 N           5.5420    1.6156   22.5767 N.ar    1  UNL1       -0.2888
     16 C           4.7919   -1.2625   20.0829 C.ar    1  UNL1        0.0723
     17 C           5.9181   -1.9063   19.3295 C.ar    1  UNL1        0.0078
     18 C           5.6885   -3.1920   18.5917 C.ar    1  UNL1        0.0209
     19 C           4.3330   -3.8339   18.6073 C.ar    1  UNL1        0.1021
     20 N           3.2069   -3.1902   19.3606 N.ar    1  UNL1       -0.2101
     21 C           3.4364   -1.9045   20.0984 C.ar    1  UNL1        0.2264
     22 O           2.3102   -1.2608   20.8518 O.3     1  UNL1       -0.4561
     23 C           1.2261   -0.5390   20.1076 C.3     1  UNL1        0.2542
     24 C           6.7044   -4.0879   27.5147 C.2     1  UNL1        0.2414
     25 O           6.7445   -2.6712   28.0062 O.2     1  UNL1       -0.2733
     26 N           6.4168   -4.3727   26.0703 N.am    1  UNL1       -0.2682
     27 H           6.3905   -5.3025   25.7478 H       1  UNL1        0.1563
     28 C           6.9518   -5.2196   28.4675 C.3     1  UNL1        0.1319
     29 C           6.9112   -4.9766   29.9472 C.3     1  UNL1        0.0270
     30 C           8.6585   -7.0422   27.7498 C.3     1  UNL1        0.0862
     31 N           7.2397   -6.5942   27.9408 N.3     1  UNL1       -0.2902
     32 H           6.8071   -7.2539   28.5874 H       1  UNL1        0.1237
     33 C           3.4502   -0.4313   24.4380 C.1     1  UNL1       -0.0404
     34 C           2.2144    0.4077   24.5747 C.1     1  UNL1       -0.0583
     35 C           0.9784    1.2467   24.7115 C.ar    1  UNL1        0.0420
     36 C           0.2747    1.3356   26.0332 C.ar    1  UNL1        0.0083
     37 C          -0.9611    2.1745   26.1699 C.ar    1  UNL1        0.0018
     38 C          -1.4933    2.9246   24.9849 C.ar    1  UNL1        0.0137
     39 C          -2.7292    3.7636   25.1216 C.ar    1  UNL1        0.0594
     40 C          -3.4329    3.8525   26.4433 C.3     1  UNL1        0.0521
     41 N          -3.2614    4.5137   23.9367 N.ar    1  UNL1       -0.2481
     42 C          -2.5576    4.4248   22.6149 C.ar    1  UNL1        0.0984
     43 C          -1.3217    3.5859   22.4782 C.ar    1  UNL1        0.0207
     44 C          -0.7896    2.8358   23.6632 C.ar    1  UNL1        0.0033
     45 C           0.4463    1.9968   23.5265 C.ar    1  UNL1        0.0083
@<TRIPOS>BOND
     1    30    31    1
     2    31    28    1
     3    28    29    1
     4    28    24    1
     5    24    25    2
     6    24    26   am
     7    26     1    1
     8     1     2   ar
     9     2     3   ar
    10     3     4   ar
    11     4     7    1
    12     7     8   ar
    13     8    16    1
    14    16    17   ar
    15    17    18   ar
    16    18    19   ar
    17    19    20   ar
    18    20    21   ar
    19    21    22    1
    20    22    23    1
    21     8     9   ar
    22     9    10   ar
    23    10    11   ar
    24    11    12   ar
    25    12    13   ar
    26    13    14   ar
    27    14    15   ar
    28     4     5   ar
    29     5    33    1
    30    33    34    3
    31    34    35    1
    32    35    36   ar
    33    36    37   ar
    34    37    38   ar
    35    38    39   ar
    36    39    40    1
    37    39    41   ar
    38    41    42   ar
    39    42    43   ar
    40    43    44   ar
    41    44    45   ar
    42     5     6   ar
    43     6     1   ar
    44    15     7   ar
    45    45    35   ar
    46    21    16   ar
    47    15    10   ar
    48    44    38   ar
    49    31    32    1
    50    26    27    1
@<TRIPOS>MOLECULE
*****
 45 50 0 0 0
SMALL
GASTEIGER

@<TRIPOS>ATOM
      1 C           2.9568   -0.0915   23.5040 C.ar    1  UNL1        0.1348
      2 C           4.0828    0.3966   24.3665 C.ar    1  UNL1        0.0346
      3 C           3.8520    1.5146   25.3396 C.ar    1  UNL1        0.0065
      4 C           2.4951    2.1444   25.4502 C.ar    1  UNL1        0.0432
      5 C           1.3692    1.6563   24.5877 C.ar    1  UNL1        0.1256
      6 N           1.6000    0.5384   23.6146 N.ar    1  UNL1       -0.2222
      7 C           2.2643    3.2624   26.4233 C.ar    1  UNL1        0.0851
      8 C           1.4655    3.1779   27.6900 C.ar    1  UNL1        0.1035
      9 N           1.4992    4.5244   28.3501 N.ar    1  UNL1       -0.2263
     10 C           2.3190    5.4412   27.4913 C.ar    1  UNL1        0.1478
     11 C           2.6960    6.8854   27.6398 C.ar    1  UNL1        0.0374
     12 C           3.5459    7.5496   26.5974 C.ar    1  UNL1        0.0046
     13 C           4.0188    6.7697   25.4065 C.ar    1  UNL1        0.0191
     14 C           3.6417    5.3255   25.2581 C.ar    1  UNL1        0.0814
     15 N           2.7918    4.6612   26.3005 N.ar    1  UNL1       -0.2888
     16 C           0.7571    1.9605   28.2061 C.ar    1  UNL1        0.0723
     17 C          -0.7312    1.8412   28.0618 C.ar    1  UNL1        0.0078
     18 C          -1.4396    0.6239   28.5779 C.ar    1  UNL1        0.0209
     19 C          -0.6596   -0.4741   29.2383 C.ar    1  UNL1        0.1021
     20 N           0.8286   -0.3548   29.3825 N.ar    1  UNL1       -0.2101
     21 C           1.5369    0.8625   28.8664 C.ar    1  UNL1        0.2264
     22 O           3.0253    0.9818   29.0107 O.3     1  UNL1       -0.4561
     23 C           3.9053   -0.1927   28.7003 C.3     1  UNL1        0.2542
     24 C           3.6166   -0.9046   21.1263 C.2     1  UNL1        0.2414
     25 O           3.8148    0.5183   20.6947 O.2     1  UNL1       -0.2733
     26 N           3.1876   -1.2095   22.5310 N.am    1  UNL1       -0.2682
     27 H           3.0575   -2.1433   22.8142 H       1  UNL1        0.1563
     28 C           3.8474   -2.0226   20.1533 C.3     1  UNL1        0.1319
     29 C           4.2415   -3.3814   20.6518 C.3     1  UNL1        0.0270
     30 C           4.8668   -1.3779   17.8521 C.3     1  UNL1        0.0862
     31 N           3.6842   -1.7818   18.6818 N.3     1  UNL1       -0.2902
     32 H           3.3245   -2.6475   18.2799 H       1  UNL1        0.1237
     33 C           0.0123    2.2862   24.6983 C.1     1  UNL1       -0.0404
     34 C          -1.3446    2.9160   24.8089 C.1     1  UNL1       -0.0583
     35 C          -2.7015    3.5459   24.9195 C.ar    1  UNL1        0.0420
     36 C          -3.0699    4.3225   26.1487 C.ar    1  UNL1        0.0083
     37 C          -4.4268    4.9523   26.2593 C.ar    1  UNL1        0.0018
     38 C          -5.4151    4.8056   25.1405 C.ar    1  UNL1        0.0137
     39 C          -6.7720    5.4355   25.2511 C.ar    1  UNL1        0.0594
     40 C          -7.1405    6.2120   26.4804 C.3     1  UNL1        0.0521
     41 N          -7.7604    5.2887   24.1324 N.ar    1  UNL1       -0.2481
     42 C          -7.3919    4.5121   22.9031 C.ar    1  UNL1        0.0984
     43 C          -6.0351    3.8823   22.7925 C.ar    1  UNL1        0.0207
     44 C          -5.0467    4.0290   23.9113 C.ar    1  UNL1        0.0033
     45 C          -3.6899    3.3992   23.8007 C.ar    1  UNL1        0.0083
@<TRIPOS>BOND
     1    30    31    1
     2    31    28    1
     3    28    29    1
     4    28    24    1
     5    24    25    2
     6    24    26   am
     7    26     1    1
     8     1     2   ar
     9     2     3   ar
    10     3     4   ar
    11     4     7    1
    12     7     8   ar
    13     8    16    1
    14    16    17   ar
    15    17    18   ar
    16    18    19   ar
    17    19    20   ar
    18    20    21   ar
    19    21    22    1
    20    22    23    1
    21     8     9   ar
    22     9    10   ar
    23    10    11   ar
    24    11    12   ar
    25    12    13   ar
    26    13    14   ar
    27    14    15   ar
    28     4     5   ar
    29     5    33    1
    30    33    34    3
    31    34    35    1
    32    35    36   ar
    33    36    37   ar
    34    37    38   ar
    35    38    39   ar
    36    39    40    1
    37    39    41   ar
    38    41    42   ar
    39    42    43   ar
    40    43    44   ar
    41    44    45   ar
    42     5     6   ar
    43     6     1   ar
    44    15     7   ar
    45    45    35   ar
    46    21    16   ar
    47    15    10   ar
    48    44    38   ar
    49    31    32    1
    50    26    27    1
@<TRIPOS>MOLECULE
*****
 45 50 0 0 0
SMALL
GASTEIGER

@<TRIPOS>ATOM
      1 C          -0.9017    3.0599   26.9049 C.ar    1  UNL1        0.1348
      2 C          -0.0660    3.8623   27.8576 C.ar    1  UNL1        0.0346
      3 C           1.4280    3.7297   27.8395 C.ar    1  UNL1        0.0065
      4 C           2.0863    2.7948   26.8687 C.ar    1  UNL1        0.0432
      5 C           1.2506    1.9924   25.9160 C.ar    1  UNL1        0.1256
      6 N          -0.2434    2.1250   25.9341 N.ar    1  UNL1       -0.2222
      7 C           3.5803    2.6622   26.8506 C.ar    1  UNL1        0.0851
      8 C           4.4188    1.9922   27.8985 C.ar    1  UNL1        0.1035
      9 N           5.8549    2.0923   27.4769 N.ar    1  UNL1       -0.2263
     10 C           5.9040    2.8242   26.1685 C.ar    1  UNL1        0.1478
     11 C           7.0471    3.2154   25.2796 C.ar    1  UNL1        0.0374
     12 C           6.7844    3.9588   24.0035 C.ar    1  UNL1        0.0046
     13 C           5.3787    4.3111   23.6164 C.ar    1  UNL1        0.0191
     14 C           4.2356    3.9199   24.5053 C.ar    1  UNL1        0.0814
     15 N           4.4982    3.1764   25.7814 N.ar    1  UNL1       -0.2888
     16 C           3.9105    1.3371   29.1484 C.ar    1  UNL1        0.0723
     17 C           4.1214    1.9959   30.4795 C.ar    1  UNL1        0.0078
     18 C           3.6130    1.3408   31.7295 C.ar    1  UNL1        0.0209
     19 C           2.8938    0.0270   31.6485 C.ar    1  UNL1        0.1021
     20 N           2.6829   -0.6318   30.3175 N.ar    1  UNL1       -0.2101
     21 C           3.1913    0.0233   29.0675 C.ar    1  UNL1        0.2264
     22 O           2.9803   -0.6355   27.7365 O.3     1  UNL1       -0.4561
     23 C           4.0051   -1.5917   27.2022 C.3     1  UNL1        0.2542
     24 C          -3.0941    3.9560   25.8371 C.2     1  UNL1        0.2414
     25 O          -2.2985    4.5870   24.7330 O.2     1  UNL1       -0.2733
     26 N          -2.3957    3.1925   26.9230 N.am    1  UNL1       -0.2682
     27 H          -2.9179    2.7784   27.6476 H       1  UNL1        0.1563
     28 C          -4.5882    4.0886   25.8552 C.3     1  UNL1        0.1319
     29 C          -5.2499    4.9789   26.8649 C.3     1  UNL1        0.0270
     30 C          -6.0566    4.0517   23.7122 C.3     1  UNL1        0.0862
     31 N          -5.4204    3.3309   24.8636 N.3     1  UNL1       -0.2902
     32 H          -4.8190    2.6105   24.4639 H       1  UNL1        0.1237
     33 C           1.9089    1.0575   24.9451 C.1     1  UNL1       -0.0404
     34 C           2.5671    0.1225   23.9743 C.1     1  UNL1       -0.0583
     35 C           3.2253   -0.8125   23.0034 C.ar    1  UNL1        0.0420
     36 C           2.6660   -0.9741   21.6210 C.ar    1  UNL1        0.0083
     37 C           3.3243   -1.9090   20.6502 C.ar    1  UNL1        0.0018
     38 C           4.5419   -2.6824   21.0618 C.ar    1  UNL1        0.0137
     39 C           5.2002   -3.6174   20.0909 C.ar    1  UNL1        0.0594
     40 C           4.6409   -3.7789   18.7085 C.3     1  UNL1        0.0521
     41 N           6.4177   -4.3908   20.5024 N.ar    1  UNL1       -0.2481
     42 C           6.9770   -4.2292   21.8849 C.ar    1  UNL1        0.0984
     43 C           6.3187   -3.2942   22.8557 C.ar    1  UNL1        0.0207
     44 C           5.1012   -2.5208   22.4441 C.ar    1  UNL1        0.0033
     45 C           4.4429   -1.5859   23.4149 C.ar    1  UNL1        0.0083
@<TRIPOS>BOND
     1    30    31    1
     2    31    28    1
     3    28    29    1
     4    28    24    1
     5    24    25    2
     6    24    26   am
     7    26     1    1
     8     1     2   ar
     9     2     3   ar
    10     3     4   ar
    11     4     7    1
    12     7     8   ar
    13     8    16    1
    14    16    17   ar
    15    17    18   ar
    16    18    19   ar
    17    19    20   ar
    18    20    21   ar
    19    21    22    1
    20    22    23    1
    21     8     9   ar
    22     9    10   ar
    23    10    11   ar
    24    11    12   ar
    25    12    13   ar
    26    13    14   ar
    27    14    15   ar
    28     4     5   ar
    29     5    33    1
    30    33    34    3
    31    34    35    1
    32    35    36   ar
    33    36    37   ar
    34    37    38   ar
    35    38    39   ar
    36    39    40    1
    37    39    41   ar
    38    41    42   ar
    39    42    43   ar
    40    43    44   ar
    41    44    45   ar
    42     5     6   ar
    43     6     1   ar
    44    15     7   ar
    45    45    35   ar
    46    21    16   ar
    47    15    10   ar
    48    44    38   ar
    49    31    32    1
    50    26    27    1
