@<TRIPOS>MOLECULE
*****
 20 22 0 0 0
SMALL
GASTEIGER

@<TRIPOS>ATOM
      1 C          -9.1355  -18.8452   20.8222 C.3     1  UNL1        0.1762
      2 BR        -10.1881  -19.2963   19.8535 Br      1  UNL1       -0.0621
      3 C          -8.2127  -19.6408   19.9472 C.2     1  UNL1        0.1929
      4 O          -8.6052  -20.4077   18.7193 O.2     1  UNL1       -0.2897
      5 C          -6.8287  -19.5347   20.5156 C.ar    1  UNL1        0.0391
      6 C          -5.5158  -20.1111   20.0750 C.ar    1  UNL1        0.0030
      7 C          -4.2703  -19.8262   20.8607 C.ar    1  UNL1        0.0001
      8 C          -4.3376  -18.9651   22.0871 C.ar    1  UNL1        0.0001
      9 C          -5.6504  -18.3888   22.5277 C.ar    1  UNL1        0.0030
     10 C          -6.8960  -18.6736   21.7420 C.ar    1  UNL1        0.0391
     11 C          -8.3217  -18.2475   21.9314 C.2     1  UNL1        0.1929
     12 O          -8.8421  -17.3765   23.0362 O.2     1  UNL1       -0.2897
     13 C         -11.0427  -18.8323   22.5864 C.ar    1  UNL1       -0.0246
     14 C         -12.1854  -18.1310   23.2589 C.ar    1  UNL1       -0.0045
     15 C         -12.5638  -16.7414   22.8398 C.ar    1  UNL1       -0.0003
     16 C         -11.7993  -16.0530   21.7481 C.ar    1  UNL1       -0.0003
     17 C         -10.6566  -16.7543   21.0756 C.ar    1  UNL1       -0.0030
     18 C         -10.2782  -18.1439   21.4947 C.ar    1  UNL1       -0.0032
     19 C          -9.9782  -20.4483   24.3200 C.3     1  UNL1        0.0050
     20 C         -10.6644  -20.2221   23.0055 C.3     1  UNL1        0.0261
@<TRIPOS>BOND
     1    19    20    1
     2    20    13    1
     3    13    14   ar
     4    14    15   ar
     5    15    16   ar
     6    16    17   ar
     7    17    18   ar
     8    18     1    1
     9     1     2    1
    10     1     3    1
    11     3     4    2
    12     3     5    1
    13     5     6   ar
    14     6     7   ar
    15     7     8   ar
    16     8     9   ar
    17     9    10   ar
    18    10    11    1
    19    11    12    2
    20    18    13   ar
    21    11     1    1
    22    10     5   ar
@<TRIPOS>MOLECULE
*****
 20 22 0 0 0
SMALL
GASTEIGER

@<TRIPOS>ATOM
      1 C          -8.4349  -17.5535   22.8062 C.3     1  UNL1        0.1762
      2 BR         -8.5836  -16.4142   23.7705 Br      1  UNL1       -0.0621
      3 C          -6.9668  -17.3521   23.0385 C.2     1  UNL1        0.1929
      4 O          -6.3496  -16.3241   23.9398 O.2     1  UNL1       -0.2897
      5 C          -6.2241  -18.3592   22.2113 C.ar    1  UNL1        0.0391
      6 C          -4.7593  -18.6325   22.0391 C.ar    1  UNL1        0.0030
      7 C          -4.3037  -19.7296   21.1233 C.ar    1  UNL1        0.0001
      8 C          -5.3129  -20.5534   20.3798 C.ar    1  UNL1        0.0001
      9 C          -6.7777  -20.2801   20.5520 C.ar    1  UNL1        0.0030
     10 C          -7.2333  -19.1830   21.4677 C.ar    1  UNL1        0.0391
     11 C          -8.5996  -18.6850   21.8354 C.2     1  UNL1        0.1929
     12 O          -9.9020  -19.2240   21.3223 O.2     1  UNL1       -0.2897
     13 C         -10.7244  -18.3044   23.7780 C.ar    1  UNL1       -0.0246
     14 C         -12.2237  -18.2676   23.7472 C.ar    1  UNL1       -0.0045
     15 C         -12.9327  -17.4433   22.7140 C.ar    1  UNL1       -0.0003
     16 C         -12.1424  -16.6556   21.7114 C.ar    1  UNL1       -0.0003
     17 C         -10.6432  -16.6924   21.7422 C.ar    1  UNL1       -0.0030
     18 C          -9.9342  -17.5167   22.7754 C.ar    1  UNL1       -0.0032
     19 C          -9.8016  -20.5958   24.5830 C.3     1  UNL1        0.0050
     20 C         -10.0154  -19.1288   24.8113 C.3     1  UNL1        0.0261
@<TRIPOS>BOND
     1    19    20    1
     2    20    13    1
     3    13    14   ar
     4    14    15   ar
     5    15    16   ar
     6    16    17   ar
     7    17    18   ar
     8    18     1    1
     9     1     2    1
    10     1     3    1
    11     3     4    2
    12     3     5    1
    13     5     6   ar
    14     6     7   ar
    15     7     8   ar
    16     8     9   ar
    17     9    10   ar
    18    10    11    1
    19    11    12    2
    20    18    13   ar
    21    11     1    1
    22    10     5   ar
@<TRIPOS>MOLECULE
*****
 20 22 0 0 0
SMALL
GASTEIGER

@<TRIPOS>ATOM
      1 C          -9.5807  -18.8213   23.3311 C.3     1  UNL1        0.1762
      2 BR        -10.1967  -20.1889   23.3307 Br      1  UNL1       -0.0621
      3 C          -9.6485  -18.9631   24.8229 C.2     1  UNL1        0.1929
      4 O         -10.1838  -20.1470   25.5725 O.2     1  UNL1       -0.2897
      5 C          -9.0872  -17.7133   25.4334 C.ar    1  UNL1        0.0391
      6 C          -8.9001  -17.2897   26.8601 C.ar    1  UNL1        0.0030
      7 C          -8.2983  -15.9517   27.1724 C.ar    1  UNL1        0.0001
      8 C          -7.8834  -15.0374   26.0580 C.ar    1  UNL1        0.0001
      9 C          -8.0705  -15.4610   24.6313 C.ar    1  UNL1        0.0030
     10 C          -8.6723  -16.7990   24.3190 C.ar    1  UNL1        0.0391
     11 C          -8.9774  -17.4837   23.0198 C.2     1  UNL1        0.1929
     12 O          -8.7236  -16.9284   21.6496 O.2     1  UNL1       -0.2897
     13 C         -10.8896  -18.5843   21.0994 C.ar    1  UNL1       -0.0246
     14 C         -10.9505  -18.7283   19.6076 C.ar    1  UNL1       -0.0045
     15 C          -9.7635  -19.2533   18.8556 C.ar    1  UNL1       -0.0003
     16 C          -8.5155  -19.6342   19.5955 C.ar    1  UNL1       -0.0003
     17 C          -8.4546  -19.4902   21.0874 C.ar    1  UNL1       -0.0030
     18 C          -9.6416  -18.9653   21.8393 C.ar    1  UNL1       -0.0032
     19 C         -12.3028  -16.5804   21.9580 C.3     1  UNL1        0.0050
     20 C         -12.0767  -18.0594   21.8513 C.3     1  UNL1        0.0261
@<TRIPOS>BOND
     1    19    20    1
     2    20    13    1
     3    13    14   ar
     4    14    15   ar
     5    15    16   ar
     6    16    17   ar
     7    17    18   ar
     8    18     1    1
     9     1     2    1
    10     1     3    1
    11     3     4    2
    12     3     5    1
    13     5     6   ar
    14     6     7   ar
    15     7     8   ar
    16     8     9   ar
    17     9    10   ar
    18    10    11    1
    19    11    12    2
    20    18    13   ar
    21    11     1    1
    22    10     5   ar
@<TRIPOS>MOLECULE
*****
 20 22 0 0 0
SMALL
GASTEIGER

@<TRIPOS>ATOM
      1 C          -9.5930  -18.8229   21.1130 C.3     1  UNL1        0.1762
      2 BR        -10.6600  -19.2742   20.1602 Br      1  UNL1       -0.0621
      3 C          -8.6608  -19.4500   20.1192 C.2     1  UNL1        0.1929
      4 O          -9.0600  -20.1325   18.8445 O.2     1  UNL1       -0.2897
      5 C          -7.2591  -19.2749   20.6239 C.ar    1  UNL1        0.0391
      6 C          -5.9313  -19.6901   20.0633 C.ar    1  UNL1        0.0030
      7 C          -4.6694  -19.3699   20.8083 C.ar    1  UNL1        0.0001
      8 C          -4.7354  -18.6345   22.1140 C.ar    1  UNL1        0.0001
      9 C          -6.0632  -18.2194   22.6747 C.ar    1  UNL1        0.0030
     10 C          -7.3251  -18.5396   21.9297 C.ar    1  UNL1        0.0391
     11 C          -8.7675  -18.2602   22.2319 C.2     1  UNL1        0.1929
     12 O          -9.2923  -17.5439   23.4408 O.2     1  UNL1       -0.2897
     13 C         -11.3020  -16.9291   21.6058 C.ar    1  UNL1       -0.0246
     14 C         -12.4573  -16.3963   22.4004 C.ar    1  UNL1       -0.0045
     15 C         -13.0590  -17.2244   23.4968 C.ar    1  UNL1       -0.0003
     16 C         -12.5053  -18.5855   23.7986 C.ar    1  UNL1       -0.0003
     17 C         -11.3500  -19.1182   23.0040 C.ar    1  UNL1       -0.0030
     18 C         -10.7483  -18.2901   21.9076 C.ar    1  UNL1       -0.0032
     19 C         -11.5377  -15.6889   19.3350 C.3     1  UNL1        0.0050
     20 C         -10.7004  -16.1008   20.5094 C.3     1  UNL1        0.0261
@<TRIPOS>BOND
     1    19    20    1
     2    20    13    1
     3    13    14   ar
     4    14    15   ar
     5    15    16   ar
     6    16    17   ar
     7    17    18   ar
     8    18     1    1
     9     1     2    1
    10     1     3    1
    11     3     4    2
    12     3     5    1
    13     5     6   ar
    14     6     7   ar
    15     7     8   ar
    16     8     9   ar
    17     9    10   ar
    18    10    11    1
    19    11    12    2
    20    18    13   ar
    21    11     1    1
    22    10     5   ar
@<TRIPOS>MOLECULE
*****
 20 22 0 0 0
SMALL
GASTEIGER

@<TRIPOS>ATOM
      1 C          -8.8329  -17.6261   23.0848 C.3     1  UNL1        0.1762
      2 BR         -8.9854  -16.4327   23.9806 Br      1  UNL1       -0.0621
      3 C          -7.3733  -17.2849   23.1412 C.2     1  UNL1        0.1929
      4 O          -6.7635  -16.1426   23.8983 O.2     1  UNL1       -0.2897
      5 C          -6.6305  -18.2866   22.3076 C.ar    1  UNL1        0.0391
      6 C          -5.1724  -18.4484   21.9952 C.ar    1  UNL1        0.0030
      7 C          -4.7148  -19.5704   21.1111 C.ar    1  UNL1        0.0001
      8 C          -5.7154  -20.5307   20.5395 C.ar    1  UNL1        0.0001
      9 C          -7.1735  -20.3690   20.8519 C.ar    1  UNL1        0.0030
     10 C          -7.6311  -19.2469   21.7359 C.ar    1  UNL1        0.0391
     11 C          -8.9922  -18.8387   22.2163 C.2     1  UNL1        0.1929
     12 O         -10.2856  -19.5230   21.8861 O.2     1  UNL1       -0.2897
     13 C         -11.2085  -16.9922   22.2451 C.ar    1  UNL1       -0.0246
     14 C         -12.6999  -17.0839   22.3760 C.ar    1  UNL1       -0.0045
     15 C         -13.3074  -17.9013   23.4772 C.ar    1  UNL1       -0.0003
     16 C         -12.4233  -18.6270   24.4477 C.ar    1  UNL1       -0.0003
     17 C         -10.9318  -18.5352   24.3169 C.ar    1  UNL1       -0.0030
     18 C         -10.3244  -17.7179   23.2156 C.ar    1  UNL1       -0.0032
     19 C         -11.3356  -15.9987   19.8478 C.3     1  UNL1        0.0050
     20 C         -10.6010  -16.1747   21.1438 C.3     1  UNL1        0.0261
@<TRIPOS>BOND
     1    19    20    1
     2    20    13    1
     3    13    14   ar
     4    14    15   ar
     5    15    16   ar
     6    16    17   ar
     7    17    18   ar
     8    18     1    1
     9     1     2    1
    10     1     3    1
    11     3     4    2
    12     3     5    1
    13     5     6   ar
    14     6     7   ar
    15     7     8   ar
    16     8     9   ar
    17     9    10   ar
    18    10    11    1
    19    11    12    2
    20    18    13   ar
    21    11     1    1
    22    10     5   ar
@<TRIPOS>MOLECULE
*****
 20 22 0 0 0
SMALL
GASTEIGER

@<TRIPOS>ATOM
      1 C          -8.1023  -17.3030   22.9553 C.3     1  UNL1        0.1762
      2 BR         -7.3657  -17.8474   21.7675 Br      1  UNL1       -0.0621
      3 C          -6.7309  -16.9368   23.4400 C.2     1  UNL1        0.1929
      4 O          -5.4421  -17.1956   22.7174 O.2     1  UNL1       -0.2897
      5 C          -6.8743  -16.2663   24.7741 C.ar    1  UNL1        0.0391
      6 C          -5.8641  -15.6935   25.7234 C.ar    1  UNL1        0.0030
      7 C          -6.3140  -15.0725   27.0125 C.ar    1  UNL1        0.0001
      8 C          -7.7742  -15.0243   27.3524 C.ar    1  UNL1        0.0001
      9 C          -8.7844  -15.5972   26.4031 C.ar    1  UNL1        0.0030
     10 C          -8.3345  -16.2182   25.1140 C.ar    1  UNL1        0.0391
     11 C          -9.0934  -16.8588   23.9899 C.2     1  UNL1        0.1929
     12 O         -10.5822  -17.0260   23.9138 O.2     1  UNL1       -0.2897
     13 C          -9.8068  -19.1884   22.4166 C.ar    1  UNL1       -0.0246
     14 C         -11.0243  -19.6684   21.6836 C.ar    1  UNL1       -0.0045
     15 C         -11.7549  -18.7431   20.7563 C.ar    1  UNL1       -0.0003
     16 C         -11.2680  -17.3377   20.5621 C.ar    1  UNL1       -0.0003
     17 C         -10.0505  -16.8577   21.2950 C.ar    1  UNL1       -0.0030
     18 C          -9.3198  -17.7830   22.2223 C.ar    1  UNL1       -0.0032
     19 C          -9.7087  -20.5321   24.6381 C.3     1  UNL1        0.0050
     20 C          -9.0761  -20.1138   23.3440 C.3     1  UNL1        0.0261
@<TRIPOS>BOND
     1    19    20    1
     2    20    13    1
     3    13    14   ar
     4    14    15   ar
     5    15    16   ar
     6    16    17   ar
     7    17    18   ar
     8    18     1    1
     9     1     2    1
    10     1     3    1
    11     3     4    2
    12     3     5    1
    13     5     6   ar
    14     6     7   ar
    15     7     8   ar
    16     8     9   ar
    17     9    10   ar
    18    10    11    1
    19    11    12    2
    20    18    13   ar
    21    11     1    1
    22    10     5   ar
@<TRIPOS>MOLECULE
*****
 20 22 0 0 0
SMALL
GASTEIGER

@<TRIPOS>ATOM
      1 C          -9.4351  -18.8282   23.3274 C.3     1  UNL1        0.1762
      2 BR        -10.0441  -20.1989   23.3127 Br      1  UNL1       -0.0621
      3 C          -9.5729  -18.9545   24.8157 C.2     1  UNL1        0.1929
      4 O         -10.1375  -20.1330   25.5520 O.2     1  UNL1       -0.2897
      5 C          -9.0469  -17.6953   25.4384 C.ar    1  UNL1        0.0391
      6 C          -8.9296  -17.2555   26.8677 C.ar    1  UNL1        0.0030
      7 C          -8.3494  -15.9112   27.1935 C.ar    1  UNL1        0.0001
      8 C          -7.8865  -15.0067   26.0900 C.ar    1  UNL1        0.0001
      9 C          -8.0038  -15.4465   24.6608 C.ar    1  UNL1        0.0030
     10 C          -8.5840  -16.7908   24.3350 C.ar    1  UNL1        0.0391
     11 C          -8.8239  -17.4910   23.0303 C.2     1  UNL1        0.1929
     12 O          -8.5081  -16.9490   21.6677 O.2     1  UNL1       -0.2897
     13 C          -8.2122  -19.5449   21.1500 C.ar    1  UNL1       -0.0246
     14 C          -8.2017  -19.7051   19.6586 C.ar    1  UNL1       -0.0045
     15 C          -9.4035  -19.3090   18.8532 C.ar    1  UNL1       -0.0003
     16 C         -10.6159  -18.7526   19.5392 C.ar    1  UNL1       -0.0003
     17 C         -10.6264  -18.5923   21.0306 C.ar    1  UNL1       -0.0030
     18 C          -9.4246  -18.9885   21.8360 C.ar    1  UNL1       -0.0032
     19 C          -5.7308  -19.1697   21.8222 C.3     1  UNL1        0.0050
     20 C          -7.0103  -19.9411   21.9554 C.3     1  UNL1        0.0261
@<TRIPOS>BOND
     1    19    20    1
     2    20    13    1
     3    13    14   ar
     4    14    15   ar
     5    15    16   ar
     6    16    17   ar
     7    17    18   ar
     8    18     1    1
     9     1     2    1
    10     1     3    1
    11     3     4    2
    12     3     5    1
    13     5     6   ar
    14     6     7   ar
    15     7     8   ar
    16     8     9   ar
    17     9    10   ar
    18    10    11    1
    19    11    12    2
    20    18    13   ar
    21    11     1    1
    22    10     5   ar
@<TRIPOS>MOLECULE
*****
 20 22 0 0 0
SMALL
GASTEIGER

@<TRIPOS>ATOM
      1 C          -8.6792  -18.3676   21.6839 C.3     1  UNL1        0.1762
      2 BR         -9.1427  -19.4296   20.7313 Br      1  UNL1       -0.0621
      3 C          -7.3264  -18.9735   21.4544 C.2     1  UNL1        0.1929
      4 O          -7.0233  -20.1421   20.5640 O.2     1  UNL1       -0.2897
      5 C          -6.3299  -18.2059   22.2715 C.ar    1  UNL1        0.0391
      6 C          -4.8467  -18.3510   22.4415 C.ar    1  UNL1        0.0030
      7 C          -4.1005  -17.4158   23.3461 C.ar    1  UNL1        0.0001
      8 C          -4.8374  -16.3353   24.0807 C.ar    1  UNL1        0.0001
      9 C          -6.3206  -16.1902   23.9106 C.ar    1  UNL1        0.0030
     10 C          -7.0669  -17.1254   23.0060 C.ar    1  UNL1        0.0391
     11 C          -8.5188  -17.2254   22.6428 C.2     1  UNL1        0.1929
     12 O          -9.6175  -16.3388   23.1497 O.2     1  UNL1       -0.2897
     13 C         -11.0607  -18.6484   22.6837 C.ar    1  UNL1       -0.0246
     14 C         -12.5104  -18.2645   22.7141 C.ar    1  UNL1       -0.0045
     15 C         -13.0284  -17.2157   21.7751 C.ar    1  UNL1       -0.0003
     16 C         -12.0966  -16.5509   20.8056 C.ar    1  UNL1       -0.0003
     17 C         -10.6469  -16.9349   20.7753 C.ar    1  UNL1       -0.0030
     18 C         -10.1289  -17.9836   21.7143 C.ar    1  UNL1       -0.0032
     19 C         -10.1697  -19.3276   25.0279 C.3     1  UNL1        0.0050
     20 C         -10.5428  -19.6973   23.6228 C.3     1  UNL1        0.0261
@<TRIPOS>BOND
     1    19    20    1
     2    20    13    1
     3    13    14   ar
     4    14    15   ar
     5    15    16   ar
     6    16    17   ar
     7    17    18   ar
     8    18     1    1
     9     1     2    1
    10     1     3    1
    11     3     4    2
    12     3     5    1
    13     5     6   ar
    14     6     7   ar
    15     7     8   ar
    16     8     9   ar
    17     9    10   ar
    18    10    11    1
    19    11    12    2
    20    18    13   ar
    21    11     1    1
    22    10     5   ar
@<TRIPOS>MOLECULE
*****
 20 22 0 0 0
SMALL
GASTEIGER

@<TRIPOS>ATOM
      1 C          -8.9894  -18.3278   22.7427 C.3     1  UNL1        0.1762
      2 BR         -9.4105  -19.5767   22.0265 Br      1  UNL1       -0.0621
      3 C          -7.6056  -18.7651   22.3635 C.2     1  UNL1        0.1929
      4 O          -7.2524  -20.0010   21.5903 O.2     1  UNL1       -0.2897
      5 C          -6.6370  -17.7497   22.8933 C.ar    1  UNL1        0.0391
      6 C          -5.1415  -17.6572   22.8235 C.ar    1  UNL1        0.0030
      7 C          -4.4312  -16.4997   23.4604 C.ar    1  UNL1        0.0001
      8 C          -5.2163  -15.4347   24.1670 C.ar    1  UNL1        0.0001
      9 C          -6.7118  -15.5272   24.2367 C.ar    1  UNL1        0.0030
     10 C          -7.4222  -16.6847   23.5998 C.ar    1  UNL1        0.0391
     11 C          -8.8760  -17.0420   23.5068 C.2     1  UNL1        0.1929
     12 O         -10.0163  -16.2521   24.0776 O.2     1  UNL1       -0.2897
     13 C         -11.2958  -17.4220   21.9615 C.ar    1  UNL1       -0.0246
     14 C         -12.7676  -17.2457   22.1909 C.ar    1  UNL1       -0.0045
     15 C         -13.4049  -17.7987   23.4310 C.ar    1  UNL1       -0.0003
     16 C         -12.5704  -18.5282   24.4417 C.ar    1  UNL1       -0.0003
     17 C         -11.0985  -18.7045   24.2122 C.ar    1  UNL1       -0.0030
     18 C         -10.4612  -18.1514   22.9721 C.ar    1  UNL1       -0.0032
     19 C         -11.4691  -16.0452   19.7649 C.3     1  UNL1        0.0050
     20 C         -10.6585  -16.8689   20.7212 C.3     1  UNL1        0.0261
@<TRIPOS>BOND
     1    19    20    1
     2    20    13    1
     3    13    14   ar
     4    14    15   ar
     5    15    16   ar
     6    16    17   ar
     7    17    18   ar
     8    18     1    1
     9     1     2    1
    10     1     3    1
    11     3     4    2
    12     3     5    1
    13     5     6   ar
    14     6     7   ar
    15     7     8   ar
    16     8     9   ar
    17     9    10   ar
    18    10    11    1
    19    11    12    2
    20    18    13   ar
    21    11     1    1
    22    10     5   ar
