@<TRIPOS>MOLECULE
*****
 28 30 0 0 0
SMALL
GASTEIGER

@<TRIPOS>ATOM
      1 C           4.5808   -2.3182   22.1223 C.ar    1  UNL1        0.0045
      2 C           3.9434   -1.5539   23.2445 C.ar    1  UNL1        0.0004
      3 C           2.8020   -0.6220   22.9640 C.ar    1  UNL1        0.0076
      4 C           2.2979   -0.4545   21.5612 C.ar    1  UNL1        0.0870
      5 C           2.9353   -1.2188   20.4390 C.ar    1  UNL1        0.1427
      6 C           4.0768   -2.1507   20.7195 C.ar    1  UNL1        0.0371
      7 C           7.1640   -4.5969   24.0931 C.ar    1  UNL1        0.0219
      8 C           8.0052   -5.1139   22.9639 C.ar    1  UNL1        0.0989
      9 N           7.7048   -4.6989   21.5541 N.ar    1  UNL1       -0.2423
     10 C           6.5634   -3.7670   21.2736 C.ar    1  UNL1        0.0988
     11 C           5.7223   -3.2501   22.4028 C.ar    1  UNL1        0.0193
     12 C           6.0226   -3.6651   23.8126 C.ar    1  UNL1        0.0032
     13 C           7.9285   -7.6108   25.0841 C.3     1  UNL1        0.0518
     14 C           7.8157   -6.3972   25.9585 C.ar    1  UNL1        0.0576
     15 C           7.4644   -5.0119   25.5030 C.ar    1  UNL1        0.0356
     16 C           7.4660   -4.1144   26.7049 C.ar    1  UNL1        0.1213
     17 N           7.8184   -4.9450   27.9032 N.ar    1  UNL1       -0.1679
     18 N           8.0346   -6.3559   27.4419 N.ar    1  UNL1       -0.2528
     19 C           8.4045   -7.5209   28.3113 C.3     1  UNL1        0.1533
     20 C           1.1565    0.4774   21.2807 C.2     1  UNL1        0.2457
     21 N          -0.0413   -0.0111   20.5213 N.am    1  UNL1       -0.3252
     22 O           1.2128    1.8978   21.7595 O.2     1  UNL1       -0.2703
     23 H          -0.0782   -0.9433   20.2070 H       1  UNL1        0.1453
     24 H          -0.7904    0.6006   20.3371 H       1  UNL1        0.1453
     25 O           2.4313   -1.0513   19.0361 O.3     1  UNL1       -0.4790
     26 C           3.1823   -0.1866   18.0675 C.3     1  UNL1        0.1661
     27 C           3.3116    1.2862   18.3211 C.3     1  UNL1        0.0472
     28 C           3.8042   -0.7947   16.8454 C.3     1  UNL1        0.0472
@<TRIPOS>BOND
     1    13    14    1
     2    14    15   ar
     3    15     7    1
     4     7     8   ar
     5     8     9   ar
     6     9    10   ar
     7    10    11   ar
     8    11     1    1
     9     1     2   ar
    10     2     3   ar
    11     3     4   ar
    12     4    20    1
    13    20    21   am
    14    20    22    2
    15     4     5   ar
    16     5    25    1
    17    25    26    1
    18    26    27    1
    19    26    28    1
    20     5     6   ar
    21    11    12   ar
    22    15    16   ar
    23    16    17   ar
    24    17    18   ar
    25    18    19    1
    26    18    14   ar
    27    12     7   ar
    28     6     1   ar
    29    21    23    1
    30    21    24    1
@<TRIPOS>MOLECULE
*****
 28 30 0 0 0
SMALL
GASTEIGER

@<TRIPOS>ATOM
      1 C           2.1938    0.8824   18.7656 C.ar    1  UNL1        0.0045
      2 C           1.6158    0.0577   19.8772 C.ar    1  UNL1        0.0004
      3 C           2.1764   -1.3021   20.1719 C.ar    1  UNL1        0.0076
      4 C           3.3149   -1.8371   19.3550 C.ar    1  UNL1        0.0870
      5 C           3.8930   -1.0124   18.2434 C.ar    1  UNL1        0.1427
      6 C           3.3324    0.3474   17.9487 C.ar    1  UNL1        0.0371
      7 C          -0.3790    3.7562   17.8317 C.ar    1  UNL1        0.0219
      8 C           0.5122    4.9617   17.8815 C.ar    1  UNL1        0.0989
      9 N           1.9639    4.8075   18.2260 N.ar    1  UNL1       -0.2423
     10 C           2.5244    3.4477   18.5207 C.ar    1  UNL1        0.0988
     11 C           1.6333    2.2422   18.4709 C.ar    1  UNL1        0.0193
     12 C           0.1816    2.3964   18.1264 C.ar    1  UNL1        0.0032
     13 C          -2.8704    3.6636   19.9374 C.3     1  UNL1        0.0518
     14 C          -2.9759    3.8678   18.4552 C.ar    1  UNL1        0.0576
     15 C          -1.8308    3.9104   17.4872 C.ar    1  UNL1        0.0356
     16 C          -2.3923    4.1342   16.1144 C.ar    1  UNL1        0.1213
     17 N          -3.8844    4.2299   16.2339 N.ar    1  UNL1       -0.1679
     18 N          -4.2452    4.0653   17.6806 N.ar    1  UNL1       -0.2528
     19 C          -5.6317    4.0933   18.2522 C.3     1  UNL1        0.1533
     20 C           3.8755   -3.1968   19.6497 C.2     1  UNL1        0.2457
     21 N           3.9957   -4.2125   18.5524 N.am    1  UNL1       -0.3252
     22 O           4.3158   -3.5410   21.0416 O.2     1  UNL1       -0.2703
     23 H           3.7066   -3.9866   17.6388 H       1  UNL1        0.1453
     24 H           4.3636   -5.1049   18.7458 H       1  UNL1        0.1453
     25 O           5.0316   -1.5474   17.4264 O.3     1  UNL1       -0.4790
     26 C           6.4428   -1.1752   17.7726 C.3     1  UNL1        0.1661
     27 C           7.3211   -2.1540   18.4943 C.3     1  UNL1        0.0472
     28 C           6.9759    0.1756   17.3970 C.3     1  UNL1        0.0472
@<TRIPOS>BOND
     1    13    14    1
     2    14    15   ar
     3    15     7    1
     4     7     8   ar
     5     8     9   ar
     6     9    10   ar
     7    10    11   ar
     8    11     1    1
     9     1     2   ar
    10     2     3   ar
    11     3     4   ar
    12     4    20    1
    13    20    21   am
    14    20    22    2
    15     4     5   ar
    16     5    25    1
    17    25    26    1
    18    26    27    1
    19    26    28    1
    20     5     6   ar
    21    11    12   ar
    22    15    16   ar
    23    16    17   ar
    24    17    18   ar
    25    18    19    1
    26    18    14   ar
    27    12     7   ar
    28     6     1   ar
    29    21    23    1
    30    21    24    1
@<TRIPOS>MOLECULE
*****
 28 30 0 0 0
SMALL
GASTEIGER

@<TRIPOS>ATOM
      1 C           3.5271   -1.5072   22.7745 C.ar    1  UNL1        0.0045
      2 C           4.3127   -2.7726   22.9517 C.ar    1  UNL1        0.0004
      3 C           4.7007   -3.5884   21.7542 C.ar    1  UNL1        0.0076
      4 C           4.3033   -3.1387   20.3796 C.ar    1  UNL1        0.0870
      5 C           3.5177   -1.8732   20.2024 C.ar    1  UNL1        0.1427
      6 C           3.1297   -1.0574   21.3999 C.ar    1  UNL1        0.0371
      7 C           1.5707    1.0472   25.0978 C.ar    1  UNL1        0.0219
      8 C           2.3629    0.9401   26.3670 C.ar    1  UNL1        0.0989
      9 N           3.5433    0.0173   26.4386 N.ar    1  UNL1       -0.2423
     10 C           3.9313   -0.7985   25.2412 C.ar    1  UNL1        0.0988
     11 C           3.1391   -0.6914   23.9720 C.ar    1  UNL1        0.0193
     12 C           1.9587    0.2314   23.9003 C.ar    1  UNL1        0.0032
     13 C          -0.7429    1.3828   27.3747 C.3     1  UNL1        0.0518
     14 C          -0.6732    2.1243   26.0726 C.ar    1  UNL1        0.0576
     15 C           0.3903    1.9700   25.0261 C.ar    1  UNL1        0.0356
     16 C           0.0661    2.9006   23.8952 C.ar    1  UNL1        0.1213
     17 N          -1.1977    3.6300   24.2428 N.ar    1  UNL1       -0.1679
     18 N          -1.6546    3.1502   25.5886 N.ar    1  UNL1       -0.2528
     19 C          -2.8780    3.6148   26.3216 C.3     1  UNL1        0.1533
     20 C           4.6913   -3.9544   19.1821 C.2     1  UNL1        0.2457
     21 N           5.0935   -3.2722   17.9082 N.am    1  UNL1       -0.3252
     22 O           4.6772   -5.4524   19.2585 O.2     1  UNL1       -0.2703
     23 H           5.1027   -2.2891   17.8581 H       1  UNL1        0.1453
     24 H           5.3482   -3.8077   17.1223 H       1  UNL1        0.1453
     25 O           3.1202   -1.4234   18.8277 O.3     1  UNL1       -0.4790
     26 C           2.8466    0.0275   18.5632 C.3     1  UNL1        0.1661
     27 C           3.9855    0.9747   18.3274 C.3     1  UNL1        0.0472
     28 C           1.4339    0.5312   18.5343 C.3     1  UNL1        0.0472
@<TRIPOS>BOND
     1    13    14    1
     2    14    15   ar
     3    15     7    1
     4     7     8   ar
     5     8     9   ar
     6     9    10   ar
     7    10    11   ar
     8    11     1    1
     9     1     2   ar
    10     2     3   ar
    11     3     4   ar
    12     4    20    1
    13    20    21   am
    14    20    22    2
    15     4     5   ar
    16     5    25    1
    17    25    26    1
    18    26    27    1
    19    26    28    1
    20     5     6   ar
    21    11    12   ar
    22    15    16   ar
    23    16    17   ar
    24    17    18   ar
    25    18    19    1
    26    18    14   ar
    27    12     7   ar
    28     6     1   ar
    29    21    23    1
    30    21    24    1
@<TRIPOS>MOLECULE
*****
 28 30 0 0 0
SMALL
GASTEIGER

@<TRIPOS>ATOM
      1 C           7.5083   -5.4509   24.0505 C.ar    1  UNL1        0.0045
      2 C           8.3263   -6.6847   23.8089 C.ar    1  UNL1        0.0004
      3 C           8.5359   -7.6745   24.9163 C.ar    1  UNL1        0.0076
      4 C           7.9273   -7.4305   26.2654 C.ar    1  UNL1        0.0870
      5 C           7.1093   -6.1967   26.5071 C.ar    1  UNL1        0.1427
      6 C           6.8998   -5.2069   25.3996 C.ar    1  UNL1        0.0371
      7 C           5.8225   -2.6704   21.7753 C.ar    1  UNL1        0.0219
      8 C           6.8798   -2.4815   20.7283 C.ar    1  UNL1        0.0989
      9 N           8.1466   -3.2823   20.7887 N.ar    1  UNL1       -0.2423
     10 C           8.3561   -4.2721   21.8961 C.ar    1  UNL1        0.0988
     11 C           7.2988   -4.4611   22.9431 C.ar    1  UNL1        0.0193
     12 C           6.0320   -3.6602   22.8827 C.ar    1  UNL1        0.0032
     13 C           3.5640   -2.8274   19.4249 C.3     1  UNL1        0.0518
     14 C           3.5175   -1.9417   20.6346 C.ar    1  UNL1        0.0576
     15 C           4.5556   -1.8695   21.7150 C.ar    1  UNL1        0.0356
     16 C           4.1043   -0.8558   22.7244 C.ar    1  UNL1        0.1213
     17 N           2.7874   -0.3016   22.2679 N.ar    1  UNL1       -0.1679
     18 N           2.4247   -0.9727   20.9763 N.ar    1  UNL1       -0.2528
     19 C           1.1866   -0.7192   20.1683 C.3     1  UNL1        0.1533
     20 C           8.1369   -8.4203   27.3728 C.2     1  UNL1        0.2457
     21 N           7.2648   -9.6372   27.4660 N.am    1  UNL1       -0.3252
     22 O           9.2184   -8.1933   28.3870 O.2     1  UNL1       -0.2703
     23 H           6.5549   -9.7862   26.8004 H       1  UNL1        0.1453
     24 H           7.4023  -10.2868   28.1929 H       1  UNL1        0.1453
     25 O           6.5008   -5.9526   27.8562 O.3     1  UNL1       -0.4790
     26 C           7.3180   -5.3222   28.9447 C.3     1  UNL1        0.1661
     27 C           8.4350   -4.3837   28.5961 C.3     1  UNL1        0.0472
     28 C           7.0182   -5.6304   30.3818 C.3     1  UNL1        0.0472
@<TRIPOS>BOND
     1    13    14    1
     2    14    15   ar
     3    15     7    1
     4     7     8   ar
     5     8     9   ar
     6     9    10   ar
     7    10    11   ar
     8    11     1    1
     9     1     2   ar
    10     2     3   ar
    11     3     4   ar
    12     4    20    1
    13    20    21   am
    14    20    22    2
    15     4     5   ar
    16     5    25    1
    17    25    26    1
    18    26    27    1
    19    26    28    1
    20     5     6   ar
    21    11    12   ar
    22    15    16   ar
    23    16    17   ar
    24    17    18   ar
    25    18    19    1
    26    18    14   ar
    27    12     7   ar
    28     6     1   ar
    29    21    23    1
    30    21    24    1
@<TRIPOS>MOLECULE
*****
 28 30 0 0 0
SMALL
GASTEIGER

@<TRIPOS>ATOM
      1 C           3.3306   -1.2469   22.5853 C.ar    1  UNL1        0.0045
      2 C           2.7521   -0.8203   21.2688 C.ar    1  UNL1        0.0004
      3 C           3.1474   -1.5330   20.0095 C.ar    1  UNL1        0.0076
      4 C           4.1212   -2.6724   20.0668 C.ar    1  UNL1        0.0870
      5 C           4.6998   -3.0991   21.3832 C.ar    1  UNL1        0.1427
      6 C           4.3045   -2.3863   22.6425 C.ar    1  UNL1        0.0371
      7 C           1.3628    1.1081   25.1015 C.ar    1  UNL1        0.0219
      8 C           2.1448    0.8913   26.3631 C.ar    1  UNL1        0.0989
      9 N           3.3220   -0.0382   26.3654 N.ar    1  UNL1       -0.2423
     10 C           3.7173   -0.7510   25.1061 C.ar    1  UNL1        0.0988
     11 C           2.9353   -0.5342   23.8446 C.ar    1  UNL1        0.0193
     12 C           1.7581    0.3954   23.8423 C.ar    1  UNL1        0.0032
     13 C          -0.8616    1.3921   27.4724 C.3     1  UNL1        0.0518
     14 C          -0.8369    2.1682   26.1890 C.ar    1  UNL1        0.0576
     15 C           0.1855    2.0377   25.0992 C.ar    1  UNL1        0.0356
     16 C          -0.1760    2.9999   24.0068 C.ar    1  UNL1        0.1213
     17 N          -1.4219    3.7251   24.4213 N.ar    1  UNL1       -0.1679
     18 N          -1.8304    3.2111   25.7701 N.ar    1  UNL1       -0.2528
     19 C          -3.0229    3.6609   26.5609 C.3     1  UNL1        0.1533
     20 C           4.5165   -3.3851   18.8075 C.2     1  UNL1        0.2457
     21 N           4.0815   -4.8025   18.5798 N.am    1  UNL1       -0.3252
     22 O           5.3468   -2.6806   17.7760 O.2     1  UNL1       -0.2703
     23 H           3.5365   -5.2649   19.2568 H       1  UNL1        0.1453
     24 H           4.3409   -5.2702   17.7533 H       1  UNL1        0.1453
     25 O           5.6737   -4.2385   21.4405 O.3     1  UNL1       -0.4790
     26 C           7.1408   -3.9644   21.5897 C.3     1  UNL1        0.1661
     27 C           7.9013   -3.3205   20.4684 C.3     1  UNL1        0.0472
     28 C           7.8476   -4.3341   22.8600 C.3     1  UNL1        0.0472
@<TRIPOS>BOND
     1    13    14    1
     2    14    15   ar
     3    15     7    1
     4     7     8   ar
     5     8     9   ar
     6     9    10   ar
     7    10    11   ar
     8    11     1    1
     9     1     2   ar
    10     2     3   ar
    11     3     4   ar
    12     4    20    1
    13    20    21   am
    14    20    22    2
    15     4     5   ar
    16     5    25    1
    17    25    26    1
    18    26    27    1
    19    26    28    1
    20     5     6   ar
    21    11    12   ar
    22    15    16   ar
    23    16    17   ar
    24    17    18   ar
    25    18    19    1
    26    18    14   ar
    27    12     7   ar
    28     6     1   ar
    29    21    23    1
    30    21    24    1
@<TRIPOS>MOLECULE
*****
 28 30 0 0 0
SMALL
GASTEIGER

@<TRIPOS>ATOM
      1 C          -2.9727    3.4355   25.1650 C.ar    1  UNL1        0.0045
      2 C          -3.7906    4.0801   26.2445 C.ar    1  UNL1        0.0004
      3 C          -5.2022    4.5034   25.9644 C.ar    1  UNL1        0.0076
      4 C          -5.7958    4.2820   24.6048 C.ar    1  UNL1        0.0870
      5 C          -4.9778    3.6374   23.5253 C.ar    1  UNL1        0.1427
      6 C          -3.5663    3.2142   23.8054 C.ar    1  UNL1        0.0371
      7 C           0.2239    2.0764   27.0844 C.ar    1  UNL1        0.0219
      8 C           1.2619    2.1657   26.0052 C.ar    1  UNL1        0.0989
      9 N           0.8883    2.6783   24.6459 N.ar    1  UNL1       -0.2423
     10 C          -0.5233    3.1016   24.3659 C.ar    1  UNL1        0.0988
     11 C          -1.5612    3.0123   25.4450 C.ar    1  UNL1        0.0193
     12 C          -1.1876    2.4997   26.8043 C.ar    1  UNL1        0.0032
     13 C           0.8257    3.8996   29.7233 C.3     1  UNL1        0.0518
     14 C           0.8741    2.4018   29.6567 C.ar    1  UNL1        0.0576
     15 C           0.5975    1.5638   28.4437 C.ar    1  UNL1        0.0356
     16 C           0.7601    0.1232   28.8287 C.ar    1  UNL1        0.1213
     17 N           1.1371    0.0709   30.2796 N.ar    1  UNL1       -0.1679
     18 N           1.2076    1.4792   30.7913 N.ar    1  UNL1       -0.2528
     19 C           1.5512    1.8923   32.1918 C.3     1  UNL1        0.1533
     20 C          -7.2073    4.7053   24.3247 C.2     1  UNL1        0.2457
     21 N          -8.0689    3.8852   23.4109 N.am    1  UNL1       -0.3252
     22 O          -7.7572    5.9486   24.9585 O.2     1  UNL1       -0.2703
     23 H          -7.7080    3.0692   22.9950 H       1  UNL1        0.1453
     24 H          -8.9953    4.1631   23.2271 H       1  UNL1        0.1453
     25 O          -5.5714    3.4161   22.1656 O.3     1  UNL1       -0.4790
     26 C          -5.1405    4.2709   21.0108 C.3     1  UNL1        0.1661
     27 C          -4.8610    5.7296   21.2208 C.3     1  UNL1        0.0472
     28 C          -4.9889    3.6670   19.6461 C.3     1  UNL1        0.0472
@<TRIPOS>BOND
     1    13    14    1
     2    14    15   ar
     3    15     7    1
     4     7     8   ar
     5     8     9   ar
     6     9    10   ar
     7    10    11   ar
     8    11     1    1
     9     1     2   ar
    10     2     3   ar
    11     3     4   ar
    12     4    20    1
    13    20    21   am
    14    20    22    2
    15     4     5   ar
    16     5    25    1
    17    25    26    1
    18    26    27    1
    19    26    28    1
    20     5     6   ar
    21    11    12   ar
    22    15    16   ar
    23    16    17   ar
    24    17    18   ar
    25    18    19    1
    26    18    14   ar
    27    12     7   ar
    28     6     1   ar
    29    21    23    1
    30    21    24    1
@<TRIPOS>MOLECULE
*****
 28 30 0 0 0
SMALL
GASTEIGER

@<TRIPOS>ATOM
      1 C           5.1517   -2.8576   23.3762 C.ar    1  UNL1        0.0045
      2 C           4.7041   -1.9561   24.4883 C.ar    1  UNL1        0.0004
      3 C           5.3669   -2.0362   25.8316 C.ar    1  UNL1        0.0076
      4 C           6.4772   -3.0179   26.0627 C.ar    1  UNL1        0.0870
      5 C           6.9248   -3.9194   24.9506 C.ar    1  UNL1        0.1427
      6 C           6.2621   -3.8392   23.6073 C.ar    1  UNL1        0.0371
      7 C           2.8287   -1.6129   20.4090 C.ar    1  UNL1        0.0219
      8 C           3.1635   -2.6172   19.3464 C.ar    1  UNL1        0.0989
      9 N           4.1611   -3.7016   19.6270 N.ar    1  UNL1       -0.2423
     10 C           4.8239   -3.7817   20.9703 C.ar    1  UNL1        0.0988
     11 C           4.4890   -2.7774   22.0329 C.ar    1  UNL1        0.0193
     12 C           3.4914   -1.6930   21.7523 C.ar    1  UNL1        0.0032
     13 C           3.1126    0.7140   18.1386 C.3     1  UNL1        0.0518
     14 C           1.9616    0.5411   19.0848 C.ar    1  UNL1        0.0576
     15 C           1.8310   -0.5284   20.1284 C.ar    1  UNL1        0.0356
     16 C           0.5278   -0.3231   20.8421 C.ar    1  UNL1        0.1213
     17 N          -0.1471    0.8734   20.2396 N.ar    1  UNL1       -0.1679
     18 N           0.7390    1.4075   19.1535 N.ar    1  UNL1       -0.2528
     19 C           0.4528    2.5988   18.2881 C.3     1  UNL1        0.1533
     20 C           7.1399   -3.0980   27.4060 C.2     1  UNL1        0.2457
     21 N           8.6354   -3.1644   27.5017 N.am    1  UNL1       -0.3252
     22 O           6.3072   -3.1118   28.6535 O.2     1  UNL1       -0.2703
     23 H           9.1819   -3.1553   26.6829 H       1  UNL1        0.1453
     24 H           9.0703   -3.2169   28.3834 H       1  UNL1        0.1453
     25 O           8.0352   -4.9011   25.1817 O.3     1  UNL1       -0.4790
     26 C           7.7202   -6.3500   25.4082 C.3     1  UNL1        0.1661
     27 C           8.2075   -7.3842   24.4370 C.3     1  UNL1        0.0472
     28 C           6.9180   -6.7648   26.6059 C.3     1  UNL1        0.0472
@<TRIPOS>BOND
     1    13    14    1
     2    14    15   ar
     3    15     7    1
     4     7     8   ar
     5     8     9   ar
     6     9    10   ar
     7    10    11   ar
     8    11     1    1
     9     1     2   ar
    10     2     3   ar
    11     3     4   ar
    12     4    20    1
    13    20    21   am
    14    20    22    2
    15     4     5   ar
    16     5    25    1
    17    25    26    1
    18    26    27    1
    19    26    28    1
    20     5     6   ar
    21    11    12   ar
    22    15    16   ar
    23    16    17   ar
    24    17    18   ar
    25    18    19    1
    26    18    14   ar
    27    12     7   ar
    28     6     1   ar
    29    21    23    1
    30    21    24    1
@<TRIPOS>MOLECULE
*****
 28 30 0 0 0
SMALL
GASTEIGER

@<TRIPOS>ATOM
      1 C           3.5640   -1.1139   23.2015 C.ar    1  UNL1        0.0045
      2 C           4.3511   -2.3547   23.5030 C.ar    1  UNL1        0.0004
      3 C           4.6377   -3.3444   22.4130 C.ar    1  UNL1        0.0076
      4 C           4.1372   -3.0935   21.0215 C.ar    1  UNL1        0.0870
      5 C           3.3501   -1.8527   20.7199 C.ar    1  UNL1        0.1427
      6 C           3.0635   -0.8629   21.8100 C.ar    1  UNL1        0.0371
      7 C           2.9598    0.4173   26.8127 C.ar    1  UNL1        0.0219
      8 C           2.7042    1.8555   26.4717 C.ar    1  UNL1        0.0989
      9 N           2.7353    2.3038   25.0406 N.ar    1  UNL1       -0.2423
     10 C           3.0219    1.3141   23.9506 C.ar    1  UNL1        0.0988
     11 C           3.2774   -0.1241   24.2916 C.ar    1  UNL1        0.0193
     12 C           3.2464   -0.5725   25.7226 C.ar    1  UNL1        0.0032
     13 C           5.5590   -0.2247   28.6785 C.3     1  UNL1        0.0518
     14 C           4.1235   -0.3263   29.1014 C.ar    1  UNL1        0.0576
     15 C           2.9287   -0.0312   28.2438 C.ar    1  UNL1        0.0356
     16 C           1.6975   -0.2633   29.0685 C.ar    1  UNL1        0.1213
     17 N           2.1313   -0.7018   30.4358 N.ar    1  UNL1       -0.1679
     18 N           3.6307   -0.7407   30.4561 N.ar    1  UNL1       -0.2528
     19 C           4.4869   -1.1264   31.6258 C.3     1  UNL1        0.1533
     20 C           4.4238   -4.0832   19.9314 C.2     1  UNL1        0.2457
     21 N           3.4116   -4.3228   18.8507 N.am    1  UNL1       -0.3252
     22 O           5.7226   -4.8335   19.9221 O.2     1  UNL1       -0.2703
     23 H           2.5591   -3.8304   18.8568 H       1  UNL1        0.1453
     24 H           3.5997   -4.9724   18.1353 H       1  UNL1        0.1453
     25 O           2.8496   -1.6017   19.3283 O.3     1  UNL1       -0.4790
     26 C           3.5531   -0.6144   18.4449 C.3     1  UNL1        0.1661
     27 C           2.9299    0.7217   18.1684 C.3     1  UNL1        0.0472
     28 C           4.8797   -0.9633   17.8381 C.3     1  UNL1        0.0472
@<TRIPOS>BOND
     1    13    14    1
     2    14    15   ar
     3    15     7    1
     4     7     8   ar
     5     8     9   ar
     6     9    10   ar
     7    10    11   ar
     8    11     1    1
     9     1     2   ar
    10     2     3   ar
    11     3     4   ar
    12     4    20    1
    13    20    21   am
    14    20    22    2
    15     4     5   ar
    16     5    25    1
    17    25    26    1
    18    26    27    1
    19    26    28    1
    20     5     6   ar
    21    11    12   ar
    22    15    16   ar
    23    16    17   ar
    24    17    18   ar
    25    18    19    1
    26    18    14   ar
    27    12     7   ar
    28     6     1   ar
    29    21    23    1
    30    21    24    1
@<TRIPOS>MOLECULE
*****
 28 30 0 0 0
SMALL
GASTEIGER

@<TRIPOS>ATOM
      1 C           1.2550    0.9483   19.2659 C.ar    1  UNL1        0.0045
      2 C           1.1604   -0.1660   20.2656 C.ar    1  UNL1        0.0004
      3 C           2.1548   -1.2885   20.2339 C.ar    1  UNL1        0.0076
      4 C           3.2439   -1.2968   19.2025 C.ar    1  UNL1        0.0870
      5 C           3.3385   -0.1825   18.2028 C.ar    1  UNL1        0.1427
      6 C           2.3440    0.9400   18.2345 C.ar    1  UNL1        0.0371
      7 C          -1.5305    3.4547   20.5732 C.ar    1  UNL1        0.0219
      8 C          -1.7283    4.3159   19.3611 C.ar    1  UNL1        0.0989
      9 N          -0.9317    4.0546   18.1173 N.ar    1  UNL1       -0.2423
     10 C           0.0627    2.9320   18.0856 C.ar    1  UNL1        0.0988
     11 C           0.2606    2.0708   19.2977 C.ar    1  UNL1        0.0193
     12 C          -0.5361    2.3322   20.5415 C.ar    1  UNL1        0.0032
     13 C          -4.7643    3.1426   20.8809 C.3     1  UNL1        0.0518
     14 C          -3.8136    3.5725   21.9585 C.ar    1  UNL1        0.0576
     15 C          -2.3271    3.7160   21.8171 C.ar    1  UNL1        0.0356
     16 C          -1.7772    4.1666   23.1379 C.ar    1  UNL1        0.1213
     17 N          -2.9237    4.3016   24.0956 N.ar    1  UNL1       -0.1679
     18 N          -4.1823    3.9345   23.3667 N.ar    1  UNL1       -0.2528
     19 C          -5.5665    3.9301   23.9445 C.3     1  UNL1        0.1533
     20 C           4.2383   -2.4193   19.1707 C.2     1  UNL1        0.2457
     21 N           4.7335   -2.9456   17.8563 N.am    1  UNL1       -0.3252
     22 O           4.7376   -3.0155   20.4534 O.2     1  UNL1       -0.2703
     23 H           4.4059   -2.5543   17.0144 H       1  UNL1        0.1453
     24 H           5.3862   -3.6824   17.8355 H       1  UNL1        0.1453
     25 O           4.4276   -0.1907   17.1713 O.3     1  UNL1       -0.4790
     26 C           5.6780    0.6071   17.3945 C.3     1  UNL1        0.1661
     27 C           6.1057    0.9567   18.7892 C.3     1  UNL1        0.0472
     28 C           6.5008    1.0554   16.2232 C.3     1  UNL1        0.0472
@<TRIPOS>BOND
     1    13    14    1
     2    14    15   ar
     3    15     7    1
     4     7     8   ar
     5     8     9   ar
     6     9    10   ar
     7    10    11   ar
     8    11     1    1
     9     1     2   ar
    10     2     3   ar
    11     3     4   ar
    12     4    20    1
    13    20    21   am
    14    20    22    2
    15     4     5   ar
    16     5    25    1
    17    25    26    1
    18    26    27    1
    19    26    28    1
    20     5     6   ar
    21    11    12   ar
    22    15    16   ar
    23    16    17   ar
    24    17    18   ar
    25    18    19    1
    26    18    14   ar
    27    12     7   ar
    28     6     1   ar
    29    21    23    1
    30    21    24    1
