@<TRIPOS>MOLECULE
*****
 25 28 0 0 0
SMALL
GASTEIGER

@<TRIPOS>ATOM
      1 C          -4.7179  -18.8264   21.1077 C.ar    1  UNL1        0.1535
      2 C          -5.5444  -19.6319   20.1497 C.ar    1  UNL1        0.1332
      3 N          -7.0416  -19.5851   20.2278 N.ar    1  UNL1       -0.2394
      4 C          -7.7123  -18.7327   21.2640 C.ar    1  UNL1        0.0991
      5 C          -6.8857  -17.9271   22.2220 C.ar    1  UNL1        0.1004
      6 N          -5.3885  -17.9740   22.1438 N.ar    1  UNL1       -0.2274
      7 C          -9.2095  -18.6859   21.3422 C.ar    1  UNL1        0.0222
      8 C          -9.9568  -19.7648   22.0685 C.ar    1  UNL1        0.0222
      9 C         -11.4540  -19.7179   22.1466 C.ar    1  UNL1        0.0989
     10 N         -12.2040  -18.5922   21.4984 N.ar    1  UNL1       -0.2423
     11 C         -11.4567  -17.5132   20.7721 C.ar    1  UNL1        0.0989
     12 C          -9.9595  -17.5601   20.6940 C.ar    1  UNL1        0.0222
     13 C          -7.5563  -17.0747   23.2582 C.ar    1  UNL1        0.0223
     14 C          -8.5412  -17.6865   24.2098 C.ar    1  UNL1        0.0222
     15 C          -9.2119  -16.8341   25.2459 C.ar    1  UNL1        0.0989
     16 N          -8.8975  -15.3699   25.3305 N.ar    1  UNL1       -0.2423
     17 C          -7.9126  -14.7581   24.3790 C.ar    1  UNL1        0.0989
     18 C          -7.2420  -15.6105   23.3428 C.ar    1  UNL1        0.0222
     19 O          -3.2583  -17.0275   19.2014 O.2     1  UNL1       -0.2747
     20 C          -2.4908  -17.9738   20.0764 C.2     1  UNL1        0.2267
     21 N          -3.2206  -18.8732   21.0295 N.am    1  UNL1       -0.2681
     22 H          -2.7169  -19.4943   21.6038 H       1  UNL1        0.1563
     23 C          -0.9935  -18.0206   19.9983 C.3     1  UNL1        0.0769
     24 C           0.2725  -18.7962   19.7849 C.3     1  UNL1        0.0096
     25 C           0.3337  -17.3261   20.0762 C.3     1  UNL1        0.0096
@<TRIPOS>BOND
     1    19    20    2
     2    20    21   am
     3    21     1    1
     4     1     2   ar
     5     2     3   ar
     6     3     4   ar
     7     4     7    1
     8     7     8   ar
     9     8     9   ar
    10     9    10   ar
    11    10    11   ar
    12    11    12   ar
    13     4     5   ar
    14     5    13    1
    15    13    14   ar
    16    14    15   ar
    17    15    16   ar
    18    16    17   ar
    19    17    18   ar
    20     5     6   ar
    21    20    23    1
    22    23    24    1
    23    24    25    1
    24     6     1   ar
    25    25    23    1
    26    12     7   ar
    27    18    13   ar
    28    21    22    1
@<TRIPOS>MOLECULE
*****
 25 28 0 0 0
SMALL
GASTEIGER

@<TRIPOS>ATOM
      1 C           1.6807    1.3345   22.4011 C.ar    1  UNL1        0.1535
      2 C           2.3250    2.4559   21.6414 C.ar    1  UNL1        0.1332
      3 N           3.3786    2.1589   20.6159 N.ar    1  UNL1       -0.2394
      4 C           3.7878    0.7405   20.3501 C.ar    1  UNL1        0.0991
      5 C           3.1435   -0.3809   21.1098 C.ar    1  UNL1        0.1004
      6 N           2.0899   -0.0839   22.1353 N.ar    1  UNL1       -0.2274
      7 C           4.8415    0.4435   19.3246 C.ar    1  UNL1        0.0222
      8 C           6.2430    0.1308   19.7580 C.ar    1  UNL1        0.0222
      9 C           7.2967   -0.1662   18.7325 C.ar    1  UNL1        0.0989
     10 N           6.9487   -0.1505   17.2735 N.ar    1  UNL1       -0.2423
     11 C           5.5471    0.1622   16.8400 C.ar    1  UNL1        0.0989
     12 C           4.4935    0.4592   17.8656 C.ar    1  UNL1        0.0222
     13 C           3.5527   -1.7993   20.8441 C.ar    1  UNL1        0.0223
     14 C           4.4004   -2.5345   21.8395 C.ar    1  UNL1        0.0222
     15 C           4.8096   -3.9529   21.5738 C.ar    1  UNL1        0.0989
     16 N           4.3711   -4.6362   20.3125 N.ar    1  UNL1       -0.2423
     17 C           3.5234   -3.9011   19.3170 C.ar    1  UNL1        0.0989
     18 C           3.1142   -2.4827   19.5828 C.ar    1  UNL1        0.0222
     19 O           2.2690    0.9344   25.3155 O.2     1  UNL1       -0.2747
     20 C           0.9212    1.4314   24.8838 C.2     1  UNL1        0.2267
     21 N           0.6270    1.6315   23.4267 N.am    1  UNL1       -0.2681
     22 H          -0.2576    1.9577   23.1434 H       1  UNL1        0.1563
     23 C          -0.1324    1.7284   25.9094 C.3     1  UNL1        0.0769
     24 C          -1.3392    2.5058   26.3445 C.3     1  UNL1        0.0096
     25 C          -0.7506    1.4654   27.2506 C.3     1  UNL1        0.0096
@<TRIPOS>BOND
     1    19    20    2
     2    20    21   am
     3    21     1    1
     4     1     2   ar
     5     2     3   ar
     6     3     4   ar
     7     4     7    1
     8     7     8   ar
     9     8     9   ar
    10     9    10   ar
    11    10    11   ar
    12    11    12   ar
    13     4     5   ar
    14     5    13    1
    15    13    14   ar
    16    14    15   ar
    17    15    16   ar
    18    16    17   ar
    19    17    18   ar
    20     5     6   ar
    21    20    23    1
    22    23    24    1
    23    24    25    1
    24     6     1   ar
    25    25    23    1
    26    12     7   ar
    27    18    13   ar
    28    21    22    1
@<TRIPOS>MOLECULE
*****
 25 28 0 0 0
SMALL
GASTEIGER

@<TRIPOS>ATOM
      1 C           0.8959    1.7383   23.1846 C.ar    1  UNL1        0.1535
      2 C          -0.0054    2.7965   22.6209 C.ar    1  UNL1        0.1332
      3 N          -0.9368    3.5479   23.5252 N.ar    1  UNL1       -0.2394
      4 C          -0.9668    3.2412   24.9932 C.ar    1  UNL1        0.0991
      5 C          -0.0656    2.1829   25.5569 C.ar    1  UNL1        0.1004
      6 N           0.8658    1.4315   24.6526 N.ar    1  UNL1       -0.2274
      7 C          -1.8983    3.9927   25.8975 C.ar    1  UNL1        0.0222
      8 C          -1.4212    5.2232   26.6103 C.ar    1  UNL1        0.0222
      9 C          -2.3527    5.9747   27.5146 C.ar    1  UNL1        0.0989
     10 N          -3.7612    5.4957   27.7061 N.ar    1  UNL1       -0.2423
     11 C          -4.2382    4.2651   26.9932 C.ar    1  UNL1        0.0989
     12 C          -3.3068    3.5136   26.0889 C.ar    1  UNL1        0.0222
     13 C          -0.0957    1.8761   27.0248 C.ar    1  UNL1        0.0223
     14 C           0.7737    2.6502   27.9708 C.ar    1  UNL1        0.0222
     15 C           0.7436    2.3434   29.4388 C.ar    1  UNL1        0.0989
     16 N          -0.1558    1.2626   29.9608 N.ar    1  UNL1       -0.2423
     17 C          -1.0252    0.4885   29.0149 C.ar    1  UNL1        0.0989
     18 C          -0.9951    0.7953   27.5469 C.ar    1  UNL1        0.0222
     19 O          -0.1996    0.1535   20.8849 O.2     1  UNL1       -0.2747
     20 C           1.2796    0.1944   21.1305 C.2     1  UNL1        0.2267
     21 N           1.8273    0.9867   22.2803 N.am    1  UNL1       -0.2681
     22 H           2.7982    1.0136   22.4414 H       1  UNL1        0.1563
     23 C           2.2110   -0.5571   20.2261 C.3     1  UNL1        0.0769
     24 C           2.9481   -1.8159   19.8767 C.3     1  UNL1        0.0096
     25 C           3.0871   -0.6000   19.0094 C.3     1  UNL1        0.0096
@<TRIPOS>BOND
     1    19    20    2
     2    20    21   am
     3    21     1    1
     4     1     2   ar
     5     2     3   ar
     6     3     4   ar
     7     4     7    1
     8     7     8   ar
     9     8     9   ar
    10     9    10   ar
    11    10    11   ar
    12    11    12   ar
    13     4     5   ar
    14     5    13    1
    15    13    14   ar
    16    14    15   ar
    17    15    16   ar
    18    16    17   ar
    19    17    18   ar
    20     5     6   ar
    21    20    23    1
    22    23    24    1
    23    24    25    1
    24     6     1   ar
    25    25    23    1
    26    12     7   ar
    27    18    13   ar
    28    21    22    1
@<TRIPOS>MOLECULE
*****
 25 28 0 0 0
SMALL
GASTEIGER

@<TRIPOS>ATOM
      1 C           4.1340   -1.7057   24.7165 C.ar    1  UNL1        0.1535
      2 C           5.3547   -2.4995   24.3564 C.ar    1  UNL1        0.1332
      3 N           5.8372   -2.5304   22.9365 N.ar    1  UNL1       -0.2394
      4 C           5.0991   -1.7675   21.8767 C.ar    1  UNL1        0.0991
      5 C           3.8784   -0.9737   22.2368 C.ar    1  UNL1        0.1004
      6 N           3.3958   -0.9428   23.6567 N.ar    1  UNL1       -0.2274
      7 C           5.5817   -1.7984   20.4568 C.ar    1  UNL1        0.0222
      8 C           5.0369   -2.8186   19.5015 C.ar    1  UNL1        0.0222
      9 C           5.5196   -2.8495   18.0816 C.ar    1  UNL1        0.0989
     10 N           6.5469   -1.8603   17.6169 N.ar    1  UNL1       -0.2423
     11 C           7.0917   -0.8401   18.5722 C.ar    1  UNL1        0.0989
     12 C           6.6091   -0.8092   19.9921 C.ar    1  UNL1        0.0222
     13 C           3.1403   -0.2108   21.1771 C.ar    1  UNL1        0.0223
     14 C           3.5680    1.1819   20.8202 C.ar    1  UNL1        0.0222
     15 C           2.8298    1.9448   19.7604 C.ar    1  UNL1        0.0989
     16 N           1.6640    1.3150   19.0575 N.ar    1  UNL1       -0.2423
     17 C           1.2363   -0.0776   19.4144 C.ar    1  UNL1        0.0989
     18 C           1.9744   -0.8406   20.4742 C.ar    1  UNL1        0.0222
     19 O           4.6368    0.7124   26.4194 O.2     1  UNL1       -0.2747
     20 C           3.9028   -0.4657   26.9879 C.2     1  UNL1        0.2267
     21 N           3.6514   -1.6748   26.1365 N.am    1  UNL1       -0.2681
     22 H           3.1696   -2.4480   26.5096 H       1  UNL1        0.1563
     23 C           3.4202   -0.4348   28.4078 C.3     1  UNL1        0.0769
     24 C           2.2965   -0.4960   29.3995 C.3     1  UNL1        0.0096
     25 C           3.7080   -0.3200   29.8755 C.3     1  UNL1        0.0096
@<TRIPOS>BOND
     1    19    20    2
     2    20    21   am
     3    21     1    1
     4     1     2   ar
     5     2     3   ar
     6     3     4   ar
     7     4     7    1
     8     7     8   ar
     9     8     9   ar
    10     9    10   ar
    11    10    11   ar
    12    11    12   ar
    13     4     5   ar
    14     5    13    1
    15    13    14   ar
    16    14    15   ar
    17    15    16   ar
    18    16    17   ar
    19    17    18   ar
    20     5     6   ar
    21    20    23    1
    22    23    24    1
    23    24    25    1
    24     6     1   ar
    25    25    23    1
    26    12     7   ar
    27    18    13   ar
    28    21    22    1
@<TRIPOS>MOLECULE
*****
 25 28 0 0 0
SMALL
GASTEIGER

@<TRIPOS>ATOM
      1 C          -3.5043    3.9441   25.8889 C.ar    1  UNL1        0.1535
      2 C          -2.9031    4.1337   24.5278 C.ar    1  UNL1        0.1332
      3 N          -1.5321    3.6016   24.2328 N.ar    1  UNL1       -0.2394
      4 C          -0.7622    2.8799   25.2988 C.ar    1  UNL1        0.0991
      5 C          -1.3634    2.6903   26.6599 C.ar    1  UNL1        0.1004
      6 N          -2.7344    3.2224   26.9549 N.ar    1  UNL1       -0.2274
      7 C           0.6089    2.3478   25.0037 C.ar    1  UNL1        0.0222
      8 C           0.7753    0.9507   24.4840 C.ar    1  UNL1        0.0222
      9 C           2.1464    0.4186   24.1888 C.ar    1  UNL1        0.0989
     10 N           3.3510    1.2837   24.4135 N.ar    1  UNL1       -0.2423
     11 C           3.1845    2.6809   24.9332 C.ar    1  UNL1        0.0989
     12 C           1.8135    3.2130   25.2283 C.ar    1  UNL1        0.0222
     13 C          -0.5935    1.9686   27.7259 C.ar    1  UNL1        0.0223
     14 C           0.3387    2.7284   28.6223 C.ar    1  UNL1        0.0222
     15 C           1.1086    2.0067   29.6884 C.ar    1  UNL1        0.0989
     16 N           0.9462    0.5252   29.8580 N.ar    1  UNL1       -0.2423
     17 C           0.0140   -0.2346   28.9616 C.ar    1  UNL1        0.0989
     18 C          -0.7559    0.4871   27.8955 C.ar    1  UNL1        0.0222
     19 O          -3.8693    6.0843   27.9593 O.2     1  UNL1       -0.2747
     20 C          -5.0579    5.5463   27.2192 C.2     1  UNL1        0.2267
     21 N          -4.8754    4.4762   26.1840 N.am    1  UNL1       -0.2681
     22 H          -5.6555    4.1231   25.6982 H       1  UNL1        0.1563
     23 C          -6.4290    6.0784   27.5143 C.3     1  UNL1        0.0769
     24 C          -7.6425    6.8500   27.0879 C.3     1  UNL1        0.0096
     25 C          -7.5902    6.2283   28.4519 C.3     1  UNL1        0.0096
@<TRIPOS>BOND
     1    19    20    2
     2    20    21   am
     3    21     1    1
     4     1     2   ar
     5     2     3   ar
     6     3     4   ar
     7     4     7    1
     8     7     8   ar
     9     8     9   ar
    10     9    10   ar
    11    10    11   ar
    12    11    12   ar
    13     4     5   ar
    14     5    13    1
    15    13    14   ar
    16    14    15   ar
    17    15    16   ar
    18    16    17   ar
    19    17    18   ar
    20     5     6   ar
    21    20    23    1
    22    23    24    1
    23    24    25    1
    24     6     1   ar
    25    25    23    1
    26    12     7   ar
    27    18    13   ar
    28    21    22    1
@<TRIPOS>MOLECULE
*****
 25 28 0 0 0
SMALL
GASTEIGER

@<TRIPOS>ATOM
      1 C           6.5481   -4.3654   24.8732 C.ar    1  UNL1        0.1535
      2 C           7.3583   -5.1376   23.8745 C.ar    1  UNL1        0.1332
      3 N           7.3887   -4.7053   22.4385 N.ar    1  UNL1       -0.2394
      4 C           6.6089   -3.5008   22.0012 C.ar    1  UNL1        0.0991
      5 C           5.7988   -2.7287   22.9999 C.ar    1  UNL1        0.1004
      6 N           5.7683   -3.1610   24.4358 N.ar    1  UNL1       -0.2274
      7 C           6.6394   -3.0685   20.5651 C.ar    1  UNL1        0.0222
      8 C           5.5516   -3.5025   19.6280 C.ar    1  UNL1        0.0222
      9 C           5.5820   -3.0702   18.1919 C.ar    1  UNL1        0.0989
     10 N           6.7003   -2.2039   17.6930 N.ar    1  UNL1       -0.2423
     11 C           7.7882   -1.7699   18.6302 C.ar    1  UNL1        0.0989
     12 C           7.7577   -2.2022   20.0662 C.ar    1  UNL1        0.0222
     13 C           5.0190   -1.5242   22.5625 C.ar    1  UNL1        0.0223
     14 C           3.5742   -1.6630   22.1841 C.ar    1  UNL1        0.0222
     15 C           2.7944   -0.4585   21.7468 C.ar    1  UNL1        0.0989
     16 N           3.4595    0.8847   21.6878 N.ar    1  UNL1       -0.2423
     17 C           4.9043    1.0234   22.0663 C.ar    1  UNL1        0.0989
     18 C           5.6840   -0.1810   22.5036 C.ar    1  UNL1        0.0222
     19 O           8.1647   -2.8837   26.9204 O.2     1  UNL1       -0.2747
     20 C           7.3259   -4.0569   27.3328 C.2     1  UNL1        0.2267
     21 N           6.5177   -4.7977   26.3093 N.am    1  UNL1       -0.2681
     22 H           5.9672   -5.5678   26.5800 H       1  UNL1        0.1563
     23 C           7.2955   -4.4892   28.7689 C.3     1  UNL1        0.0769
     24 C           7.6471   -4.2455   30.2066 C.3     1  UNL1        0.0096
     25 C           6.8912   -5.4816   29.8185 C.3     1  UNL1        0.0096
@<TRIPOS>BOND
     1    19    20    2
     2    20    21   am
     3    21     1    1
     4     1     2   ar
     5     2     3   ar
     6     3     4   ar
     7     4     7    1
     8     7     8   ar
     9     8     9   ar
    10     9    10   ar
    11    10    11   ar
    12    11    12   ar
    13     4     5   ar
    14     5    13    1
    15    13    14   ar
    16    14    15   ar
    17    15    16   ar
    18    16    17   ar
    19    17    18   ar
    20     5     6   ar
    21    20    23    1
    22    23    24    1
    23    24    25    1
    24     6     1   ar
    25    25    23    1
    26    12     7   ar
    27    18    13   ar
    28    21    22    1
@<TRIPOS>MOLECULE
*****
 25 28 0 0 0
SMALL
GASTEIGER

@<TRIPOS>ATOM
      1 C           0.7104    0.6823   21.2019 C.ar    1  UNL1        0.1535
      2 C           1.0908    0.8085   22.6474 C.ar    1  UNL1        0.1332
      3 N           2.3530    0.1720   23.1490 N.ar    1  UNL1       -0.2394
      4 C           3.2349   -0.5905   22.2051 C.ar    1  UNL1        0.0991
      5 C           2.8545   -0.7167   20.7597 C.ar    1  UNL1        0.1004
      6 N           1.5922   -0.0802   20.2581 N.ar    1  UNL1       -0.2274
      7 C           4.4972   -1.2269   22.7068 C.ar    1  UNL1        0.0222
      8 C           4.4740   -2.6362   23.2199 C.ar    1  UNL1        0.0222
      9 C           5.7363   -3.2726   23.7216 C.ar    1  UNL1        0.0989
     10 N           7.0218   -2.4997   23.7100 N.ar    1  UNL1       -0.2423
     11 C           7.0450   -1.0904   23.1968 C.ar    1  UNL1        0.0989
     12 C           5.7827   -0.4540   22.6952 C.ar    1  UNL1        0.0222
     13 C           3.7363   -1.4792   19.8158 C.ar    1  UNL1        0.0223
     14 C           4.7976   -0.7616   19.0356 C.ar    1  UNL1        0.0222
     15 C           5.6794   -1.5241   18.0918 C.ar    1  UNL1        0.0989
     16 N           5.5000   -3.0043   17.9281 N.ar    1  UNL1       -0.2423
     17 C           4.4388   -3.7219   18.7083 C.ar    1  UNL1        0.0989
     18 C           3.5569   -2.9594   19.6521 C.ar    1  UNL1        0.0222
     19 O           0.6339    3.6298   20.6481 O.2     1  UNL1       -0.2747
     20 C          -0.5902    2.7924   20.4234 C.2     1  UNL1        0.2267
     21 N          -0.5520    1.3187   20.7003 N.am    1  UNL1       -0.2681
     22 H          -1.3554    0.7692   20.5528 H       1  UNL1        0.1563
     23 C          -1.8525    3.4288   19.9217 C.3     1  UNL1        0.0769
     24 C          -2.5754    4.2444   18.8911 C.3     1  UNL1        0.0096
     25 C          -3.3159    3.7156   20.0835 C.3     1  UNL1        0.0096
@<TRIPOS>BOND
     1    19    20    2
     2    20    21   am
     3    21     1    1
     4     1     2   ar
     5     2     3   ar
     6     3     4   ar
     7     4     7    1
     8     7     8   ar
     9     8     9   ar
    10     9    10   ar
    11    10    11   ar
    12    11    12   ar
    13     4     5   ar
    14     5    13    1
    15    13    14   ar
    16    14    15   ar
    17    15    16   ar
    18    16    17   ar
    19    17    18   ar
    20     5     6   ar
    21    20    23    1
    22    23    24    1
    23    24    25    1
    24     6     1   ar
    25    25    23    1
    26    12     7   ar
    27    18    13   ar
    28    21    22    1
@<TRIPOS>MOLECULE
*****
 25 28 0 0 0
SMALL
GASTEIGER

@<TRIPOS>ATOM
      1 C           0.6189    0.9468   20.2971 C.ar    1  UNL1        0.1535
      2 C           0.8763    0.9122   18.8198 C.ar    1  UNL1        0.1332
      3 N           2.1495    0.3183   18.2941 N.ar    1  UNL1       -0.2394
      4 C           3.1652   -0.2409   19.2457 C.ar    1  UNL1        0.0991
      5 C           2.9077   -0.2063   20.7230 C.ar    1  UNL1        0.1004
      6 N           1.6346    0.3875   21.2487 N.ar    1  UNL1       -0.2274
      7 C           4.4384   -0.8348   18.7200 C.ar    1  UNL1        0.0222
      8 C           4.5652   -2.3215   18.5665 C.ar    1  UNL1        0.0222
      9 C           5.8384   -2.9154   18.0408 C.ar    1  UNL1        0.0989
     10 N           6.9848   -2.0225   17.6685 N.ar    1  UNL1       -0.2423
     11 C           6.8579   -0.5357   17.8220 C.ar    1  UNL1        0.0989
     12 C           5.5848    0.0581   18.3477 C.ar    1  UNL1        0.0222
     13 C           3.9234   -0.7656   21.6747 C.ar    1  UNL1        0.0223
     14 C           3.8081   -2.1850   22.1458 C.ar    1  UNL1        0.0222
     15 C           4.8238   -2.7442   23.0974 C.ar    1  UNL1        0.0989
     16 N           5.9548   -1.8841   23.5779 N.ar    1  UNL1       -0.2423
     17 C           6.0701   -0.4647   23.1068 C.ar    1  UNL1        0.0989
     18 C           5.0544    0.0945   22.1552 C.ar    1  UNL1        0.0222
     19 O           0.4819    3.8742   20.9384 O.2     1  UNL1       -0.2747
     20 C          -0.7228    3.0043   21.1435 C.2     1  UNL1        0.2267
     21 N          -0.6543    1.5406   20.8228 N.am    1  UNL1       -0.2681
     22 H          -1.4450    0.9697   20.9574 H       1  UNL1        0.1563
     23 C          -1.9960    3.5982   21.6692 C.3     1  UNL1        0.0769
     24 C          -2.7073    4.5017   22.6323 C.3     1  UNL1        0.0096
     25 C          -3.4899    3.7233   21.6167 C.3     1  UNL1        0.0096
@<TRIPOS>BOND
     1    19    20    2
     2    20    21   am
     3    21     1    1
     4     1     2   ar
     5     2     3   ar
     6     3     4   ar
     7     4     7    1
     8     7     8   ar
     9     8     9   ar
    10     9    10   ar
    11    10    11   ar
    12    11    12   ar
    13     4     5   ar
    14     5    13    1
    15    13    14   ar
    16    14    15   ar
    17    15    16   ar
    18    16    17   ar
    19    17    18   ar
    20     5     6   ar
    21    20    23    1
    22    23    24    1
    23    24    25    1
    24     6     1   ar
    25    25    23    1
    26    12     7   ar
    27    18    13   ar
    28    21    22    1
@<TRIPOS>MOLECULE
*****
 25 28 0 0 0
SMALL
GASTEIGER

@<TRIPOS>ATOM
      1 C           5.8984   -2.9690   32.5517 C.ar    1  UNL1        0.1535
      2 C           4.5024   -2.9798   33.1003 C.ar    1  UNL1        0.1332
      3 N           4.0528   -1.8903   34.0281 N.ar    1  UNL1       -0.2394
      4 C           4.9992   -0.7901   34.4072 C.ar    1  UNL1        0.0991
      5 C           6.3952   -0.7793   33.8586 C.ar    1  UNL1        0.1004
      6 N           6.8448   -1.8688   32.9308 N.ar    1  UNL1       -0.2274
      7 C           4.5496    0.2994   35.3351 C.ar    1  UNL1        0.0222
      8 C           4.7743    0.1669   36.8122 C.ar    1  UNL1        0.0222
      9 C           4.3247    1.2564   37.7401 C.ar    1  UNL1        0.0989
     10 N           3.6502    2.4784   37.1907 N.ar    1  UNL1       -0.2423
     11 C           3.4255    2.6110   35.7135 C.ar    1  UNL1        0.0989
     12 C           3.8751    1.5215   34.7858 C.ar    1  UNL1        0.0222
     13 C           7.3416    0.3210   34.2378 C.ar    1  UNL1        0.0223
     14 C           7.3866    1.5834   33.4290 C.ar    1  UNL1        0.0222
     15 C           8.3330    2.6837   33.8082 C.ar    1  UNL1        0.0989
     16 N           9.2344    2.5215   34.9961 N.ar    1  UNL1       -0.2423
     17 C           9.1894    1.2590   35.8048 C.ar    1  UNL1        0.0989
     18 C           8.2430    0.1588   35.4257 C.ar    1  UNL1        0.0222
     19 O           6.1475   -2.4276   29.6114 O.2     1  UNL1       -0.2747
     20 C           6.4726   -3.7878   30.1537 C.2     1  UNL1        0.2267
     21 N           6.3481   -4.0586   31.6238 N.am    1  UNL1       -0.2681
     22 H           6.5614   -4.9513   31.9797 H       1  UNL1        0.1563
     23 C           6.9222   -4.8773   29.2259 C.3     1  UNL1        0.0769
     24 C           6.9142   -5.5115   27.8666 C.3     1  UNL1        0.0096
     25 C           7.7091   -6.1301   28.9781 C.3     1  UNL1        0.0096
@<TRIPOS>BOND
     1    19    20    2
     2    20    21   am
     3    21     1    1
     4     1     2   ar
     5     2     3   ar
     6     3     4   ar
     7     4     7    1
     8     7     8   ar
     9     8     9   ar
    10     9    10   ar
    11    10    11   ar
    12    11    12   ar
    13     4     5   ar
    14     5    13    1
    15    13    14   ar
    16    14    15   ar
    17    15    16   ar
    18    16    17   ar
    19    17    18   ar
    20     5     6   ar
    21    20    23    1
    22    23    24    1
    23    24    25    1
    24     6     1   ar
    25    25    23    1
    26    12     7   ar
    27    18    13   ar
    28    21    22    1
