@<TRIPOS>MOLECULE
*****
 15 15 0 0 0
SMALL
GASTEIGER

@<TRIPOS>ATOM
      1 C          -9.4388  -17.8086   23.9088 C.ar    1  UNL1        0.0369
      2 C          -8.2132  -17.7401   23.0467 C.ar    1  UNL1        0.0430
      3 C          -8.3108  -18.0362   21.5795 C.ar    1  UNL1        0.1726
      4 C          -9.6339  -18.4008   20.9743 C.ar    1  UNL1        0.1754
      5 C         -10.8595  -18.4693   21.8363 C.ar    1  UNL1        0.0769
      6 C         -10.7620  -18.1732   23.3036 C.ar    1  UNL1        0.1419
      7 C          -8.3720  -16.0952   27.3258 C.3     1  UNL1        0.0307
      8 C          -8.4696  -16.3913   25.8585 C.2     1  UNL1       -0.0257
      9 C          -9.3413  -17.5125   25.3760 C.2     1  UNL1       -0.0015
     10 O          -7.0851  -17.9677   20.7174 O.3     1  UNL1       -0.4684
     11 C          -6.1532  -19.1408   20.6442 C.3     1  UNL1        0.2526
     12 O          -9.7314  -18.6969   19.5070 O.3     1  UNL1       -0.4683
     13 C          -9.3224  -20.0421   18.9846 C.3     1  UNL1        0.2526
     14 O         -11.9876  -18.2418   24.1656 O.3     1  UNL1       -0.4713
     15 C         -13.3263  -17.8755   23.5965 C.3     1  UNL1        0.2525
@<TRIPOS>BOND
     1     7     8    1
     2     8     9    2
     3     9     1    1
     4     1     2   ar
     5     2     3   ar
     6     3    10    1
     7    10    11    1
     8     3     4   ar
     9     4    12    1
    10    12    13    1
    11     4     5   ar
    12     5     6   ar
    13     6    14    1
    14    14    15    1
    15     6     1   ar
@<TRIPOS>MOLECULE
*****
 15 15 0 0 0
SMALL
GASTEIGER

@<TRIPOS>ATOM
      1 C         -10.3249  -17.3439   22.9132 C.ar    1  UNL1        0.0369
      2 C          -9.4798  -16.3445   23.6459 C.ar    1  UNL1        0.0430
      3 C          -7.9845  -16.4103   23.5463 C.ar    1  UNL1        0.1726
      4 C          -7.3344  -17.4754   22.7140 C.ar    1  UNL1        0.1754
      5 C          -8.1795  -18.4748   21.9813 C.ar    1  UNL1        0.0769
      6 C          -9.6748  -18.4091   22.0809 C.ar    1  UNL1        0.1419
      7 C         -14.0433  -18.1081   24.0704 C.3     1  UNL1        0.0307
      8 C         -12.5481  -18.1738   23.9708 C.2     1  UNL1       -0.0257
      9 C         -11.8201  -17.2782   23.0128 C.2     1  UNL1       -0.0015
     10 O          -7.1394  -15.4108   24.2790 O.3     1  UNL1       -0.4684
     11 C          -6.9211  -15.5528   25.7562 C.3     1  UNL1        0.2526
     12 O          -5.8392  -17.5412   22.6144 O.3     1  UNL1       -0.4683
     13 C          -5.1669  -18.8361   22.2664 C.3     1  UNL1        0.2526
     14 O         -10.5199  -19.4086   21.3482 O.3     1  UNL1       -0.4713
     15 C         -10.4393  -19.5067   19.8536 C.3     1  UNL1        0.2525
@<TRIPOS>BOND
     1     7     8    1
     2     8     9    2
     3     9     1    1
     4     1     2   ar
     5     2     3   ar
     6     3    10    1
     7    10    11    1
     8     3     4   ar
     9     4    12    1
    10    12    13    1
    11     4     5   ar
    12     5     6   ar
    13     6    14    1
    14    14    15    1
    15     6     1   ar
@<TRIPOS>MOLECULE
*****
 15 15 0 0 0
SMALL
GASTEIGER

@<TRIPOS>ATOM
      1 C          -8.8301  -16.6360   23.6587 C.ar    1  UNL1        0.0369
      2 C         -10.3249  -16.6878   23.5454 C.ar    1  UNL1        0.0430
      3 C         -10.9667  -17.4882   22.4511 C.ar    1  UNL1        0.1726
      4 C         -10.1138  -18.2368   21.4702 C.ar    1  UNL1        0.1754
      5 C          -8.6191  -18.1850   21.5836 C.ar    1  UNL1        0.0769
      6 C          -7.9772  -17.3846   22.6779 C.ar    1  UNL1        0.1419
      7 C          -7.7867  -15.3990   27.2824 C.3     1  UNL1        0.0307
      8 C          -8.4285  -16.1994   26.1882 C.2     1  UNL1       -0.0257
      9 C          -8.1882  -15.8356   24.7530 C.2     1  UNL1       -0.0015
     10 O         -12.4616  -17.5400   22.3378 O.3     1  UNL1       -0.4684
     11 C         -13.2915  -17.9152   23.5296 C.3     1  UNL1        0.2526
     12 O         -10.7557  -19.0372   20.3760 O.3     1  UNL1       -0.4683
     13 C          -9.9039  -19.7168   19.3453 C.3     1  UNL1        0.2526
     14 O          -6.4823  -17.3328   22.7912 O.3     1  UNL1       -0.4713
     15 C          -5.6564  -18.5091   22.3621 C.3     1  UNL1        0.2525
@<TRIPOS>BOND
     1     7     8    1
     2     8     9    2
     3     9     1    1
     4     1     2   ar
     5     2     3   ar
     6     3    10    1
     7    10    11    1
     8     3     4   ar
     9     4    12    1
    10    12    13    1
    11     4     5   ar
    12     5     6   ar
    13     6    14    1
    14    14    15    1
    15     6     1   ar
@<TRIPOS>MOLECULE
*****
 15 15 0 0 0
SMALL
GASTEIGER

@<TRIPOS>ATOM
      1 C         -10.4851  -18.7490   22.6516 C.ar    1  UNL1        0.0369
      2 C         -10.4124  -19.0916   21.1931 C.ar    1  UNL1        0.0430
      3 C          -9.1254  -18.9120   20.4437 C.ar    1  UNL1        0.1726
      4 C          -7.9112  -18.3899   21.1530 C.ar    1  UNL1        0.1754
      5 C          -7.9840  -18.0474   22.6115 C.ar    1  UNL1        0.0769
      6 C          -9.2709  -18.2269   23.3608 C.ar    1  UNL1        0.1419
      7 C         -14.0933  -18.0218   24.1357 C.3     1  UNL1        0.0307
      8 C         -12.8063  -17.8422   23.3864 C.2     1  UNL1       -0.0257
      9 C         -11.7721  -18.9286   23.4009 C.2     1  UNL1       -0.0015
     10 O          -9.0527  -19.2546   18.9852 O.3     1  UNL1       -0.4684
     11 C          -8.9194  -20.6859   18.5567 C.3     1  UNL1        0.2526
     12 O          -6.6242  -18.2104   20.4037 O.3     1  UNL1       -0.4683
     13 C          -5.6080  -19.3135   20.3833 C.3     1  UNL1        0.2526
     14 O          -9.3436  -17.8843   24.8194 O.3     1  UNL1       -0.4713
     15 C          -8.8252  -16.5637   25.3064 C.3     1  UNL1        0.2525
@<TRIPOS>BOND
     1     7     8    1
     2     8     9    2
     3     9     1    1
     4     1     2   ar
     5     2     3   ar
     6     3    10    1
     7    10    11    1
     8     3     4   ar
     9     4    12    1
    10    12    13    1
    11     4     5   ar
    12     5     6   ar
    13     6    14    1
    14    14    15    1
    15     6     1   ar
@<TRIPOS>MOLECULE
*****
 15 15 0 0 0
SMALL
GASTEIGER

@<TRIPOS>ATOM
      1 C          -6.6790  -18.7401   22.2635 C.ar    1  UNL1        0.0369
      2 C          -7.9554  -19.4971   22.0453 C.ar    1  UNL1        0.0430
      3 C          -9.2630  -18.9035   22.4787 C.ar    1  UNL1        0.1726
      4 C          -9.2942  -17.5528   23.1303 C.ar    1  UNL1        0.1754
      5 C          -8.0178  -16.7958   23.3485 C.ar    1  UNL1        0.0769
      6 C          -6.7102  -17.3894   22.9151 C.ar    1  UNL1        0.1419
      7 C          -3.9186  -20.4945   20.0157 C.3     1  UNL1        0.0307
      8 C          -5.2262  -19.9008   20.4491 C.2     1  UNL1       -0.0257
      9 C          -5.3714  -19.3338   21.8302 C.2     1  UNL1       -0.0015
     10 O         -10.5394  -19.6606   22.2604 O.3     1  UNL1       -0.4684
     11 C         -11.1115  -19.7839   20.8793 C.3     1  UNL1        0.2526
     12 O         -10.6017  -16.9591   23.5636 O.3     1  UNL1       -0.4683
     13 C         -11.4803  -16.2687   22.5630 C.3     1  UNL1        0.2526
     14 O          -5.4337  -16.6323   23.1334 O.3     1  UNL1       -0.4713
     15 C          -5.4063  -15.4636   24.0732 C.3     1  UNL1        0.2525
@<TRIPOS>BOND
     1     7     8    1
     2     8     9    2
     3     9     1    1
     4     1     2   ar
     5     2     3   ar
     6     3    10    1
     7    10    11    1
     8     3     4   ar
     9     4    12    1
    10    12    13    1
    11     4     5   ar
    12     5     6   ar
    13     6    14    1
    14    14    15    1
    15     6     1   ar
@<TRIPOS>MOLECULE
*****
 15 15 0 0 0
SMALL
GASTEIGER

@<TRIPOS>ATOM
      1 C          -9.0841  -18.2698   22.3211 C.ar    1  UNL1        0.0369
      2 C          -7.8007  -17.4993   22.2256 C.ar    1  UNL1        0.0430
      3 C          -7.4446  -16.5009   23.2869 C.ar    1  UNL1        0.1726
      4 C          -8.3718  -16.2730   24.4437 C.ar    1  UNL1        0.1754
      5 C          -9.6551  -17.0436   24.5393 C.ar    1  UNL1        0.0769
      6 C         -10.0113  -18.0420   23.4780 C.ar    1  UNL1        0.1419
      7 C          -9.1383  -20.1973   18.8524 C.3     1  UNL1        0.0307
      8 C          -8.7821  -19.1989   19.9137 C.2     1  UNL1       -0.0257
      9 C          -9.4403  -19.2682   21.2598 C.2     1  UNL1       -0.0015
     10 O          -6.1611  -15.7303   23.1913 O.3     1  UNL1       -0.4684
     11 C          -4.9586  -16.1768   23.9689 C.3     1  UNL1        0.2526
     12 O          -8.0156  -15.2746   25.5050 O.3     1  UNL1       -0.4683
     13 C          -8.1266  -15.6480   26.9535 C.3     1  UNL1        0.2526
     14 O         -11.2948  -18.8125   23.5735 O.3     1  UNL1       -0.4713
     15 C         -12.5957  -18.1479   23.2335 C.3     1  UNL1        0.2525
@<TRIPOS>BOND
     1     7     8    1
     2     8     9    2
     3     9     1    1
     4     1     2   ar
     5     2     3   ar
     6     3    10    1
     7    10    11    1
     8     3     4   ar
     9     4    12    1
    10    12    13    1
    11     4     5   ar
    12     5     6   ar
    13     6    14    1
    14    14    15    1
    15     6     1   ar
@<TRIPOS>MOLECULE
*****
 15 15 0 0 0
SMALL
GASTEIGER

@<TRIPOS>ATOM
      1 C          -9.0295  -17.1720   23.7376 C.ar    1  UNL1        0.0369
      2 C          -8.3749  -17.9668   22.6468 C.ar    1  UNL1        0.0430
      3 C          -6.9046  -17.8181   22.3895 C.ar    1  UNL1        0.1726
      4 C          -6.0889  -16.8748   23.2230 C.ar    1  UNL1        0.1754
      5 C          -6.7435  -16.0801   24.3137 C.ar    1  UNL1        0.0769
      6 C          -8.2138  -16.2287   24.5711 C.ar    1  UNL1        0.1419
      7 C         -12.9127  -17.6948   23.1075 C.3     1  UNL1        0.0307
      8 C         -11.4425  -17.5461   22.8502 C.2     1  UNL1       -0.0257
      9 C         -10.4997  -17.3207   23.9949 C.2     1  UNL1       -0.0015
     10 O          -6.2500  -18.6129   21.2986 O.3     1  UNL1       -0.4684
     11 C          -5.8896  -20.0503   21.5309 C.3     1  UNL1        0.2526
     12 O          -4.6187  -16.7262   22.9656 O.3     1  UNL1       -0.4683
     13 C          -3.6594  -17.7594   23.4777 C.3     1  UNL1        0.2526
     14 O          -8.8684  -15.4339   25.6619 O.3     1  UNL1       -0.4713
     15 C          -8.2553  -15.3915   27.0302 C.3     1  UNL1        0.2525
@<TRIPOS>BOND
     1     7     8    1
     2     8     9    2
     3     9     1    1
     4     1     2   ar
     5     2     3   ar
     6     3    10    1
     7    10    11    1
     8     3     4   ar
     9     4    12    1
    10    12    13    1
    11     4     5   ar
    12     5     6   ar
    13     6    14    1
    14    14    15    1
    15     6     1   ar
@<TRIPOS>MOLECULE
*****
 15 15 0 0 0
SMALL
GASTEIGER

@<TRIPOS>ATOM
      1 C          -8.9817  -17.7096   22.9151 C.ar    1  UNL1        0.0369
      2 C          -7.7341  -16.9490   23.2544 C.ar    1  UNL1        0.0430
      3 C          -6.3922  -17.5017   22.8752 C.ar    1  UNL1        0.1726
      4 C          -6.2978  -18.8150   22.1566 C.ar    1  UNL1        0.1754
      5 C          -7.5454  -19.5756   21.8173 C.ar    1  UNL1        0.0769
      6 C          -8.8873  -19.0229   22.1965 C.ar    1  UNL1        0.1419
      7 C         -12.4815  -15.8557   22.6617 C.3     1  UNL1        0.0307
      8 C         -11.1396  -16.4084   22.2825 C.2     1  UNL1       -0.0257
      9 C         -10.3236  -17.1569   23.2943 C.2     1  UNL1       -0.0015
     10 O          -5.1447  -16.7411   23.2145 O.3     1  UNL1       -0.4684
     11 C          -5.2381  -15.4365   23.9490 C.3     1  UNL1        0.2526
     12 O          -4.9559  -19.3677   21.7774 O.3     1  UNL1       -0.4683
     13 C          -4.8012  -20.1602   20.5133 C.3     1  UNL1        0.2526
     14 O         -10.1348  -19.7835   21.8572 O.3     1  UNL1       -0.4713
     15 C         -10.7127  -19.6983   20.4756 C.3     1  UNL1        0.2525
@<TRIPOS>BOND
     1     7     8    1
     2     8     9    2
     3     9     1    1
     4     1     2   ar
     5     2     3   ar
     6     3    10    1
     7    10    11    1
     8     3     4   ar
     9     4    12    1
    10    12    13    1
    11     4     5   ar
    12     5     6   ar
    13     6    14    1
    14    14    15    1
    15     6     1   ar
@<TRIPOS>MOLECULE
*****
 15 15 0 0 0
SMALL
GASTEIGER

@<TRIPOS>ATOM
      1 C          -7.7329  -19.4166   21.2705 C.ar    1  UNL1        0.0369
      2 C          -7.9815  -19.0211   22.6959 C.ar    1  UNL1        0.0430
      3 C          -9.2278  -18.2697   23.0593 C.ar    1  UNL1        0.1726
      4 C         -10.2255  -17.9137   21.9974 C.ar    1  UNL1        0.1754
      5 C          -9.9769  -18.3092   20.5720 C.ar    1  UNL1        0.0769
      6 C          -8.7307  -19.0606   20.2086 C.ar    1  UNL1        0.1419
      7 C          -4.0663  -20.1886   19.9630 C.3     1  UNL1        0.0307
      8 C          -5.3126  -19.4372   20.3264 C.2     1  UNL1       -0.0257
      9 C          -6.4867  -20.1681   20.9071 C.2     1  UNL1       -0.0015
     10 O          -9.4764  -17.8742   24.4848 O.3     1  UNL1       -0.4684
     11 C          -8.8898  -16.6031   25.0236 C.3     1  UNL1        0.2526
     12 O         -11.4718  -17.1622   22.3608 O.3     1  UNL1       -0.4683
     13 C         -12.6581  -17.8980   22.9095 C.3     1  UNL1        0.2526
     14 O          -8.4821  -19.4561   18.7831 O.3     1  UNL1       -0.4713
     15 C          -9.0480  -20.7394   18.2512 C.3     1  UNL1        0.2525
@<TRIPOS>BOND
     1     7     8    1
     2     8     9    2
     3     9     1    1
     4     1     2   ar
     5     2     3   ar
     6     3    10    1
     7    10    11    1
     8     3     4   ar
     9     4    12    1
    10    12    13    1
    11     4     5   ar
    12     5     6   ar
    13     6    14    1
    14    14    15    1
    15     6     1   ar
