@<TRIPOS>MOLECULE
*****
 34 37 0 0 0
SMALL
GASTEIGER

@<TRIPOS>ATOM
      1 C         -10.7605  -18.1336   24.3304 C.3     1  UNL1        0.1153
      2 N          -9.4360  -18.1045   23.6269 N.am    1  UNL1       -0.2714
      3 C          -8.8542  -19.3701   23.0706 C.2     1  UNL1        0.2665
      4 O          -9.5969  -20.6650   23.2177 O.2     1  UNL1       -0.2710
      5 C          -7.5297  -19.3409   22.3671 C.3     1  UNL1        0.2456
      6 C          -6.1817  -19.3503   23.0249 C.3     1  UNL1        0.0826
      7 C          -5.1395  -19.3124   21.9467 C.ar    1  UNL1        0.0172
      8 C          -3.6405  -19.3035   21.9996 C.ar    1  UNL1        0.0147
      9 C          -2.8454  -19.2618   20.7283 C.ar    1  UNL1        0.0643
     10 C          -3.5494  -19.2290   19.4042 C.ar    1  UNL1        0.0189
     11 C          -5.0484  -19.2379   19.3513 C.ar    1  UNL1        0.0379
     12 C          -5.8435  -19.2796   20.6225 C.ar    1  UNL1        0.1353
     13 O          -7.3207  -19.2972   20.8824 O.3     1  UNL1       -0.4699
     14 N          -1.3464  -19.2529   20.7812 N.pl3   1  UNL1       -0.2187
     15 H          -0.8612  -20.0376   21.1249 H       1  UNL1        0.1734
     16 S          -0.5864  -18.0485   20.3102 S.O2    1  UNL1        0.0558
     17 C           0.1735  -16.8440   19.8392 C.3     1  UNL1        0.1996
     18 O           0.3957  -18.9413   19.6114 O.2     1  UNL1       -0.1544
     19 O          -1.5685  -17.1556   21.0090 O.2     1  UNL1       -0.1544
     20 C          -8.6933  -16.8095   23.4798 C.3     1  UNL1        0.1139
     21 C          -7.9265  -16.2487   24.6406 C.ar    1  UNL1       -0.0029
     22 C          -8.5956  -16.0859   25.9732 C.ar    1  UNL1       -0.0026
     23 C          -7.8288  -15.5251   27.1340 C.ar    1  UNL1       -0.0003
     24 C          -6.3929  -15.1270   26.9622 C.ar    1  UNL1       -0.0000
     25 C          -5.7237  -15.2898   25.6297 C.ar    1  UNL1       -0.0003
     26 C          -6.4905  -15.8506   24.4688 C.ar    1  UNL1       -0.0026
     27 C          -8.7174  -16.0754   22.1719 C.3     1  UNL1        0.0968
     28 N          -9.8281  -16.3213   21.1943 N.3     1  UNL1       -0.2689
     29 C         -10.2527  -17.6570   20.6598 C.3     1  UNL1        0.0748
     30 C         -11.3962  -17.4359   19.7147 C.3     1  UNL1        0.0480
     31 C         -11.6784  -15.9636   19.6650 C.3     1  UNL1        0.1278
     32 O         -12.7429  -15.2970   18.8448 O.3     1  UNL1       -0.3830
     33 C         -10.7093  -15.2747   20.5794 C.3     1  UNL1        0.1017
     34 H         -12.7135  -14.3390   18.9938 H       1  UNL1        0.2104
@<TRIPOS>BOND
     1     1     2    1
     2     2     3   am
     3     3     4    2
     4     5     3    1
     5     5     6    1
     6     6     7    1
     7     7     8   ar
     8     8     9   ar
     9     9    14    1
    10    14    16    1
    11    16    17    1
    12    16    18    2
    13    16    19    2
    14     9    10   ar
    15    10    11   ar
    16    11    12   ar
    17    12    13    1
    18     2    20    1
    19    20    27    1
    20    27    28    1
    21    28    29    1
    22    29    30    1
    23    30    31    1
    24    31    32    1
    25    31    33    1
    26    20    21    1
    27    21    22   ar
    28    22    23   ar
    29    23    24   ar
    30    24    25   ar
    31    25    26   ar
    32    13     5    1
    33    33    28    1
    34    26    21   ar
    35    12     7   ar
    36    14    15    1
    37    32    34    1
@<TRIPOS>MOLECULE
*****
 34 37 0 0 0
SMALL
GASTEIGER

@<TRIPOS>ATOM
      1 C          -8.7127  -15.1122   25.6315 C.3     1  UNL1        0.1153
      2 N          -7.8929  -15.9133   24.6639 N.am    1  UNL1       -0.2714
      3 C          -6.4022  -15.9774   24.8174 C.2     1  UNL1        0.2665
      4 O          -5.7313  -15.2404   25.9383 O.2     1  UNL1       -0.2710
      5 C          -5.5824  -16.7786   23.8498 C.3     1  UNL1        0.2456
      6 C          -4.1690  -16.4882   23.4401 C.3     1  UNL1        0.0826
      7 C          -3.7451  -17.5409   22.4592 C.ar    1  UNL1        0.0172
      8 C          -2.4594  -17.7642   21.7195 C.ar    1  UNL1        0.0147
      9 C          -2.3252  -18.9285   20.7834 C.ar    1  UNL1        0.0643
     10 C          -3.4767  -19.8695   20.5870 C.ar    1  UNL1        0.0189
     11 C          -4.7624  -19.6462   21.3266 C.ar    1  UNL1        0.0379
     12 C          -4.8966  -18.4819   22.2627 C.ar    1  UNL1        0.1353
     13 O          -6.0321  -18.0108   23.1222 O.3     1  UNL1       -0.4699
     14 N          -1.0395  -19.1518   20.0437 N.pl3   1  UNL1       -0.2187
     15 H          -0.7636  -20.0651   19.8007 H       1  UNL1        0.1734
     16 S          -0.1741  -17.9836   19.6744 S.O2    1  UNL1        0.0558
     17 C           0.6914  -16.8154   19.3051 C.3     1  UNL1        0.1996
     18 O           0.7421  -18.3004   20.8191 O.2     1  UNL1       -0.1544
     19 O          -1.0902  -17.6668   18.5297 O.2     1  UNL1       -0.1544
     20 C          -8.5639  -16.6504   23.5429 C.3     1  UNL1        0.1139
     21 C          -9.2732  -17.9440   23.8144 C.ar    1  UNL1       -0.0029
     22 C          -8.5784  -19.2484   23.5580 C.ar    1  UNL1       -0.0026
     23 C          -9.2876  -20.5420   23.8295 C.ar    1  UNL1       -0.0003
     24 C         -10.6916  -20.5311   24.3573 C.ar    1  UNL1       -0.0000
     25 C         -11.3864  -19.2267   24.6137 C.ar    1  UNL1       -0.0003
     26 C         -10.6772  -17.9331   24.3423 C.ar    1  UNL1       -0.0026
     27 C          -8.5257  -16.0939   22.1505 C.3     1  UNL1        0.0968
     28 N          -9.6648  -16.3501   21.2089 N.3     1  UNL1       -0.2689
     29 C         -10.1208  -17.6934   20.7216 C.3     1  UNL1        0.0748
     30 C         -11.2857  -17.4815   19.8007 C.3     1  UNL1        0.0480
     31 C         -11.5497  -16.0072   19.7189 C.3     1  UNL1        0.1278
     32 O         -12.6264  -15.3479   18.9090 O.3     1  UNL1       -0.3830
     33 C         -10.5479  -15.3079   20.5892 C.3     1  UNL1        0.1017
     34 H         -12.5805  -14.3867   19.0315 H       1  UNL1        0.2104
@<TRIPOS>BOND
     1     1     2    1
     2     2     3   am
     3     3     4    2
     4     5     3    1
     5     5     6    1
     6     6     7    1
     7     7     8   ar
     8     8     9   ar
     9     9    14    1
    10    14    16    1
    11    16    17    1
    12    16    18    2
    13    16    19    2
    14     9    10   ar
    15    10    11   ar
    16    11    12   ar
    17    12    13    1
    18     2    20    1
    19    20    27    1
    20    27    28    1
    21    28    29    1
    22    29    30    1
    23    30    31    1
    24    31    32    1
    25    31    33    1
    26    20    21    1
    27    21    22   ar
    28    22    23   ar
    29    23    24   ar
    30    24    25   ar
    31    25    26   ar
    32    13     5    1
    33    33    28    1
    34    26    21   ar
    35    12     7   ar
    36    14    15    1
    37    32    34    1
@<TRIPOS>MOLECULE
*****
 34 37 0 0 0
SMALL
GASTEIGER

@<TRIPOS>ATOM
      1 C         -10.6147   -7.1900   18.9999 C.3     1  UNL1        0.1153
      2 N         -11.3511   -5.9377   18.6266 N.am    1  UNL1       -0.2714
      3 C         -10.6606   -4.6087   18.7091 C.2     1  UNL1        0.2665
      4 O          -9.2336   -4.5320   19.1650 O.2     1  UNL1       -0.2710
      5 C         -11.3970   -3.3563   18.3358 C.3     1  UNL1        0.2456
      6 C         -11.9191   -2.3230   19.2895 C.3     1  UNL1        0.0826
      7 C         -12.5854   -1.2454   18.4863 C.ar    1  UNL1        0.0172
      8 C         -13.2783    0.0228   18.8881 C.ar    1  UNL1        0.0147
      9 C         -13.8608    0.9236   17.8397 C.ar    1  UNL1        0.0643
     10 C         -13.7505    0.5562   16.3896 C.ar    1  UNL1        0.0189
     11 C         -13.0576   -0.7121   15.9879 C.ar    1  UNL1        0.0379
     12 C         -12.4750   -1.6129   17.0362 C.ar    1  UNL1        0.1353
     13 O         -11.7406   -2.9174   16.9432 O.3     1  UNL1       -0.4699
     14 N         -14.5538    2.1919   18.2414 N.pl3   1  UNL1       -0.2187
     15 H         -14.2884    3.0480   17.8342 H       1  UNL1        0.1734
     16 S         -15.6509    2.1557   19.2636 S.O2    1  UNL1        0.0558
     17 C         -16.7481    2.1195   20.2858 C.3     1  UNL1        0.1996
     18 O         -16.3910    1.1490   18.4336 O.2     1  UNL1       -0.1544
     19 O         -14.9109    3.1624   20.0936 O.2     1  UNL1       -0.1544
     20 C         -12.7782   -6.0144   18.1707 C.3     1  UNL1        0.1139
     21 C         -13.8060   -5.0983   18.7660 C.ar    1  UNL1       -0.0029
     22 C         -13.9164   -4.9621   20.2558 C.ar    1  UNL1       -0.0026
     23 C         -14.9442   -4.0460   20.8510 C.ar    1  UNL1       -0.0003
     24 C         -15.8616   -3.2660   19.9566 C.ar    1  UNL1       -0.0000
     25 C         -15.7512   -3.4021   18.4669 C.ar    1  UNL1       -0.0003
     26 C         -14.7233   -4.3183   17.8715 C.ar    1  UNL1       -0.0026
     27 C         -13.1773   -7.0072   17.1196 C.3     1  UNL1        0.0968
     28 N         -14.3863   -7.8711   17.3244 N.3     1  UNL1       -0.2689
     29 C         -15.6863   -7.7581   16.5847 C.3     1  UNL1        0.0748
     30 C         -16.6110   -8.8169   17.1080 C.3     1  UNL1        0.0480
     31 C         -15.8825   -9.5842   18.1712 C.3     1  UNL1        0.1278
     32 O         -16.4324  -10.7343   18.9619 O.3     1  UNL1       -0.3830
     33 C         -14.5076   -8.9998   18.3050 C.3     1  UNL1        0.1017
     34 H         -15.7583  -11.0511   19.5834 H       1  UNL1        0.2104
@<TRIPOS>BOND
     1     1     2    1
     2     2     3   am
     3     3     4    2
     4     5     3    1
     5     5     6    1
     6     6     7    1
     7     7     8   ar
     8     8     9   ar
     9     9    14    1
    10    14    16    1
    11    16    17    1
    12    16    18    2
    13    16    19    2
    14     9    10   ar
    15    10    11   ar
    16    11    12   ar
    17    12    13    1
    18     2    20    1
    19    20    27    1
    20    27    28    1
    21    28    29    1
    22    29    30    1
    23    30    31    1
    24    31    32    1
    25    31    33    1
    26    20    21    1
    27    21    22   ar
    28    22    23   ar
    29    23    24   ar
    30    24    25   ar
    31    25    26   ar
    32    13     5    1
    33    33    28    1
    34    26    21   ar
    35    12     7   ar
    36    14    15    1
    37    32    34    1
@<TRIPOS>MOLECULE
*****
 34 37 0 0 0
SMALL
GASTEIGER

@<TRIPOS>ATOM
      1 C           7.3187   -3.9077   20.9920 C.3     1  UNL1        0.1153
      2 N           6.2912   -2.8271   21.1552 N.am    1  UNL1       -0.2714
      3 C           4.8370   -3.1828   21.2485 C.2     1  UNL1        0.2665
      4 O           4.4103   -4.6191   21.1786 O.2     1  UNL1       -0.2710
      5 C           3.8095   -2.1023   21.4118 C.3     1  UNL1        0.2456
      6 C           2.8136   -1.6690   20.3772 C.3     1  UNL1        0.0826
      7 C           1.9861   -0.5642   20.9643 C.ar    1  UNL1        0.0172
      8 C           0.8541    0.2468   20.4069 C.ar    1  UNL1        0.0147
      9 C           0.2065    1.3073   21.2471 C.ar    1  UNL1        0.0643
     10 C           0.6910    1.5569   22.6446 C.ar    1  UNL1        0.0189
     11 C           1.8231    0.7459   23.2019 C.ar    1  UNL1        0.0379
     12 C           2.4706   -0.3147   22.3618 C.ar    1  UNL1        0.1353
     13 O           3.5975   -1.2653   22.6383 O.3     1  UNL1       -0.4699
     14 N          -0.9256    2.1184   20.6897 N.pl3   1  UNL1       -0.2187
     15 H          -1.6381    1.6785   20.1719 H       1  UNL1        0.1734
     16 S          -0.9721    3.5997   20.9214 S.O2    1  UNL1        0.0558
     17 C          -1.0187    5.0810   21.1530 C.3     1  UNL1        0.1996
     18 O           0.2220    3.7764   20.0310 O.2     1  UNL1       -0.1544
     19 O          -2.1663    3.4229   21.8117 O.2     1  UNL1       -0.1544
     20 C           6.7180   -1.3908   21.2252 C.3     1  UNL1        0.1139
     21 C           6.8782   -0.7200   22.5572 C.ar    1  UNL1       -0.0029
     22 C           6.3785    0.6803   22.7568 C.ar    1  UNL1       -0.0026
     23 C           6.5387    1.3510   24.0888 C.ar    1  UNL1       -0.0003
     24 C           7.1985    0.6217   25.2213 C.ar    1  UNL1       -0.0000
     25 C           7.6982   -0.7785   25.0218 C.ar    1  UNL1       -0.0003
     26 C           7.5380   -1.4494   23.6897 C.ar    1  UNL1       -0.0026
     27 C           6.9845   -0.6253   19.9631 C.3     1  UNL1        0.0968
     28 N           5.8773   -0.3946   18.9778 N.3     1  UNL1       -0.2689
     29 C           5.0000    0.8200   18.9058 C.3     1  UNL1        0.0748
     30 C           4.0335    0.6273   17.7750 C.3     1  UNL1        0.0480
     31 C           4.3134   -0.7063   17.1482 C.3     1  UNL1        0.1278
     32 O           3.5822   -1.3037   15.9826 O.3     1  UNL1       -0.3830
     33 C           5.4529   -1.3379   17.8915 C.3     1  UNL1        0.1017
     34 H           3.9594   -2.1729   15.7752 H       1  UNL1        0.2104
@<TRIPOS>BOND
     1     1     2    1
     2     2     3   am
     3     3     4    2
     4     5     3    1
     5     5     6    1
     6     6     7    1
     7     7     8   ar
     8     8     9   ar
     9     9    14    1
    10    14    16    1
    11    16    17    1
    12    16    18    2
    13    16    19    2
    14     9    10   ar
    15    10    11   ar
    16    11    12   ar
    17    12    13    1
    18     2    20    1
    19    20    27    1
    20    27    28    1
    21    28    29    1
    22    29    30    1
    23    30    31    1
    24    31    32    1
    25    31    33    1
    26    20    21    1
    27    21    22   ar
    28    22    23   ar
    29    23    24   ar
    30    24    25   ar
    31    25    26   ar
    32    13     5    1
    33    33    28    1
    34    26    21   ar
    35    12     7   ar
    36    14    15    1
    37    32    34    1
@<TRIPOS>MOLECULE
*****
 34 37 0 0 0
SMALL
GASTEIGER

@<TRIPOS>ATOM
      1 C           1.2251    1.1820   18.2473 C.3     1  UNL1        0.1153
      2 N           2.3238    0.4807   18.9895 N.am    1  UNL1       -0.2714
      3 C           2.2488    0.3370   20.4806 C.2     1  UNL1        0.2665
      4 O           1.0750    0.8947   21.2297 O.2     1  UNL1       -0.2710
      5 C           3.3476   -0.3644   21.2228 C.3     1  UNL1        0.2456
      6 C           3.2034   -1.6182   22.0333 C.3     1  UNL1        0.0826
      7 C           4.5502   -1.9638   22.5962 C.ar    1  UNL1        0.0172
      8 C           5.0134   -3.0914   23.4702 C.ar    1  UNL1        0.0147
      9 C           6.4532   -3.1786   23.8816 C.ar    1  UNL1        0.0643
     10 C           7.4298   -2.1383   23.4190 C.ar    1  UNL1        0.0189
     11 C           6.9665   -1.0107   22.5449 C.ar    1  UNL1        0.0379
     12 C           5.5267   -0.9235   22.1335 C.ar    1  UNL1        0.1353
     13 O           4.7835    0.0650   21.2848 O.3     1  UNL1       -0.4699
     14 N           6.9166   -4.3062   24.7557 N.pl3   1  UNL1       -0.2187
     15 H           6.3772   -4.5807   25.5322 H       1  UNL1        0.1734
     16 S           8.2016   -5.0155   24.4466 S.O2    1  UNL1        0.0558
     17 C           9.4867   -5.7247   24.1375 C.3     1  UNL1        0.1996
     18 O           7.5743   -5.6198   23.2254 O.2     1  UNL1       -0.1544
     19 O           8.8289   -4.4112   25.6678 O.2     1  UNL1       -0.1544
     20 C           3.4977   -0.0771   18.2403 C.3     1  UNL1        0.1139
     21 C           4.7008    0.7814   17.9847 C.ar    1  UNL1       -0.0029
     22 C           5.8449    0.2473   17.1747 C.ar    1  UNL1       -0.0026
     23 C           7.0480    1.1058   16.9191 C.ar    1  UNL1       -0.0003
     24 C           7.1072    2.4984   17.4733 C.ar    1  UNL1       -0.0000
     25 C           5.9632    3.0325   18.2831 C.ar    1  UNL1       -0.0003
     26 C           4.7600    2.1740   18.5388 C.ar    1  UNL1       -0.0026
     27 C           3.4683   -1.4933   17.7469 C.3     1  UNL1        0.0968
     28 N           3.9955   -2.5998   18.6115 N.3     1  UNL1       -0.2689
     29 C           3.2021   -3.7548   19.1468 C.3     1  UNL1        0.0748
     30 C           4.1249   -4.6145   19.9588 C.3     1  UNL1        0.0480
     31 C           5.4886   -3.9908   19.9254 C.3     1  UNL1        0.1278
     32 O           6.7168   -4.5194   20.6053 O.3     1  UNL1       -0.3830
     33 C           5.4087   -2.7457   19.0928 C.3     1  UNL1        0.1017
     34 H           7.4653   -3.9292   20.4255 H       1  UNL1        0.2104
@<TRIPOS>BOND
     1     1     2    1
     2     2     3   am
     3     3     4    2
     4     5     3    1
     5     5     6    1
     6     6     7    1
     7     7     8   ar
     8     8     9   ar
     9     9    14    1
    10    14    16    1
    11    16    17    1
    12    16    18    2
    13    16    19    2
    14     9    10   ar
    15    10    11   ar
    16    11    12   ar
    17    12    13    1
    18     2    20    1
    19    20    27    1
    20    27    28    1
    21    28    29    1
    22    29    30    1
    23    30    31    1
    24    31    32    1
    25    31    33    1
    26    20    21    1
    27    21    22   ar
    28    22    23   ar
    29    23    24   ar
    30    24    25   ar
    31    25    26   ar
    32    13     5    1
    33    33    28    1
    34    26    21   ar
    35    12     7   ar
    36    14    15    1
    37    32    34    1
@<TRIPOS>MOLECULE
*****
 34 37 0 0 0
SMALL
GASTEIGER

@<TRIPOS>ATOM
      1 C           6.1952   -3.6637   19.8913 C.3     1  UNL1        0.1153
      2 N           5.2861   -2.4721   19.9490 N.am    1  UNL1       -0.2714
      3 C           3.8184   -2.6350   19.6859 C.2     1  UNL1        0.2665
      4 O           3.2598   -3.9897   19.3652 O.2     1  UNL1       -0.2710
      5 C           2.9092   -1.4434   19.7436 C.3     1  UNL1        0.2456
      6 C           2.1596   -0.9639   20.9512 C.3     1  UNL1        0.0826
      7 C           1.3771    0.2539   20.5578 C.ar    1  UNL1        0.0172
      8 C           0.4567    1.1493   21.3331 C.ar    1  UNL1        0.0147
      9 C          -0.1976    2.3178   20.6577 C.ar    1  UNL1        0.0643
     10 C           0.0684    2.5910   19.2069 C.ar    1  UNL1        0.0189
     11 C           0.9887    1.6956   18.4316 C.ar    1  UNL1        0.0379
     12 C           1.6431    0.5270   19.1070 C.ar    1  UNL1        0.1353
     13 O           2.5900   -0.5219   18.6039 O.3     1  UNL1       -0.4699
     14 N          -1.1180    3.2133   21.4330 N.pl3   1  UNL1       -0.2187
     15 H          -0.9868    3.3345   22.4012 H       1  UNL1        0.1734
     16 S          -2.2383    3.9241   20.7331 S.O2    1  UNL1        0.0558
     17 C          -3.3585    4.6350   20.0333 C.3     1  UNL1        0.1996
     18 O          -1.4345    5.1906   20.7329 O.2     1  UNL1       -0.1544
     19 O          -3.0420    2.6577   20.7334 O.2     1  UNL1       -0.1544
     20 C           5.8447   -1.1173   20.2697 C.3     1  UNL1        0.1139
     21 C           5.8962   -0.0572   19.2099 C.ar    1  UNL1       -0.0029
     22 C           6.4329   -0.3839   17.8477 C.ar    1  UNL1       -0.0026
     23 C           6.4845    0.6762   16.7878 C.ar    1  UNL1       -0.0003
     24 C           5.9994    2.0631   17.0900 C.ar    1  UNL1       -0.0000
     25 C           5.4628    2.3898   18.4521 C.ar    1  UNL1       -0.0003
     26 C           5.4112    1.3297   19.5120 C.ar    1  UNL1       -0.0026
     27 C           6.3517   -0.8229   21.6504 C.3     1  UNL1        0.0968
     28 N           5.3847   -0.6589   22.7853 N.3     1  UNL1       -0.2689
     29 C           4.4877    0.5210   23.0158 C.3     1  UNL1        0.0748
     30 C           3.6936    0.2631   24.2620 C.3     1  UNL1        0.0480
     31 C           4.0999   -1.0761   24.8016 C.3     1  UNL1        0.1278
     32 O           3.5564   -1.7307   26.0371 O.3     1  UNL1       -0.3830
     33 C           5.1450   -1.6460   23.8891 C.3     1  UNL1        0.1017
     34 H           3.9862   -2.5912   26.1628 H       1  UNL1        0.2104
@<TRIPOS>BOND
     1     1     2    1
     2     2     3   am
     3     3     4    2
     4     5     3    1
     5     5     6    1
     6     6     7    1
     7     7     8   ar
     8     8     9   ar
     9     9    14    1
    10    14    16    1
    11    16    17    1
    12    16    18    2
    13    16    19    2
    14     9    10   ar
    15    10    11   ar
    16    11    12   ar
    17    12    13    1
    18     2    20    1
    19    20    27    1
    20    27    28    1
    21    28    29    1
    22    29    30    1
    23    30    31    1
    24    31    32    1
    25    31    33    1
    26    20    21    1
    27    21    22   ar
    28    22    23   ar
    29    23    24   ar
    30    24    25   ar
    31    25    26   ar
    32    13     5    1
    33    33    28    1
    34    26    21   ar
    35    12     7   ar
    36    14    15    1
    37    32    34    1
@<TRIPOS>MOLECULE
*****
 34 37 0 0 0
SMALL
GASTEIGER

@<TRIPOS>ATOM
      1 C           5.7910    1.1998   16.8584 C.3     1  UNL1        0.1153
      2 N           5.1909    0.8445   18.1865 N.am    1  UNL1       -0.2714
      3 C           5.8064    1.3657   19.4512 C.2     1  UNL1        0.2665
      4 O           7.0220    2.2422   19.3878 O.2     1  UNL1       -0.2710
      5 C           5.2064    1.0104   20.7792 C.3     1  UNL1        0.2456
      6 C           5.5287   -0.2062   21.5952 C.3     1  UNL1        0.0826
      7 C           4.7002   -0.1592   22.8447 C.ar    1  UNL1        0.0172
      8 C           4.5977   -1.0898   24.0167 C.ar    1  UNL1        0.0147
      9 C           3.6608   -0.7746   25.1449 C.ar    1  UNL1        0.0643
     10 C           2.8265    0.4712   25.1012 C.ar    1  UNL1        0.0189
     11 C           2.9289    1.4017   23.9292 C.ar    1  UNL1        0.0379
     12 C           3.8658    1.0866   22.8010 C.ar    1  UNL1        0.1353
     13 O           4.1786    1.8094   21.5244 O.3     1  UNL1       -0.4699
     14 N           3.5583   -1.7052   26.3169 N.pl3   1  UNL1       -0.2187
     15 H           3.1690   -2.6019   26.2009 H       1  UNL1        0.1734
     16 S           4.0491   -1.2694   27.6657 S.O2    1  UNL1        0.0558
     17 C           4.5398   -0.8336   29.0146 C.3     1  UNL1        0.1996
     18 O           5.4633   -1.3241   27.1689 O.2     1  UNL1       -0.1544
     19 O           2.6348   -1.2146   28.1626 O.2     1  UNL1       -0.1544
     20 C           3.9753   -0.0320   18.2498 C.3     1  UNL1        0.1139
     21 C           2.6955    0.5008   18.8226 C.ar    1  UNL1       -0.0029
     22 C           2.2069    1.8630   18.4280 C.ar    1  UNL1       -0.0026
     23 C           0.9271    2.3958   19.0008 C.ar    1  UNL1       -0.0003
     24 C           0.1358    1.5664   19.9683 C.ar    1  UNL1       -0.0000
     25 C           0.6243    0.2042   20.3629 C.ar    1  UNL1       -0.0003
     26 C           1.9042   -0.3286   19.7901 C.ar    1  UNL1       -0.0026
     27 C           4.0395   -1.4414   17.7403 C.3     1  UNL1        0.0968
     28 N           4.4383   -2.5549   18.6627 N.3     1  UNL1       -0.2689
     29 C           3.5102   -3.5428   19.3050 C.3     1  UNL1        0.0748
     30 C           4.3335   -4.4746   20.1441 C.3     1  UNL1        0.0480
     31 C           5.7704   -4.0625   20.0204 C.3     1  UNL1        0.1278
     32 O           6.9377   -4.7212   20.6940 O.3     1  UNL1       -0.3830
     33 C           5.8352   -2.8761   19.1049 C.3     1  UNL1        0.1017
     34 H           7.7552   -4.2608   20.4475 H       1  UNL1        0.2104
@<TRIPOS>BOND
     1     1     2    1
     2     2     3   am
     3     3     4    2
     4     5     3    1
     5     5     6    1
     6     6     7    1
     7     7     8   ar
     8     8     9   ar
     9     9    14    1
    10    14    16    1
    11    16    17    1
    12    16    18    2
    13    16    19    2
    14     9    10   ar
    15    10    11   ar
    16    11    12   ar
    17    12    13    1
    18     2    20    1
    19    20    27    1
    20    27    28    1
    21    28    29    1
    22    29    30    1
    23    30    31    1
    24    31    32    1
    25    31    33    1
    26    20    21    1
    27    21    22   ar
    28    22    23   ar
    29    23    24   ar
    30    24    25   ar
    31    25    26   ar
    32    13     5    1
    33    33    28    1
    34    26    21   ar
    35    12     7   ar
    36    14    15    1
    37    32    34    1
@<TRIPOS>MOLECULE
*****
 34 37 0 0 0
SMALL
GASTEIGER

@<TRIPOS>ATOM
      1 C           4.7474   -2.7932   18.1907 C.3     1  UNL1        0.1153
      2 N           4.9928   -2.4870   19.6384 N.am    1  UNL1       -0.2714
      3 C           4.5959   -3.4778   20.6923 C.2     1  UNL1        0.2665
      4 O           3.9537   -4.7749   20.2984 O.2     1  UNL1       -0.2710
      5 C           4.8413   -3.1716   22.1401 C.3     1  UNL1        0.2456
      6 C           5.8915   -3.7988   23.0083 C.3     1  UNL1        0.0826
      7 C           5.7788   -3.1993   24.3786 C.ar    1  UNL1        0.0172
      8 C           6.5512   -3.4330   25.6430 C.ar    1  UNL1        0.0147
      9 C           6.2038   -2.6690   26.8862 C.ar    1  UNL1        0.0643
     10 C           5.0840   -1.6712   26.8649 C.ar    1  UNL1        0.0189
     11 C           4.3116   -1.4375   25.6006 C.ar    1  UNL1        0.0379
     12 C           4.6590   -2.2016   24.3574 C.ar    1  UNL1        0.1353
     13 O           4.0796   -2.1845   22.9739 O.3     1  UNL1       -0.4699
     14 N           6.9763   -2.9027   28.1506 N.pl3   1  UNL1       -0.2187
     15 H           7.0405   -2.1902   28.8270 H       1  UNL1        0.1734
     16 S           7.6508   -4.2219   28.3845 S.O2    1  UNL1        0.0558
     17 C           8.3253   -5.5411   28.6183 C.3     1  UNL1        0.1996
     18 O           8.9776   -3.6005   28.0629 O.2     1  UNL1       -0.1544
     19 O           6.3240   -4.8433   28.7060 O.2     1  UNL1       -0.1544
     20 C           5.6350   -1.1899   20.0323 C.3     1  UNL1        0.1139
     21 C           6.9346   -1.1935   20.7814 C.ar    1  UNL1       -0.0029
     22 C           7.0948   -0.3471   22.0094 C.ar    1  UNL1       -0.0026
     23 C           8.3943   -0.3507   22.7585 C.ar    1  UNL1       -0.0003
     24 C           9.5337   -1.2006   22.2796 C.ar    1  UNL1       -0.0000
     25 C           9.3736   -2.0469   21.0516 C.ar    1  UNL1       -0.0003
     26 C           8.0740   -2.0434   20.3024 C.ar    1  UNL1       -0.0026
     27 C           4.9777    0.1108   19.6771 C.3     1  UNL1        0.0968
     28 N           3.4927    0.1698   19.4742 N.3     1  UNL1       -0.2689
     29 C           2.7907    0.5627   18.2082 C.3     1  UNL1        0.0748
     30 C           1.3131    0.4820   18.4533 C.3     1  UNL1        0.0480
     31 C           1.1018    0.0392   19.8708 C.3     1  UNL1        0.1278
     32 O          -0.2238   -0.1733   20.5399 O.3     1  UNL1       -0.3830
     33 C           2.4489   -0.1537   20.5018 C.3     1  UNL1        0.1017
     34 H          -0.0815   -0.4587   21.4560 H       1  UNL1        0.2104
@<TRIPOS>BOND
     1     1     2    1
     2     2     3   am
     3     3     4    2
     4     5     3    1
     5     5     6    1
     6     6     7    1
     7     7     8   ar
     8     8     9   ar
     9     9    14    1
    10    14    16    1
    11    16    17    1
    12    16    18    2
    13    16    19    2
    14     9    10   ar
    15    10    11   ar
    16    11    12   ar
    17    12    13    1
    18     2    20    1
    19    20    27    1
    20    27    28    1
    21    28    29    1
    22    29    30    1
    23    30    31    1
    24    31    32    1
    25    31    33    1
    26    20    21    1
    27    21    22   ar
    28    22    23   ar
    29    23    24   ar
    30    24    25   ar
    31    25    26   ar
    32    13     5    1
    33    33    28    1
    34    26    21   ar
    35    12     7   ar
    36    14    15    1
    37    32    34    1
@<TRIPOS>MOLECULE
*****
 34 37 0 0 0
SMALL
GASTEIGER

@<TRIPOS>ATOM
      1 C         -10.9555   -7.2395   18.9501 C.3     1  UNL1        0.1153
      2 N         -11.6897   -5.9656   18.6534 N.am    1  UNL1       -0.2714
      3 C         -10.9746   -4.8240   17.9936 C.2     1  UNL1        0.2665
      4 O          -9.5253   -4.9563   17.6306 O.2     1  UNL1       -0.2710
      5 C         -11.7089   -3.5502   17.6968 C.3     1  UNL1        0.2456
      6 C         -11.4246   -2.2072   18.3016 C.3     1  UNL1        0.0826
      7 C         -12.3964   -1.2226   17.7218 C.ar    1  UNL1        0.0172
      8 C         -12.5898    0.2478   17.9463 C.ar    1  UNL1        0.0147
      9 C         -13.6681    0.9838   17.2078 C.ar    1  UNL1        0.0643
     10 C         -14.5530    0.2494   16.2446 C.ar    1  UNL1        0.0189
     11 C         -14.3595   -1.2210   16.0200 C.ar    1  UNL1        0.0379
     12 C         -13.2812   -1.9570   16.7586 C.ar    1  UNL1        0.1353
     13 O         -12.8563   -3.3955   16.7432 O.3     1  UNL1       -0.4699
     14 N         -13.8616    2.4542   17.4323 N.pl3   1  UNL1       -0.2187
     15 H         -13.1471    3.0872   17.1913 H       1  UNL1        0.1734
     16 S         -15.1437    2.9602   18.0241 S.O2    1  UNL1        0.0558
     17 C         -16.4258    3.4662   18.6158 C.3     1  UNL1        0.1996
     18 O         -14.7266    2.4441   19.3693 O.2     1  UNL1       -0.1544
     19 O         -15.5609    3.4764   16.6788 O.2     1  UNL1       -0.1544
     20 C         -13.1392   -5.8334   19.0164 C.3     1  UNL1        0.1139
     21 C         -14.1704   -6.6502   18.2957 C.ar    1  UNL1       -0.0029
     22 C         -15.1739   -7.4479   19.0747 C.ar    1  UNL1       -0.0026
     23 C         -16.2051   -8.2647   18.3540 C.ar    1  UNL1       -0.0003
     24 C         -16.2329   -8.2838   16.8544 C.ar    1  UNL1       -0.0000
     25 C         -15.2294   -7.4862   16.0754 C.ar    1  UNL1       -0.0003
     26 C         -14.1981   -6.6694   16.7961 C.ar    1  UNL1       -0.0026
     27 C         -13.5573   -4.8843   20.1001 C.3     1  UNL1        0.0968
     28 N         -14.5063   -3.7645   19.7913 N.3     1  UNL1       -0.2689
     29 C         -15.7004   -3.8448   18.8872 C.3     1  UNL1        0.0748
     30 C         -16.3599   -2.4977   18.8695 C.3     1  UNL1        0.0480
     31 C         -15.5734   -1.5849   19.7628 C.3     1  UNL1        0.1278
     32 O         -15.8788   -0.1422   20.0381 O.3     1  UNL1       -0.3830
     33 C         -14.4278   -2.3677   20.3325 C.3     1  UNL1        0.1017
     34 H         -15.2165    0.2177   20.6487 H       1  UNL1        0.2104
@<TRIPOS>BOND
     1     1     2    1
     2     2     3   am
     3     3     4    2
     4     5     3    1
     5     5     6    1
     6     6     7    1
     7     7     8   ar
     8     8     9   ar
     9     9    14    1
    10    14    16    1
    11    16    17    1
    12    16    18    2
    13    16    19    2
    14     9    10   ar
    15    10    11   ar
    16    11    12   ar
    17    12    13    1
    18     2    20    1
    19    20    27    1
    20    27    28    1
    21    28    29    1
    22    29    30    1
    23    30    31    1
    24    31    32    1
    25    31    33    1
    26    20    21    1
    27    21    22   ar
    28    22    23   ar
    29    23    24   ar
    30    24    25   ar
    31    25    26   ar
    32    13     5    1
    33    33    28    1
    34    26    21   ar
    35    12     7   ar
    36    14    15    1
    37    32    34    1
