@<TRIPOS>MOLECULE
*****
 20 22 0 0 0
SMALL
GASTEIGER

@<TRIPOS>ATOM
      1 C          -9.6561  -18.2394   21.3082 C.3     1  UNL1        0.0883
      2 C         -10.4911  -18.6739   20.1403 C.3     1  UNL1        0.0885
      3 N         -11.4667  -17.7187   19.5193 N.3     1  UNL1       -0.2947
      4 C         -11.6073  -16.3290   20.0661 C.3     1  UNL1        0.0903
      5 C         -10.7723  -15.8945   21.2339 C.3     1  UNL1        0.1076
      6 N          -9.7967  -16.8497   21.8550 N.pl3   1  UNL1       -0.3093
      7 H         -12.3867  -18.1546   19.5829 H       1  UNL1        0.1233
      8 C          -8.9616  -16.4152   23.0229 C.2     1  UNL1        0.0295
      9 C          -9.5845  -16.2777   24.3804 C.2     1  UNL1        0.0120
     10 C          -8.7494  -15.8431   25.5483 C.2     1  UNL1        0.0216
     11 C          -7.2915  -15.5461   25.3585 C.2     1  UNL1        0.1008
     12 N          -6.2249  -15.1018   26.3151 N.2     1  UNL1       -0.1482
     13 N          -4.9428  -14.9648   25.5487 N.2     1  UNL1       -0.1467
     14 C          -5.2170  -15.3243   24.1184 C.2     1  UNL1        0.1198
     15 C          -6.6686  -15.6835   24.0009 C.2     1  UNL1        0.0238
     16 C          -7.5036  -16.1181   22.8331 C.3     1  UNL1        0.0705
     17 C          -8.6804  -19.1946   21.9293 C.3     1  UNL1        0.0211
     18 C          -9.0695  -19.9772   23.1484 C.3     1  UNL1        0.0017
     19 C         -11.1024  -19.3601   24.6438 C.3     1  UNL1        0.0000
     20 C         -10.5174  -20.1406   23.5043 C.3     1  UNL1        0.0001
@<TRIPOS>BOND
     1    19    20    1
     2    20    18    1
     3    18    17    1
     4    17     1    1
     5     1     2    1
     6     2     3    1
     7     3     4    1
     8     4     5    1
     9     5     6    1
    10     6     8    1
    11     8     9    2
    12     9    10    1
    13    10    11    2
    14    11    12    1
    15    12    13    2
    16    13    14    1
    17    14    15    2
    18    15    16    1
    19     6     1    1
    20    16     8    1
    21    15    11    1
    22     3     7    1
@<TRIPOS>MOLECULE
*****
 20 22 0 0 0
SMALL
GASTEIGER

@<TRIPOS>ATOM
      1 C          -9.9162  -18.3344   21.8055 C.3     1  UNL1        0.0883
      2 C         -10.9252  -18.7469   20.7750 C.3     1  UNL1        0.0885
      3 N         -11.7184  -17.7052   20.0430 N.3     1  UNL1       -0.2947
      4 C         -11.5026  -16.2512   20.3415 C.3     1  UNL1        0.0903
      5 C         -10.4936  -15.8388   21.3719 C.3     1  UNL1        0.1076
      6 N          -9.7004  -16.8804   22.1039 N.pl3   1  UNL1       -0.3093
      7 H         -12.7023  -17.9008   20.2274 H       1  UNL1        0.1233
      8 C          -8.6914  -16.4679   23.1344 C.2     1  UNL1        0.0295
      9 C          -7.2450  -16.3397   22.7586 C.2     1  UNL1        0.0120
     10 C          -6.2360  -15.9272   23.7891 C.2     1  UNL1        0.0216
     11 C          -6.6736  -15.6430   25.1954 C.2     1  UNL1        0.1008
     12 N          -5.9128  -15.2208   26.4173 N.2     1  UNL1       -0.1482
     13 N          -6.8892  -15.0880   27.5482 N.2     1  UNL1       -0.1467
     14 C          -8.2533  -15.4282   27.0254 C.2     1  UNL1        0.1198
     15 C          -8.1201  -15.7712   25.5712 C.2     1  UNL1        0.0238
     16 C          -9.1290  -16.1837   24.5407 C.3     1  UNL1        0.0705
     17 C          -9.1231  -19.3761   22.5374 C.3     1  UNL1        0.0211
     18 C          -9.7856  -20.2295   23.5780 C.3     1  UNL1        0.0017
     19 C         -11.7731  -18.8651   24.5466 C.3     1  UNL1        0.0000
     20 C         -10.4745  -19.5886   24.7463 C.3     1  UNL1        0.0001
@<TRIPOS>BOND
     1    19    20    1
     2    20    18    1
     3    18    17    1
     4    17     1    1
     5     1     2    1
     6     2     3    1
     7     3     4    1
     8     4     5    1
     9     5     6    1
    10     6     8    1
    11     8     9    2
    12     9    10    1
    13    10    11    2
    14    11    12    1
    15    12    13    2
    16    13    14    1
    17    14    15    2
    18    15    16    1
    19     6     1    1
    20    16     8    1
    21    15    11    1
    22     3     7    1
@<TRIPOS>MOLECULE
*****
 20 22 0 0 0
SMALL
GASTEIGER

@<TRIPOS>ATOM
      1 C          -6.6027  -18.4502   22.2310 C.3     1  UNL1        0.0883
      2 C          -5.1073  -18.5500   22.2944 C.3     1  UNL1        0.0885
      3 N          -4.3174  -17.5143   23.0384 N.3     1  UNL1       -0.2947
      4 C          -5.0229  -16.3789   23.7189 C.3     1  UNL1        0.0903
      5 C          -6.5183  -16.2792   23.6555 C.3     1  UNL1        0.1076
      6 N          -7.3081  -17.3149   22.9116 N.pl3   1  UNL1       -0.3093
      7 H          -3.6706  -17.0993   22.3677 H       1  UNL1        0.1233
      8 C          -8.8035  -17.2151   22.8482 C.2     1  UNL1        0.0295
      9 C          -9.4521  -16.2834   21.8678 C.2     1  UNL1        0.0120
     10 C         -10.9475  -16.1837   21.8045 C.2     1  UNL1        0.0216
     11 C         -11.7942  -17.0157   22.7215 C.2     1  UNL1        0.1008
     12 N         -13.2806  -17.1298   22.8873 N.2     1  UNL1       -0.1482
     13 N         -13.5505  -18.1321   23.9701 N.2     1  UNL1       -0.1467
     14 C         -12.2310  -18.6374   24.4736 C.2     1  UNL1        0.1198
     15 C         -11.1455  -17.9474   23.7019 C.2     1  UNL1        0.0238
     16 C          -9.6501  -18.0471   23.7652 C.3     1  UNL1        0.0705
     17 C          -7.3925  -19.4859   21.4871 C.3     1  UNL1        0.0211
     18 C          -7.6021  -19.3500   20.0080 C.3     1  UNL1        0.0017
     19 C         -10.1750  -19.5724   20.2915 C.3     1  UNL1        0.0000
     20 C          -8.9573  -19.6013   19.4162 C.3     1  UNL1        0.0001
@<TRIPOS>BOND
     1    19    20    1
     2    20    18    1
     3    18    17    1
     4    17     1    1
     5     1     2    1
     6     2     3    1
     7     3     4    1
     8     4     5    1
     9     5     6    1
    10     6     8    1
    11     8     9    2
    12     9    10    1
    13    10    11    2
    14    11    12    1
    15    12    13    2
    16    13    14    1
    17    14    15    2
    18    15    16    1
    19     6     1    1
    20    16     8    1
    21    15    11    1
    22     3     7    1
@<TRIPOS>MOLECULE
*****
 20 22 0 0 0
SMALL
GASTEIGER

@<TRIPOS>ATOM
      1 C         -10.0740  -18.3393   21.9169 C.3     1  UNL1        0.0883
      2 C         -11.1602  -18.8235   21.0026 C.3     1  UNL1        0.0885
      3 N         -12.2680  -17.8968   20.5977 N.3     1  UNL1       -0.2947
      4 C         -12.2897  -16.4861   21.1071 C.3     1  UNL1        0.0903
      5 C         -11.2035  -16.0021   22.0214 C.3     1  UNL1        0.1076
      6 N         -10.0957  -16.9287   22.4263 N.pl3   1  UNL1       -0.3093
      7 H         -13.1403  -18.3318   20.8981 H       1  UNL1        0.1233
      8 C          -9.0095  -16.4446   23.3406 C.2     1  UNL1        0.0295
      9 C          -7.7362  -15.8962   22.7681 C.2     1  UNL1        0.0120
     10 C          -6.6500  -15.4121   23.6825 C.2     1  UNL1        0.0216
     11 C          -6.8373  -15.4765   25.1693 C.2     1  UNL1        0.1008
     12 N          -5.9502  -15.0766   26.3109 N.2     1  UNL1       -0.1482
     13 N          -6.6754  -15.3778   27.5889 N.2     1  UNL1       -0.1467
     14 C          -8.0106  -15.9640   27.2373 C.2     1  UNL1        0.1198
     15 C          -8.1107  -16.0250   25.7418 C.2     1  UNL1        0.0238
     16 C          -9.1968  -16.5090   24.8275 C.3     1  UNL1        0.0705
     17 C          -8.9661  -19.2660   22.3218 C.3     1  UNL1        0.0211
     18 C          -7.7375  -19.3838   21.4693 C.3     1  UNL1        0.0017
     19 C          -5.2202  -19.1885   22.0813 C.3     1  UNL1        0.0000
     20 C          -6.4873  -19.9897   22.0350 C.3     1  UNL1        0.0001
@<TRIPOS>BOND
     1    19    20    1
     2    20    18    1
     3    18    17    1
     4    17     1    1
     5     1     2    1
     6     2     3    1
     7     3     4    1
     8     4     5    1
     9     5     6    1
    10     6     8    1
    11     8     9    2
    12     9    10    1
    13    10    11    2
    14    11    12    1
    15    12    13    2
    16    13    14    1
    17    14    15    2
    18    15    16    1
    19     6     1    1
    20    16     8    1
    21    15    11    1
    22     3     7    1
@<TRIPOS>MOLECULE
*****
 20 22 0 0 0
SMALL
GASTEIGER

@<TRIPOS>ATOM
      1 C          -6.5488  -16.2631   23.7535 C.3     1  UNL1        0.0883
      2 C          -5.0861  -16.1381   24.0616 C.3     1  UNL1        0.0885
      3 N          -4.1208  -17.1642   23.5464 N.3     1  UNL1       -0.2947
      4 C          -4.6182  -18.3152   22.7232 C.3     1  UNL1        0.0903
      5 C          -6.0809  -18.4402   22.4151 C.3     1  UNL1        0.1076
      6 N          -7.0462  -17.4141   22.9303 N.pl3   1  UNL1       -0.3093
      7 H          -3.6541  -17.5643   24.3604 H       1  UNL1        0.1233
      8 C          -8.5089  -17.5392   22.6221 C.2     1  UNL1        0.0295
      9 C          -9.3446  -18.5509   23.3486 C.2     1  UNL1        0.0120
     10 C         -10.8073  -18.6759   23.0405 C.2     1  UNL1        0.0216
     11 C         -11.4342  -17.7891   22.0058 C.2     1  UNL1        0.1008
     12 N         -12.8399  -17.6835   21.4930 N.2     1  UNL1       -0.1482
     13 N         -12.8728  -16.6065   20.4495 N.2     1  UNL1       -0.1467
     14 C         -11.4876  -16.0465   20.3174 C.2     1  UNL1        0.1198
     15 C         -10.5984  -16.7774   21.2792 C.2     1  UNL1        0.0238
     16 C          -9.1358  -16.6524   21.5874 C.3     1  UNL1        0.0705
     17 C          -7.5141  -15.2371   24.2686 C.3     1  UNL1        0.0211
     18 C          -8.4797  -15.5963   25.3589 C.3     1  UNL1        0.0017
     19 C          -6.7904  -15.3127   27.3122 C.3     1  UNL1        0.0000
     20 C          -7.9687  -16.0151   26.7055 C.3     1  UNL1        0.0001
@<TRIPOS>BOND
     1    19    20    1
     2    20    18    1
     3    18    17    1
     4    17     1    1
     5     1     2    1
     6     2     3    1
     7     3     4    1
     8     4     5    1
     9     5     6    1
    10     6     8    1
    11     8     9    2
    12     9    10    1
    13    10    11    2
    14    11    12    1
    15    12    13    2
    16    13    14    1
    17    14    15    2
    18    15    16    1
    19     6     1    1
    20    16     8    1
    21    15    11    1
    22     3     7    1
@<TRIPOS>MOLECULE
*****
 20 22 0 0 0
SMALL
GASTEIGER

@<TRIPOS>ATOM
      1 C          -6.0915  -16.6492   23.6534 C.3     1  UNL1        0.0883
      2 C          -4.6001  -16.8104   23.6546 C.3     1  UNL1        0.0885
      3 N          -3.9608  -17.8801   22.8198 N.3     1  UNL1       -0.2947
      4 C          -4.8127  -18.7886   21.9838 C.3     1  UNL1        0.0903
      5 C          -6.3040  -18.6274   21.9826 C.3     1  UNL1        0.1076
      6 N          -6.9434  -17.5577   22.8174 N.pl3   1  UNL1       -0.3093
      7 H          -3.4334  -18.4758   23.4581 H       1  UNL1        0.1233
      8 C          -8.4348  -17.3965   22.8162 C.2     1  UNL1        0.0295
      9 C          -9.0796  -16.3899   21.9102 C.2     1  UNL1        0.0120
     10 C         -10.5710  -16.2287   21.9090 C.2     1  UNL1        0.0216
     11 C         -11.4174  -17.0742   22.8138 C.2     1  UNL1        0.1008
     12 N         -12.9003  -17.1389   23.0299 N.2     1  UNL1       -0.1482
     13 N         -13.1719  -18.1855   24.0696 N.2     1  UNL1       -0.1467
     14 C         -11.8569  -18.7677   24.4959 C.2     1  UNL1        0.1198
     15 C         -10.7725  -18.0808   23.7198 C.2     1  UNL1        0.0238
     16 C          -9.2812  -18.2420   23.7210 C.3     1  UNL1        0.0705
     17 C          -6.7309  -15.5795   24.4881 C.3     1  UNL1        0.0211
     18 C          -6.1230  -15.1906   25.8032 C.3     1  UNL1        0.0017
     19 C          -8.2144  -15.9586   27.1398 C.3     1  UNL1        0.0000
     20 C          -6.7457  -15.6587   27.0850 C.3     1  UNL1        0.0001
@<TRIPOS>BOND
     1    19    20    1
     2    20    18    1
     3    18    17    1
     4    17     1    1
     5     1     2    1
     6     2     3    1
     7     3     4    1
     8     4     5    1
     9     5     6    1
    10     6     8    1
    11     8     9    2
    12     9    10    1
    13    10    11    2
    14    11    12    1
    15    12    13    2
    16    13    14    1
    17    14    15    2
    18    15    16    1
    19     6     1    1
    20    16     8    1
    21    15    11    1
    22     3     7    1
@<TRIPOS>MOLECULE
*****
 20 22 0 0 0
SMALL
GASTEIGER

@<TRIPOS>ATOM
      1 C          -8.7427  -17.8466   23.4254 C.3     1  UNL1        0.0883
      2 C          -9.7077  -16.9660   24.1627 C.3     1  UNL1        0.0885
      3 N          -9.3264  -15.5559   24.5034 N.3     1  UNL1       -0.2947
      4 C          -7.9801  -15.0264   24.1069 C.3     1  UNL1        0.0903
      5 C          -7.0152  -15.9069   23.3696 C.3     1  UNL1        0.1076
      6 N          -7.3966  -17.3171   23.0289 N.pl3   1  UNL1       -0.3093
      7 H          -9.3891  -15.4709   25.5179 H       1  UNL1        0.1233
      8 C          -6.4316  -18.1976   22.2916 C.2     1  UNL1        0.0295
      9 C          -6.9124  -19.0513   21.1559 C.2     1  UNL1        0.0120
     10 C          -5.9474  -19.9318   20.4186 C.2     1  UNL1        0.0216
     11 C          -4.5016  -19.9586   20.8171 C.2     1  UNL1        0.1008
     12 N          -3.3264  -20.7206   20.2802 N.2     1  UNL1       -0.1482
     13 N          -2.1193  -20.3378   21.0841 N.2     1  UNL1       -0.1467
     14 C          -2.5484  -19.3392   22.1179 C.2     1  UNL1        0.1198
     15 C          -4.0207  -19.1049   21.9529 C.2     1  UNL1        0.0238
     16 C          -4.9857  -18.2244   22.6901 C.3     1  UNL1        0.0705
     17 C          -9.1240  -19.2567   23.0846 C.3     1  UNL1        0.0211
     18 C         -10.5439  -19.5847   22.7291 C.3     1  UNL1        0.0017
     19 C         -12.1822  -18.1515   21.3109 C.3     1  UNL1        0.0000
     20 C         -11.0951  -19.1815   21.3936 C.3     1  UNL1        0.0001
@<TRIPOS>BOND
     1    19    20    1
     2    20    18    1
     3    18    17    1
     4    17     1    1
     5     1     2    1
     6     2     3    1
     7     3     4    1
     8     4     5    1
     9     5     6    1
    10     6     8    1
    11     8     9    2
    12     9    10    1
    13    10    11    2
    14    11    12    1
    15    12    13    2
    16    13    14    1
    17    14    15    2
    18    15    16    1
    19     6     1    1
    20    16     8    1
    21    15    11    1
    22     3     7    1
@<TRIPOS>MOLECULE
*****
 20 22 0 0 0
SMALL
GASTEIGER

@<TRIPOS>ATOM
      1 C          -8.2760  -17.4213   23.0888 C.3     1  UNL1        0.0883
      2 C          -9.5695  -17.3493   23.8450 C.3     1  UNL1        0.0885
      3 N         -10.3209  -18.6070   24.1669 N.3     1  UNL1       -0.2947
      4 C          -9.7788  -19.9365   23.7327 C.3     1  UNL1        0.0903
      5 C          -8.4854  -20.0084   22.9765 C.3     1  UNL1        0.1076
      6 N          -7.7340  -18.7507   22.6546 N.pl3   1  UNL1       -0.3093
      7 H         -11.2451  -18.5139   23.7455 H       1  UNL1        0.1233
      8 C          -6.4405  -18.8226   21.8984 C.2     1  UNL1        0.0295
      9 C          -6.4497  -19.0599   20.4174 C.2     1  UNL1        0.0120
     10 C          -5.1562  -19.1319   19.6612 C.2     1  UNL1        0.0216
     11 C          -3.8535  -18.9665   20.3861 C.2     1  UNL1        0.1008
     12 N          -2.4308  -18.9885   19.9113 N.2     1  UNL1       -0.1482
     13 N          -1.5424  -18.7648   21.0989 N.2     1  UNL1       -0.1467
     14 C          -2.4159  -18.6045   22.3078 C.2     1  UNL1        0.1198
     15 C          -3.8443  -18.7292   21.8672 C.2     1  UNL1        0.0238
     16 C          -5.1378  -18.6572   22.6233 C.3     1  UNL1        0.0705
     17 C          -7.5246  -16.1636   22.7668 C.3     1  UNL1        0.0211
     18 C          -7.0475  -15.2707   23.8737 C.3     1  UNL1        0.0017
     19 C          -5.4567  -15.3783   25.9249 C.3     1  UNL1        0.0000
     20 C          -5.6711  -15.4507   24.4422 C.3     1  UNL1        0.0001
@<TRIPOS>BOND
     1    19    20    1
     2    20    18    1
     3    18    17    1
     4    17     1    1
     5     1     2    1
     6     2     3    1
     7     3     4    1
     8     4     5    1
     9     5     6    1
    10     6     8    1
    11     8     9    2
    12     9    10    1
    13    10    11    2
    14    11    12    1
    15    12    13    2
    16    13    14    1
    17    14    15    2
    18    15    16    1
    19     6     1    1
    20    16     8    1
    21    15    11    1
    22     3     7    1
@<TRIPOS>MOLECULE
*****
 20 22 0 0 0
SMALL
GASTEIGER

@<TRIPOS>ATOM
      1 C          -8.2260  -18.1178   21.5030 C.3     1  UNL1        0.0883
      2 C          -9.7045  -18.0392   21.2619 C.3     1  UNL1        0.0885
      3 N         -10.3282  -18.8423   20.1592 N.3     1  UNL1       -0.2947
      4 C          -9.4735  -19.7239   19.2977 C.3     1  UNL1        0.0903
      5 C          -7.9951  -19.8024   19.5388 C.3     1  UNL1        0.1076
      6 N          -7.3714  -18.9993   20.6415 N.pl3   1  UNL1       -0.3093
      7 H         -10.7889  -18.1790   19.5362 H       1  UNL1        0.1233
      8 C          -5.8929  -19.0779   20.8826 C.2     1  UNL1        0.0295
      9 C          -5.3732  -19.4733   22.2328 C.2     1  UNL1        0.0120
     10 C          -3.8947  -19.5519   22.4739 C.2     1  UNL1        0.0216
     11 C          -2.9361  -19.2349   21.3646 C.2     1  UNL1        0.1008
     12 N          -1.4373  -19.2262   21.3051 N.2     1  UNL1       -0.1482
     13 N          -1.0308  -18.8254   19.9180 N.2     1  UNL1       -0.1467
     14 C          -2.2784  -18.5863   19.1202 C.2     1  UNL1        0.1198
     15 C          -3.4559  -18.8395   20.0142 C.2     1  UNL1        0.0238
     16 C          -4.9343  -18.7609   19.7732 C.3     1  UNL1        0.0705
     17 C          -7.6023  -17.3147   22.6057 C.3     1  UNL1        0.0211
     18 C          -8.2917  -16.0863   23.1214 C.3     1  UNL1        0.0017
     19 C          -8.3868  -15.6564   25.6818 C.3     1  UNL1        0.0000
     20 C          -9.0408  -16.1359   24.4200 C.3     1  UNL1        0.0001
@<TRIPOS>BOND
     1    19    20    1
     2    20    18    1
     3    18    17    1
     4    17     1    1
     5     1     2    1
     6     2     3    1
     7     3     4    1
     8     4     5    1
     9     5     6    1
    10     6     8    1
    11     8     9    2
    12     9    10    1
    13    10    11    2
    14    11    12    1
    15    12    13    2
    16    13    14    1
    17    14    15    2
    18    15    16    1
    19     6     1    1
    20    16     8    1
    21    15    11    1
    22     3     7    1
