@<TRIPOS>MOLECULE
*****
 40 44 0 0 0
SMALL
GASTEIGER

@<TRIPOS>ATOM
      1 C          -1.9218    3.3583   24.3949 C.2     1  UNL1        0.2528
      2 O          -0.7529    3.3058   23.4565 O.2     1  UNL1       -0.2696
      3 N          -3.3104    3.5308   23.8544 N.am    1  UNL1       -0.2486
      4 C          -4.4794    3.5833   24.7928 C.3     1  UNL1        0.1458
      5 C          -5.8679    3.7557   24.2523 C.3     1  UNL1        0.2272
      6 O          -6.0875    3.8757   22.7733 O.3     1  UNL1       -0.4723
      7 C          -4.9185    3.8232   21.8349 C.ar    1  UNL1        0.1537
      8 C          -5.1380    3.9432   20.3558 C.ar    1  UNL1        0.0574
      9 C          -3.9691    3.8907   19.4174 C.ar    1  UNL1        0.0888
     10 N          -4.1886    4.0107   17.9384 N.ar    1  UNL1       -0.2238
     11 C          -3.0196    3.9582   17.0000 C.ar    1  UNL1        0.2000
     12 N          -1.6311    3.7857   17.5405 N.ar    1  UNL1       -0.2089
     13 C          -1.4115    3.6658   19.0195 C.ar    1  UNL1        0.1353
     14 C          -2.5805    3.7182   19.9580 C.ar    1  UNL1        0.0509
     15 C          -2.3609    3.5983   21.4369 C.ar    1  UNL1        0.0223
     16 C          -3.5300    3.6508   22.3754 C.ar    1  UNL1        0.0885
     17 C          -0.8409    2.1371   26.4173 C.2     1  UNL1       -0.0041
     18 C          -1.7023    3.2383   25.8739 C.2     1  UNL1        0.0551
     19 C          -0.6213    2.0172   27.8964 C.3     1  UNL1        0.0991
     20 C          -1.6827   -0.0336   29.0870 C.3     1  UNL1        0.0899
     21 N          -0.4787    0.6632   28.5260 N.3     1  UNL1       -0.2665
     22 C           0.8680    0.0061   28.5947 C.3     1  UNL1        0.0899
     23 N          -0.0229    3.4933   19.5600 N.pl3   1  UNL1       -0.2978
     24 H           0.4775    4.2744   19.8896 H       1  UNL1        0.1536
     25 C           0.6031    2.1308   19.5983 C.ar    1  UNL1        0.0504
     26 C           0.2224    1.1605   20.6770 C.ar    1  UNL1        0.0178
     27 C           0.8485   -0.2020   20.7153 C.ar    1  UNL1        0.0391
     28 C           1.8553   -0.5944   19.6749 C.ar    1  UNL1        0.1496
     29 C           2.2360    0.3759   18.5961 C.ar    1  UNL1        0.0928
     30 CL          3.2428   -0.0163   17.5557 Cl      1  UNL1       -0.0790
     31 C           1.6099    1.7385   18.5579 C.ar    1  UNL1        0.0291
     32 O           2.4814   -1.9569   19.7132 O.3     1  UNL1       -0.4698
     33 C           3.7506   -2.1778   20.4815 C.3     1  UNL1        0.2321
     34 C           5.0681   -1.7841   19.8824 C.ar    1  UNL1        0.0234
     35 C           5.7085   -2.6537   18.8413 C.ar    1  UNL1       -0.0005
     36 C           7.0261   -2.2600   18.2422 C.ar    1  UNL1        0.0021
     37 C           7.7033   -0.9967   18.6841 C.ar    1  UNL1        0.0296
     38 C           7.0630   -0.1270   19.7251 C.ar    1  UNL1        0.1399
     39 F           7.7403    1.1364   20.1670 F       1  UNL1       -0.2042
     40 C           5.7454   -0.5207   20.3242 C.ar    1  UNL1        0.0289
@<TRIPOS>BOND
     1    20    21    1
     2    21    22    1
     3    21    19    1
     4    19    17    1
     5    17    18    2
     6    18     1    1
     7     1     2    2
     8     1     3   am
     9     3     4    1
    10     4     5    1
    11     5     6    1
    12     6     7    1
    13     7     8   ar
    14     8     9   ar
    15     9    10   ar
    16    10    11   ar
    17    11    12   ar
    18    12    13   ar
    19    13    23    1
    20    23    25    1
    21    25    26   ar
    22    26    27   ar
    23    27    28   ar
    24    28    32    1
    25    32    33    1
    26    33    34    1
    27    34    35   ar
    28    35    36   ar
    29    36    37   ar
    30    37    38   ar
    31    38    39    1
    32    38    40   ar
    33    28    29   ar
    34    29    30    1
    35    29    31   ar
    36    13    14   ar
    37    14    15   ar
    38    15    16   ar
    39    16     3    1
    40    16     7   ar
    41    14     9   ar
    42    31    25   ar
    43    40    34   ar
    44    23    24    1
@<TRIPOS>MOLECULE
*****
 40 44 0 0 0
SMALL
GASTEIGER

@<TRIPOS>ATOM
      1 C          -1.4502    3.2713   24.4824 C.2     1  UNL1        0.2528
      2 O          -0.3064    3.1926   23.5152 O.2     1  UNL1       -0.2696
      3 N          -2.8466    3.4824   23.9770 N.am    1  UNL1       -0.2486
      4 C          -3.9904    3.5611   24.9442 C.3     1  UNL1        0.1458
      5 C          -5.3868    3.7722   24.4389 C.3     1  UNL1        0.2272
      6 O          -5.6395    3.9046   22.9663 O.3     1  UNL1       -0.4723
      7 C          -4.4957    3.8259   21.9991 C.ar    1  UNL1        0.1537
      8 C          -4.7483    3.9583   20.5264 C.ar    1  UNL1        0.0574
      9 C          -3.6045    3.8795   19.5592 C.ar    1  UNL1        0.0888
     10 N          -3.8572    4.0119   18.0865 N.ar    1  UNL1       -0.2238
     11 C          -2.7134    3.9332   17.1193 C.ar    1  UNL1        0.2000
     12 N          -1.3170    3.7221   17.6246 N.ar    1  UNL1       -0.2089
     13 C          -1.0643    3.5897   19.0972 C.ar    1  UNL1        0.1353
     14 C          -2.2081    3.6684   20.0645 C.ar    1  UNL1        0.0509
     15 C          -1.9555    3.5361   21.5371 C.ar    1  UNL1        0.0223
     16 C          -3.0993    3.6148   22.5044 C.ar    1  UNL1        0.0885
     17 C          -0.5792    1.8857   26.5002 C.2     1  UNL1       -0.0041
     18 C          -1.1975    3.1389   25.9550 C.2     1  UNL1        0.0551
     19 C          -0.3265    1.7534   27.9729 C.3     1  UNL1        0.0991
     20 C          -1.4961   -0.3652   28.9183 C.3     1  UNL1        0.0899
     21 N          -0.2418    0.3934   28.6001 N.3     1  UNL1       -0.2665
     22 C           1.0972   -0.2079   28.9090 C.3     1  UNL1        0.0899
     23 N           0.3321    3.3786   19.6026 N.pl3   1  UNL1       -0.2978
     24 H           0.8548    4.1424   19.9383 H       1  UNL1        0.1536
     25 C           0.9321    2.0039   19.5966 C.ar    1  UNL1        0.0504
     26 C           0.4849    0.9859   20.6034 C.ar    1  UNL1        0.0178
     27 C           1.0849   -0.3888   20.5974 C.ar    1  UNL1        0.0391
     28 C           2.1322   -0.7456   19.5845 C.ar    1  UNL1        0.1496
     29 C           2.5794    0.2723   18.5776 C.ar    1  UNL1        0.0928
     30 CL          3.6266   -0.0844   17.5647 Cl      1  UNL1       -0.0790
     31 C           1.9793    1.6471   18.5837 C.ar    1  UNL1        0.0291
     32 O           2.7322   -2.1203   19.5784 O.3     1  UNL1       -0.4698
     33 C           4.0317   -2.3746   20.2831 C.3     1  UNL1        0.2321
     34 C           4.3908   -1.5804   21.5038 C.ar    1  UNL1        0.0234
     35 C           5.3210   -0.4092   21.3898 C.ar    1  UNL1       -0.0005
     36 C           5.6802    0.3850   22.6106 C.ar    1  UNL1        0.0021
     37 C           5.1091    0.0080   23.9454 C.ar    1  UNL1        0.0296
     38 C           4.1789   -1.1633   24.0594 C.ar    1  UNL1        0.1399
     39 F           3.6079   -1.5403   25.3943 F       1  UNL1       -0.2042
     40 C           3.8198   -1.9574   22.8387 C.ar    1  UNL1        0.0289
@<TRIPOS>BOND
     1    20    21    1
     2    21    22    1
     3    21    19    1
     4    19    17    1
     5    17    18    2
     6    18     1    1
     7     1     2    2
     8     1     3   am
     9     3     4    1
    10     4     5    1
    11     5     6    1
    12     6     7    1
    13     7     8   ar
    14     8     9   ar
    15     9    10   ar
    16    10    11   ar
    17    11    12   ar
    18    12    13   ar
    19    13    23    1
    20    23    25    1
    21    25    26   ar
    22    26    27   ar
    23    27    28   ar
    24    28    32    1
    25    32    33    1
    26    33    34    1
    27    34    35   ar
    28    35    36   ar
    29    36    37   ar
    30    37    38   ar
    31    38    39    1
    32    38    40   ar
    33    28    29   ar
    34    29    30    1
    35    29    31   ar
    36    13    14   ar
    37    14    15   ar
    38    15    16   ar
    39    16     3    1
    40    16     7   ar
    41    14     9   ar
    42    31    25   ar
    43    40    34   ar
    44    23    24    1
@<TRIPOS>MOLECULE
*****
 40 44 0 0 0
SMALL
GASTEIGER

@<TRIPOS>ATOM
      1 C          -1.5896    3.1537   24.5797 C.2     1  UNL1        0.2528
      2 O          -0.3478    3.0310   23.7473 O.2     1  UNL1       -0.2696
      3 N          -2.9084    3.4342   23.9224 N.am    1  UNL1       -0.2486
      4 C          -4.1502    3.5570   24.7547 C.3     1  UNL1        0.1458
      5 C          -5.4690    3.8374   24.0974 C.3     1  UNL1        0.2272
      6 O          -5.5461    3.9950   22.6077 O.3     1  UNL1       -0.4723
      7 C          -4.3043    3.8722   21.7754 C.ar    1  UNL1        0.1537
      8 C          -4.3813    4.0299   20.2856 C.ar    1  UNL1        0.0574
      9 C          -3.1395    3.9071   19.4533 C.ar    1  UNL1        0.0888
     10 N          -3.2165    4.0648   17.9635 N.ar    1  UNL1       -0.2238
     11 C          -1.9747    3.9420   17.1312 C.ar    1  UNL1        0.2000
     12 N          -0.6559    3.6616   17.7885 N.ar    1  UNL1       -0.2089
     13 C          -0.5788    3.5039   19.2781 C.ar    1  UNL1        0.1353
     14 C          -1.8207    3.6267   20.1106 C.ar    1  UNL1        0.0509
     15 C          -1.7436    3.4690   21.6002 C.ar    1  UNL1        0.0223
     16 C          -2.9855    3.5918   22.4327 C.ar    1  UNL1        0.0885
     17 C          -0.4791    2.0937   26.6756 C.2     1  UNL1       -0.0041
     18 C          -1.5126    2.9961   26.0693 C.2     1  UNL1        0.0551
     19 C          -0.4021    1.9360   28.1654 C.3     1  UNL1        0.0991
     20 C           0.9546   -0.0922   29.0572 C.3     1  UNL1        0.0899
     21 N          -0.3633    0.5654   28.7735 N.3     1  UNL1       -0.2665
     22 C          -1.6425   -0.1477   29.0979 C.3     1  UNL1        0.0899
     23 N           0.7400    3.2235   19.9355 N.pl3   1  UNL1       -0.2978
     24 H           0.9343    3.5936   20.8268 H       1  UNL1        0.1536
     25 C           1.7628    2.3792   19.2348 C.ar    1  UNL1        0.0504
     26 C           1.4077    0.9950   18.7788 C.ar    1  UNL1        0.0178
     27 C           2.4304    0.1507   18.0780 C.ar    1  UNL1        0.0391
     28 C           3.8084    0.6906   17.8333 C.ar    1  UNL1        0.1496
     29 C           4.1635    2.0748   18.2893 C.ar    1  UNL1        0.0928
     30 CL          5.5414    2.6147   18.0445 Cl      1  UNL1       -0.0790
     31 C           3.1406    2.9191   18.9900 C.ar    1  UNL1        0.0291
     32 O           4.8311   -0.1537   17.1326 O.3     1  UNL1       -0.4698
     33 C           5.7742   -1.0054   17.9297 C.3     1  UNL1        0.2321
     34 C           5.2402   -2.1100   18.7926 C.ar    1  UNL1        0.0234
     35 C           5.1027   -3.4963   18.2365 C.ar    1  UNL1       -0.0005
     36 C           4.5686   -4.6010   19.0995 C.ar    1  UNL1        0.0021
     37 C           4.1722   -4.3192   20.5184 C.ar    1  UNL1        0.0296
     38 C           4.3097   -2.9329   21.0745 C.ar    1  UNL1        0.1399
     39 F           3.9132   -2.6512   22.4935 F       1  UNL1       -0.2042
     40 C           4.8437   -1.8283   20.2116 C.ar    1  UNL1        0.0289
@<TRIPOS>BOND
     1    20    21    1
     2    21    22    1
     3    21    19    1
     4    19    17    1
     5    17    18    2
     6    18     1    1
     7     1     2    2
     8     1     3   am
     9     3     4    1
    10     4     5    1
    11     5     6    1
    12     6     7    1
    13     7     8   ar
    14     8     9   ar
    15     9    10   ar
    16    10    11   ar
    17    11    12   ar
    18    12    13   ar
    19    13    23    1
    20    23    25    1
    21    25    26   ar
    22    26    27   ar
    23    27    28   ar
    24    28    32    1
    25    32    33    1
    26    33    34    1
    27    34    35   ar
    28    35    36   ar
    29    36    37   ar
    30    37    38   ar
    31    38    39    1
    32    38    40   ar
    33    28    29   ar
    34    29    30    1
    35    29    31   ar
    36    13    14   ar
    37    14    15   ar
    38    15    16   ar
    39    16     3    1
    40    16     7   ar
    41    14     9   ar
    42    31    25   ar
    43    40    34   ar
    44    23    24    1
@<TRIPOS>MOLECULE
*****
 40 44 0 0 0
SMALL
GASTEIGER

@<TRIPOS>ATOM
      1 C           4.5806   -1.1429   29.1314 C.2     1  UNL1        0.2528
      2 O           4.5299   -2.3475   28.2392 O.2     1  UNL1       -0.2696
      3 N           5.5786   -1.0791   30.2494 N.am    1  UNL1       -0.2486
      4 C           5.6293    0.1256   31.1416 C.3     1  UNL1        0.1458
      5 C           6.6274    0.1894   32.2596 C.3     1  UNL1        0.2272
      6 O           7.5747   -0.9514   32.4853 O.3     1  UNL1       -0.4723
      7 C           7.5240   -2.1561   31.5931 C.ar    1  UNL1        0.1537
      8 C           8.4713   -3.2970   31.8188 C.ar    1  UNL1        0.0574
      9 C           8.4206   -4.5017   30.9265 C.ar    1  UNL1        0.0888
     10 N           9.3680   -5.6427   31.1522 N.ar    1  UNL1       -0.2238
     11 C           9.3172   -6.8473   30.2600 C.ar    1  UNL1        0.2000
     12 N           8.3192   -6.9111   29.1420 N.ar    1  UNL1       -0.2089
     13 C           7.3719   -5.7703   28.9163 C.ar    1  UNL1        0.1353
     14 C           7.4226   -4.5655   29.8086 C.ar    1  UNL1        0.0509
     15 C           6.4753   -3.4247   29.5828 C.ar    1  UNL1        0.0223
     16 C           6.5259   -2.2199   30.4751 C.ar    1  UNL1        0.0885
     17 C           2.2025   -0.1178   29.3411 C.2     1  UNL1       -0.0041
     18 C           3.6333   -0.0020   28.9057 C.2     1  UNL1        0.0551
     19 C           1.2552    1.0231   29.1154 C.3     1  UNL1        0.0991
     20 C          -0.5424    1.7443   27.3837 C.3     1  UNL1        0.0899
     21 N          -0.0568    0.7840   28.4287 N.3     1  UNL1       -0.2665
     22 C          -0.8831   -0.4156   28.7869 C.3     1  UNL1        0.0899
     23 N           6.3738   -5.8341   27.7983 N.pl3   1  UNL1       -0.2978
     24 H           5.4242   -6.0035   27.9953 H       1  UNL1        0.1536
     25 C           6.8226   -5.6398   26.3803 C.ar    1  UNL1        0.0504
     26 C           6.4994   -4.3647   25.6594 C.ar    1  UNL1        0.0178
     27 C           6.9482   -4.1704   24.2414 C.ar    1  UNL1        0.0391
     28 C           7.7202   -5.2512   23.5442 C.ar    1  UNL1        0.1496
     29 C           8.0434   -6.5262   24.2651 C.ar    1  UNL1        0.0928
     30 CL          8.8153   -7.6070   23.5680 Cl      1  UNL1       -0.0790
     31 C           7.5945   -6.7205   25.6832 C.ar    1  UNL1        0.0291
     32 O           8.1689   -5.0568   22.1262 O.3     1  UNL1       -0.4698
     33 C           8.1446   -3.6883   21.5127 C.3     1  UNL1        0.2321
     34 C           7.2100   -3.3918   20.3775 C.ar    1  UNL1        0.0234
     35 C           7.6450   -2.4838   19.2656 C.ar    1  UNL1       -0.0005
     36 C           6.7104   -2.1873   18.1303 C.ar    1  UNL1        0.0021
     37 C           5.3409   -2.7989   18.1070 C.ar    1  UNL1        0.0296
     38 C           4.9060   -3.7069   19.2189 C.ar    1  UNL1        0.1399
     39 F           3.5365   -4.3185   19.1955 F       1  UNL1       -0.2042
     40 C           5.8405   -4.0034   20.3541 C.ar    1  UNL1        0.0289
@<TRIPOS>BOND
     1    20    21    1
     2    21    22    1
     3    21    19    1
     4    19    17    1
     5    17    18    2
     6    18     1    1
     7     1     2    2
     8     1     3   am
     9     3     4    1
    10     4     5    1
    11     5     6    1
    12     6     7    1
    13     7     8   ar
    14     8     9   ar
    15     9    10   ar
    16    10    11   ar
    17    11    12   ar
    18    12    13   ar
    19    13    23    1
    20    23    25    1
    21    25    26   ar
    22    26    27   ar
    23    27    28   ar
    24    28    32    1
    25    32    33    1
    26    33    34    1
    27    34    35   ar
    28    35    36   ar
    29    36    37   ar
    30    37    38   ar
    31    38    39    1
    32    38    40   ar
    33    28    29   ar
    34    29    30    1
    35    29    31   ar
    36    13    14   ar
    37    14    15   ar
    38    15    16   ar
    39    16     3    1
    40    16     7   ar
    41    14     9   ar
    42    31    25   ar
    43    40    34   ar
    44    23    24    1
@<TRIPOS>MOLECULE
*****
 40 44 0 0 0
SMALL
GASTEIGER

@<TRIPOS>ATOM
      1 C           6.4593   -2.1019   28.8301 C.2     1  UNL1        0.2528
      2 O           6.5147   -1.7883   27.3643 O.2     1  UNL1       -0.2696
      3 N           6.7881   -3.4828   29.3147 N.am    1  UNL1       -0.2486
      4 C           6.7328   -3.7964   30.7805 C.3     1  UNL1        0.1458
      5 C           7.0616   -5.1773   31.2650 C.3     1  UNL1        0.2272
      6 O           7.4458   -6.2448   30.2837 O.3     1  UNL1       -0.4723
      7 C           7.5012   -5.9313   28.8180 C.ar    1  UNL1        0.1537
      8 C           7.8854   -6.9987   27.8366 C.ar    1  UNL1        0.0574
      9 C           7.9408   -6.6852   26.3708 C.ar    1  UNL1        0.0888
     10 N           8.3250   -7.7527   25.3895 N.ar    1  UNL1       -0.2238
     11 C           8.3803   -7.4391   23.9237 C.ar    1  UNL1        0.2000
     12 N           8.0515   -6.0582   23.4391 N.ar    1  UNL1       -0.2089
     13 C           7.6673   -4.9907   24.4204 C.ar    1  UNL1        0.1353
     14 C           7.6119   -5.3042   25.8863 C.ar    1  UNL1        0.0509
     15 C           7.2277   -4.2368   26.8675 C.ar    1  UNL1        0.0223
     16 C           7.1723   -4.5503   28.3334 C.ar    1  UNL1        0.0885
     17 C           4.6413   -0.8739   30.2219 C.2     1  UNL1       -0.0041
     18 C           6.0751   -1.0344   29.8114 C.2     1  UNL1        0.0551
     19 C           4.2572    0.1936   31.2032 C.3     1  UNL1        0.0991
     20 C           3.5466    0.8894   33.6034 C.3     1  UNL1        0.0899
     21 N           4.0160   -0.1607   32.6407 N.3     1  UNL1       -0.2665
     22 C           4.2442   -1.5653   33.1154 C.3     1  UNL1        0.0899
     23 N           7.3384   -3.6098   23.9359 N.pl3   1  UNL1       -0.2978
     24 H           7.6544   -2.8238   24.4376 H       1  UNL1        0.1536
     25 C           6.5282   -3.4262   22.6870 C.ar    1  UNL1        0.0504
     26 C           5.0392   -3.6033   22.7262 C.ar    1  UNL1        0.0178
     27 C           4.2290   -3.4198   21.4773 C.ar    1  UNL1        0.0391
     28 C           4.9077   -3.0592   20.1891 C.ar    1  UNL1        0.1496
     29 C           6.3967   -2.8821   20.1499 C.ar    1  UNL1        0.0928
     30 CL          7.0755   -2.5215   18.8618 Cl      1  UNL1       -0.0790
     31 C           7.2070   -3.0657   21.3989 C.ar    1  UNL1        0.0291
     32 O           4.0975   -2.8757   18.9402 O.3     1  UNL1       -0.4698
     33 C           3.9084   -1.5039   18.3636 C.3     1  UNL1        0.2321
     34 C           2.7805   -0.6383   18.8417 C.ar    1  UNL1        0.0234
     35 C           1.8616   -1.1315   19.9198 C.ar    1  UNL1       -0.0005
     36 C           0.7336   -0.2659   20.3979 C.ar    1  UNL1        0.0021
     37 C           0.5247    1.0929   19.7979 C.ar    1  UNL1        0.0296
     38 C           1.4436    1.5861   18.7198 C.ar    1  UNL1        0.1399
     39 F           1.2346    2.9449   18.1198 F       1  UNL1       -0.2042
     40 C           2.5715    0.7205   18.2417 C.ar    1  UNL1        0.0289
@<TRIPOS>BOND
     1    20    21    1
     2    21    22    1
     3    21    19    1
     4    19    17    1
     5    17    18    2
     6    18     1    1
     7     1     2    2
     8     1     3   am
     9     3     4    1
    10     4     5    1
    11     5     6    1
    12     6     7    1
    13     7     8   ar
    14     8     9   ar
    15     9    10   ar
    16    10    11   ar
    17    11    12   ar
    18    12    13   ar
    19    13    23    1
    20    23    25    1
    21    25    26   ar
    22    26    27   ar
    23    27    28   ar
    24    28    32    1
    25    32    33    1
    26    33    34    1
    27    34    35   ar
    28    35    36   ar
    29    36    37   ar
    30    37    38   ar
    31    38    39    1
    32    38    40   ar
    33    28    29   ar
    34    29    30    1
    35    29    31   ar
    36    13    14   ar
    37    14    15   ar
    38    15    16   ar
    39    16     3    1
    40    16     7   ar
    41    14     9   ar
    42    31    25   ar
    43    40    34   ar
    44    23    24    1
@<TRIPOS>MOLECULE
*****
 40 44 0 0 0
SMALL
GASTEIGER

@<TRIPOS>ATOM
      1 C           5.2387   -1.7288   28.5151 C.2     1  UNL1        0.2528
      2 O           4.9401   -1.6459   27.0475 O.2     1  UNL1       -0.2696
      3 N           6.1866   -2.7713   29.0299 N.am    1  UNL1       -0.2486
      4 C           6.4852   -2.8542   30.4975 C.3     1  UNL1        0.1458
      5 C           7.4330   -3.8966   31.0123 C.3     1  UNL1        0.2272
      6 O           8.0822   -4.8561   30.0595 O.3     1  UNL1       -0.4723
      7 C           7.7836   -4.7731   28.5919 C.ar    1  UNL1        0.1537
      8 C           8.4328   -5.7326   27.6390 C.ar    1  UNL1        0.0574
      9 C           8.1342   -5.6497   26.1714 C.ar    1  UNL1        0.0888
     10 N           8.7834   -6.6092   25.2185 N.ar    1  UNL1       -0.2238
     11 C           8.4848   -6.5263   23.7509 C.ar    1  UNL1        0.2000
     12 N           7.5370   -5.4839   23.2361 N.ar    1  UNL1       -0.2089
     13 C           6.8878   -4.5244   24.1889 C.ar    1  UNL1        0.1353
     14 C           7.1864   -4.6073   25.6566 C.ar    1  UNL1        0.0509
     15 C           6.5372   -3.6478   26.6094 C.ar    1  UNL1        0.0223
     16 C           6.8358   -3.7307   28.0771 C.ar    1  UNL1        0.0885
     17 C           3.0966   -0.6252   29.4862 C.2     1  UNL1       -0.0041
     18 C           4.5895   -0.7694   29.4679 C.2     1  UNL1        0.0551
     19 C           2.4474    0.3344   30.4391 C.3     1  UNL1        0.0991
     20 C           0.2223    0.1898   29.1056 C.3     1  UNL1        0.0899
     21 N           1.0597    0.8359   30.1693 N.3     1  UNL1       -0.2665
     22 C           0.5093    1.9835   30.9632 C.3     1  UNL1        0.0899
     23 N           5.9400   -3.4820   23.6741 N.pl3   1  UNL1       -0.2978
     24 H           5.3593   -2.9923   24.3005 H       1  UNL1        0.1536
     25 C           5.8768   -3.1857   22.2051 C.ar    1  UNL1        0.0504
     26 C           6.9186   -2.3128   21.5705 C.ar    1  UNL1        0.0178
     27 C           6.8554   -2.0165   20.1015 C.ar    1  UNL1        0.0391
     28 C           5.7504   -2.5931   19.2669 C.ar    1  UNL1        0.1496
     29 C           4.7086   -3.4660   19.9014 C.ar    1  UNL1        0.0928
     30 CL          3.6036   -4.0426   19.0669 Cl      1  UNL1       -0.0790
     31 C           4.7718   -3.7623   21.3706 C.ar    1  UNL1        0.0291
     32 O           5.6872   -2.2968   17.7978 O.3     1  UNL1       -0.4698
     33 C           5.7793   -0.8801   17.3138 C.3     1  UNL1        0.2321
     34 C           4.7694    0.1335   17.7640 C.ar    1  UNL1        0.0234
     35 C           5.2200    1.4885   18.2232 C.ar    1  UNL1       -0.0005
     36 C           4.2099    2.5020   18.6735 C.ar    1  UNL1        0.0021
     37 C           2.7494    2.1605   18.6645 C.ar    1  UNL1        0.0296
     38 C           2.2988    0.8055   18.2053 C.ar    1  UNL1        0.1399
     39 F           0.8381    0.4640   18.1964 F       1  UNL1       -0.2042
     40 C           3.3087   -0.2080   17.7551 C.ar    1  UNL1        0.0289
@<TRIPOS>BOND
     1    20    21    1
     2    21    22    1
     3    21    19    1
     4    19    17    1
     5    17    18    2
     6    18     1    1
     7     1     2    2
     8     1     3   am
     9     3     4    1
    10     4     5    1
    11     5     6    1
    12     6     7    1
    13     7     8   ar
    14     8     9   ar
    15     9    10   ar
    16    10    11   ar
    17    11    12   ar
    18    12    13   ar
    19    13    23    1
    20    23    25    1
    21    25    26   ar
    22    26    27   ar
    23    27    28   ar
    24    28    32    1
    25    32    33    1
    26    33    34    1
    27    34    35   ar
    28    35    36   ar
    29    36    37   ar
    30    37    38   ar
    31    38    39    1
    32    38    40   ar
    33    28    29   ar
    34    29    30    1
    35    29    31   ar
    36    13    14   ar
    37    14    15   ar
    38    15    16   ar
    39    16     3    1
    40    16     7   ar
    41    14     9   ar
    42    31    25   ar
    43    40    34   ar
    44    23    24    1
@<TRIPOS>MOLECULE
*****
 40 44 0 0 0
SMALL
GASTEIGER

@<TRIPOS>ATOM
      1 C          -0.3633    2.7492   19.3831 C.2     1  UNL1        0.2528
      2 O          -1.1765    2.2366   20.5346 O.2     1  UNL1       -0.2696
      3 N          -0.9210    3.8146   18.4866 N.am    1  UNL1       -0.2486
      4 C          -0.1079    4.3273   17.3351 C.3     1  UNL1        0.1458
      5 C          -0.6656    5.3927   16.4385 C.3     1  UNL1        0.2272
      6 O          -2.0365    5.9455   16.6934 O.3     1  UNL1       -0.4723
      7 C          -2.8497    5.4329   17.8449 C.ar    1  UNL1        0.1537
      8 C          -4.2206    5.9857   18.0999 C.ar    1  UNL1        0.0574
      9 C          -5.0338    5.4730   19.2513 C.ar    1  UNL1        0.0888
     10 N          -6.4048    6.0258   19.5063 N.ar    1  UNL1       -0.2238
     11 C          -7.2179    5.5132   20.6578 C.ar    1  UNL1        0.2000
     12 N          -6.6602    4.4478   21.5543 N.ar    1  UNL1       -0.2089
     13 C          -5.2893    3.8950   21.2994 C.ar    1  UNL1        0.1353
     14 C          -4.4761    4.4076   20.1479 C.ar    1  UNL1        0.0509
     15 C          -3.1052    3.8548   19.8930 C.ar    1  UNL1        0.0223
     16 C          -2.2919    4.3674   18.7415 C.ar    1  UNL1        0.0885
     17 C           1.1662    0.8630   18.4597 C.2     1  UNL1       -0.0041
     18 C           1.0076    2.1964   19.1282 C.2     1  UNL1        0.0551
     19 C           2.5372    0.3102   18.2048 C.3     1  UNL1        0.0991
     20 C           2.4864   -1.1733   20.3371 C.3     1  UNL1        0.0899
     21 N           3.0118   -0.8959   18.9598 N.3     1  UNL1       -0.2665
     22 C           4.0119   -1.8247   18.3374 C.3     1  UNL1        0.0899
     23 N          -4.7316    2.8296   22.1960 N.pl3   1  UNL1       -0.2978
     24 H          -4.8607    1.8798   21.9712 H       1  UNL1        0.1536
     25 C          -3.9772    3.2112   23.4350 C.ar    1  UNL1        0.0504
     26 C          -2.4772    3.2074   23.4309 C.ar    1  UNL1        0.0178
     27 C          -1.7228    3.5890   24.6699 C.ar    1  UNL1        0.0391
     28 C          -2.4685    3.9745   25.9132 C.ar    1  UNL1        0.1496
     29 C          -3.9684    3.9783   25.9173 C.ar    1  UNL1        0.0928
     30 CL         -4.7141    4.3638   27.1604 Cl      1  UNL1       -0.0790
     31 C          -4.7228    3.5967   24.6781 C.ar    1  UNL1        0.0291
     32 O          -1.7141    4.3561   27.1522 O.3     1  UNL1       -0.4698
     33 C          -0.2852    3.9319   27.3209 C.3     1  UNL1        0.2321
     34 C           0.0338    2.5691   27.8601 C.ar    1  UNL1        0.0234
     35 C           1.4165    2.2630   28.3547 C.ar    1  UNL1       -0.0005
     36 C           1.7355    0.9001   28.8939 C.ar    1  UNL1        0.0021
     37 C           0.6720   -0.1567   28.9386 C.ar    1  UNL1        0.0296
     38 C          -0.7107    0.1494   28.4440 C.ar    1  UNL1        0.1399
     39 F          -1.7743   -0.9074   28.4887 F       1  UNL1       -0.2042
     40 C          -1.0298    1.5122   27.9048 C.ar    1  UNL1        0.0289
@<TRIPOS>BOND
     1    20    21    1
     2    21    22    1
     3    21    19    1
     4    19    17    1
     5    17    18    2
     6    18     1    1
     7     1     2    2
     8     1     3   am
     9     3     4    1
    10     4     5    1
    11     5     6    1
    12     6     7    1
    13     7     8   ar
    14     8     9   ar
    15     9    10   ar
    16    10    11   ar
    17    11    12   ar
    18    12    13   ar
    19    13    23    1
    20    23    25    1
    21    25    26   ar
    22    26    27   ar
    23    27    28   ar
    24    28    32    1
    25    32    33    1
    26    33    34    1
    27    34    35   ar
    28    35    36   ar
    29    36    37   ar
    30    37    38   ar
    31    38    39    1
    32    38    40   ar
    33    28    29   ar
    34    29    30    1
    35    29    31   ar
    36    13    14   ar
    37    14    15   ar
    38    15    16   ar
    39    16     3    1
    40    16     7   ar
    41    14     9   ar
    42    31    25   ar
    43    40    34   ar
    44    23    24    1
@<TRIPOS>MOLECULE
*****
 40 44 0 0 0
SMALL
GASTEIGER

@<TRIPOS>ATOM
      1 C           0.3993    1.8652   25.6274 C.2     1  UNL1        0.2528
      2 O           1.6870    1.9611   24.8642 O.2     1  UNL1       -0.2696
      3 N           0.3678    1.1826   26.9627 N.am    1  UNL1       -0.2486
      4 C          -0.9199    1.0867   27.7259 C.3     1  UNL1        0.1458
      5 C          -0.9513    0.4040   29.0612 C.3     1  UNL1        0.2272
      6 O           0.3050   -0.1828   29.6332 O.3     1  UNL1       -0.4723
      7 C           1.5927   -0.0869   28.8700 C.ar    1  UNL1        0.1537
      8 C           2.8491   -0.6737   29.4421 C.ar    1  UNL1        0.0574
      9 C           4.1368   -0.5778   28.6789 C.ar    1  UNL1        0.0888
     10 N           5.3932   -1.1646   29.2510 N.ar    1  UNL1       -0.2238
     11 C           6.6810   -1.0688   28.4878 C.ar    1  UNL1        0.2000
     12 N           6.7124   -0.3861   27.1525 N.ar    1  UNL1       -0.2089
     13 C           5.4561    0.2007   26.5804 C.ar    1  UNL1        0.1353
     14 C           4.1683    0.1048   27.3436 C.ar    1  UNL1        0.0509
     15 C           2.9120    0.6916   26.7716 C.ar    1  UNL1        0.0223
     16 C           1.6241    0.5958   27.5348 C.ar    1  UNL1        0.0885
     17 C          -0.8223    3.1490   23.7275 C.2     1  UNL1       -0.0041
     18 C          -0.8570    2.4520   25.0553 C.2     1  UNL1        0.0551
     19 C          -2.0787    3.7358   23.1555 C.3     1  UNL1        0.0991
     20 C          -4.0036    3.3102   21.4632 C.3     1  UNL1        0.0899
     21 N          -2.5389    3.3325   21.7859 N.3     1  UNL1       -0.2665
     22 C          -1.5344    2.9516   20.7391 C.3     1  UNL1        0.0899
     23 N           5.4875    0.8834   25.2452 N.pl3   1  UNL1       -0.2978
     24 H           5.4771    1.8665   25.1946 H       1  UNL1        0.1536
     25 C           5.5347    0.0681   23.9870 C.ar    1  UNL1        0.0504
     26 C           6.1029    0.6595   22.7310 C.ar    1  UNL1        0.0178
     27 C           6.1502   -0.1557   21.4728 C.ar    1  UNL1        0.0391
     28 C           5.6292   -1.5624   21.4705 C.ar    1  UNL1        0.1496
     29 C           5.0610   -2.1538   22.7265 C.ar    1  UNL1        0.0928
     30 CL          4.5401   -3.5604   22.7242 Cl      1  UNL1       -0.0790
     31 C           5.0138   -1.3385   23.9847 C.ar    1  UNL1        0.0291
     32 O           5.6764   -2.3777   20.2123 O.3     1  UNL1       -0.4698
     33 C           4.4449   -2.5279   19.3693 C.3     1  UNL1        0.2321
     34 C           3.4880   -1.3814   19.2284 C.ar    1  UNL1        0.0234
     35 C           3.8079   -0.2472   18.3003 C.ar    1  UNL1       -0.0005
     36 C           2.8510    0.8993   18.1594 C.ar    1  UNL1        0.0021
     37 C           1.5742    0.9116   18.9465 C.ar    1  UNL1        0.0296
     38 C           1.2543   -0.2225   19.8746 C.ar    1  UNL1        0.1399
     39 F          -0.0226   -0.2102   20.6618 F       1  UNL1       -0.2042
     40 C           2.2112   -1.3690   20.0155 C.ar    1  UNL1        0.0289
@<TRIPOS>BOND
     1    20    21    1
     2    21    22    1
     3    21    19    1
     4    19    17    1
     5    17    18    2
     6    18     1    1
     7     1     2    2
     8     1     3   am
     9     3     4    1
    10     4     5    1
    11     5     6    1
    12     6     7    1
    13     7     8   ar
    14     8     9   ar
    15     9    10   ar
    16    10    11   ar
    17    11    12   ar
    18    12    13   ar
    19    13    23    1
    20    23    25    1
    21    25    26   ar
    22    26    27   ar
    23    27    28   ar
    24    28    32    1
    25    32    33    1
    26    33    34    1
    27    34    35   ar
    28    35    36   ar
    29    36    37   ar
    30    37    38   ar
    31    38    39    1
    32    38    40   ar
    33    28    29   ar
    34    29    30    1
    35    29    31   ar
    36    13    14   ar
    37    14    15   ar
    38    15    16   ar
    39    16     3    1
    40    16     7   ar
    41    14     9   ar
    42    31    25   ar
    43    40    34   ar
    44    23    24    1
@<TRIPOS>MOLECULE
*****
 40 44 0 0 0
SMALL
GASTEIGER

@<TRIPOS>ATOM
      1 C           4.3226   -1.0927   28.6347 C.2     1  UNL1        0.2528
      2 O           4.3716   -1.8605   27.3471 O.2     1  UNL1       -0.2696
      3 N           5.2843   -1.4179   29.7390 N.am    1  UNL1       -0.2486
      4 C           5.2352   -0.6501   31.0266 C.3     1  UNL1        0.1458
      5 C           6.1969   -0.9754   32.1309 C.3     1  UNL1        0.2272
      6 O           7.2076   -2.0684   31.9475 O.3     1  UNL1       -0.4723
      7 C           7.2567   -2.8362   30.6599 C.ar    1  UNL1        0.1537
      8 C           8.2675   -3.9293   30.4764 C.ar    1  UNL1        0.0574
      9 C           8.3165   -4.6970   29.1888 C.ar    1  UNL1        0.0888
     10 N           9.3273   -5.7901   29.0054 N.ar    1  UNL1       -0.2238
     11 C           9.3764   -6.5579   27.7177 C.ar    1  UNL1        0.2000
     12 N           8.4147   -6.2327   26.6135 N.ar    1  UNL1       -0.2089
     13 C           7.4039   -5.1397   26.7968 C.ar    1  UNL1        0.1353
     14 C           7.3548   -4.3718   28.0845 C.ar    1  UNL1        0.0509
     15 C           6.3441   -3.2788   28.2679 C.ar    1  UNL1        0.0223
     16 C           6.2950   -2.5109   29.5556 C.ar    1  UNL1        0.0885
     17 C           1.8899   -0.3413   29.1516 C.2     1  UNL1       -0.0041
     18 C           3.3118    0.0003   28.8181 C.2     1  UNL1        0.0551
     19 C           0.8791    0.7518   29.3350 C.3     1  UNL1        0.0991
     20 C          -1.3725   -0.4560   28.8645 C.3     1  UNL1        0.0899
     21 N          -0.4345    0.6873   28.6137 N.3     1  UNL1       -0.2665
     22 C          -0.8101    1.7662   27.6415 C.3     1  UNL1        0.0899
     23 N           6.4423   -4.8144   25.6926 N.pl3   1  UNL1       -0.2978
     24 H           5.5180   -5.1515   25.7296 H       1  UNL1        0.1536
     25 C           6.8888   -3.9756   24.5320 C.ar    1  UNL1        0.0504
     26 C           6.6575   -2.4936   24.5448 C.ar    1  UNL1        0.0178
     27 C           7.1040   -1.6548   23.3842 C.ar    1  UNL1        0.0391
     28 C           7.7818   -2.2980   22.2107 C.ar    1  UNL1        0.1496
     29 C           8.0131   -3.7801   22.1979 C.ar    1  UNL1        0.0928
     30 CL          8.6908   -4.4233   21.0246 Cl      1  UNL1       -0.0790
     31 C           7.5665   -4.6189   23.3586 C.ar    1  UNL1        0.0291
     32 O           8.2283   -1.4593   21.0501 O.3     1  UNL1       -0.4698
     33 C           7.2570   -1.1045   19.9635 C.3     1  UNL1        0.2321
     34 C           5.9777   -1.8744   19.8203 C.ar    1  UNL1        0.0234
     35 C           4.7034   -1.3239   20.3885 C.ar    1  UNL1       -0.0005
     36 C           3.4240   -2.0939   20.2453 C.ar    1  UNL1        0.0021
     37 C           3.4191   -3.4144   19.5339 C.ar    1  UNL1        0.0296
     38 C           4.6935   -3.9650   18.9657 C.ar    1  UNL1        0.1399
     39 F           4.6885   -5.2856   18.2543 F       1  UNL1       -0.2042
     40 C           5.9728   -3.1951   19.1089 C.ar    1  UNL1        0.0289
@<TRIPOS>BOND
     1    20    21    1
     2    21    22    1
     3    21    19    1
     4    19    17    1
     5    17    18    2
     6    18     1    1
     7     1     2    2
     8     1     3   am
     9     3     4    1
    10     4     5    1
    11     5     6    1
    12     6     7    1
    13     7     8   ar
    14     8     9   ar
    15     9    10   ar
    16    10    11   ar
    17    11    12   ar
    18    12    13   ar
    19    13    23    1
    20    23    25    1
    21    25    26   ar
    22    26    27   ar
    23    27    28   ar
    24    28    32    1
    25    32    33    1
    26    33    34    1
    27    34    35   ar
    28    35    36   ar
    29    36    37   ar
    30    37    38   ar
    31    38    39    1
    32    38    40   ar
    33    28    29   ar
    34    29    30    1
    35    29    31   ar
    36    13    14   ar
    37    14    15   ar
    38    15    16   ar
    39    16     3    1
    40    16     7   ar
    41    14     9   ar
    42    31    25   ar
    43    40    34   ar
    44    23    24    1
