@<TRIPOS>MOLECULE
*****
 28 31 0 0 0
SMALL
GASTEIGER

@<TRIPOS>ATOM
      1 N1        -14.0840   -8.6622   18.8583 N.pl3   1  <1>        -0.3546
      2 C1        -14.5874   -7.2498   18.8979 C.ar    1  <1>         0.0791
      3 C2        -13.7403   -6.0123   18.9269 C.ar    1  <1>         0.1156
      4 N2        -14.6557   -4.8246   18.9624 N.ar    1  <1>        -0.1621
      5 N3        -16.0687   -5.3280   18.9554 N.ar    1  <1>        -0.2054
      6 C3        -16.0265   -6.8270   18.9156 C.ar    1  <1>         0.0992
      7 H1        -13.1156   -8.8395   18.8493 H       1  <1>         0.1424
      8 H2        -14.7219   -9.4119   18.8413 H       1  <1>         0.1424
      9 C4        -12.2408   -5.9699   18.9213 C.ar    1  <1>         0.0206
     10 C5        -11.5269   -4.6596   19.0742 C.ar    1  <1>         0.0016
     11 C6        -10.0276   -4.6173   19.0686 C.ar    1  <1>         0.0000
     12 C7         -9.2421   -5.8853   18.9100 C.ar    1  <1>         0.0000
     13 C8         -9.9559   -7.1956   18.7571 C.ar    1  <1>         0.0000
     14 C9        -11.4553   -7.2379   18.7627 C.ar    1  <1>         0.0016
     15 C10       -17.2147   -7.7423   18.8967 C.ar    1  <1>         0.0190
     16 C11       -17.5575   -8.5006   17.6487 C.ar    1  <1>         0.0015
     17 C12       -18.7457   -9.4159   17.6298 C.ar    1  <1>         0.0000
     18 C13       -19.5911   -9.5729   18.8589 C.ar    1  <1>         0.0000
     19 C14       -19.2483   -8.8145   20.1069 C.ar    1  <1>         0.0000
     20 C15       -18.0601   -7.8992   20.1258 C.ar    1  <1>         0.0015
     21 C16       -17.3065   -4.4813   18.9833 C.ar    1  <1>         0.1954
     22 N4        -17.7756   -3.6432   20.1355 N.ar    1  <1>        -0.2192
     23 C17       -19.0516   -2.9679   19.7283 C.ar    1  <1>         0.1039
     24 C18       -19.3711   -3.3887   18.3244 C.ar    1  <1>         0.0587
     25 S1        -18.2926   -4.3240   17.8641 S.2     1  <1>        -0.0466
     26 C19       -19.8652   -2.0356   20.5761 C.2     1  <1>         0.0911
     27 O1        -20.0806   -2.3383   22.0293 O.co2   1  <1>        -0.5430
     28 O2        -20.4634   -0.8004   19.9706 O.co2   1  <1>        -0.5430
@<TRIPOS>UNITY_ATOM_ATTR
27 1
charge -1
@<TRIPOS>BOND
     1     1     2    1
     2     2     3   ar
     3     3     9    1
     4     9    10   ar
     5    10    11   ar
     6    11    12   ar
     7    12    13   ar
     8    13    14   ar
     9     3     4   ar
    10     4     5   ar
    11     5    21    1
    12    21    22   ar
    13    22    23   ar
    14    23    26    1
    15    26    27   ar
    16    26    28   ar
    17    23    24   ar
    18    24    25   ar
    19     5     6   ar
    20     6    15    1
    21    15    16   ar
    22    16    17   ar
    23    17    18   ar
    24    18    19   ar
    25    19    20   ar
    26     6     2   ar
    27    20    15   ar
    28    14     9   ar
    29    25    21   ar
    30     1     7    1
    31     1     8    1
@<TRIPOS>MOLECULE
*****
 28 31 0 0 0
SMALL
GASTEIGER

@<TRIPOS>ATOM
      1 N1         -5.8929  -20.1336   20.1286 N.pl3   1  <1>        -0.3546
      2 C1         -5.8341  -19.0318   21.1448 C.ar    1  <1>         0.0791
      3 C2         -4.6335  -18.1918   21.4659 C.ar    1  <1>         0.1156
      4 N2         -5.0229  -17.2174   22.5377 N.ar    1  <1>        -0.1621
      5 N3         -6.4641  -17.4551   22.8790 N.ar    1  <1>        -0.2054
      6 C3         -6.9654  -18.5766   22.0181 C.ar    1  <1>         0.0992
      7 H1         -5.0931  -20.3601   19.6012 H       1  <1>         0.1424
      8 H2         -6.7314  -20.6304   19.9892 H       1  <1>         0.1424
      9 C4         -3.2810  -18.3062   20.8273 C.ar    1  <1>         0.0206
     10 C5         -3.1186  -18.0347   19.3611 C.ar    1  <1>         0.0016
     11 C6         -1.7661  -18.1491   18.7225 C.ar    1  <1>         0.0000
     12 C7         -0.5762  -18.5350   19.5502 C.ar    1  <1>         0.0000
     13 C8         -0.7386  -18.8064   21.0165 C.ar    1  <1>         0.0000
     14 C9         -2.0911  -18.6920   21.6550 C.ar    1  <1>         0.0016
     15 C10        -8.3543  -19.1432   22.0287 C.ar    1  <1>         0.0190
     16 C11        -9.2309  -19.0024   20.8197 C.ar    1  <1>         0.0015
     17 C12       -10.6198  -19.5690   20.8303 C.ar    1  <1>         0.0000
     18 C13       -11.1319  -20.2764   22.0498 C.ar    1  <1>         0.0000
     19 C14       -10.2552  -20.4171   23.2588 C.ar    1  <1>         0.0000
     20 C15        -8.8664  -19.8505   23.2482 C.ar    1  <1>         0.0015
     21 C16        -7.2636  -16.7035   23.9017 C.ar    1  <1>         0.1954
     22 N4         -6.7780  -16.2629   25.2508 N.ar    1  <1>        -0.2192
     23 C17        -7.9033  -15.5476   25.9377 C.ar    1  <1>         0.1039
     24 C18        -9.0845  -15.5460   25.0131 C.ar    1  <1>         0.0587
     25 S1         -8.6891  -16.2604   23.7548 S.2     1  <1>        -0.0466
     26 C19        -7.8558  -14.9404   27.3085 C.2     1  <1>         0.0911
     27 O1         -9.1289  -14.5622   28.0057 O.co2   1  <1>        -0.5430
     28 O2         -6.5352  -14.7115   27.9820 O.co2   1  <1>        -0.5430
@<TRIPOS>UNITY_ATOM_ATTR
27 1
charge -1
@<TRIPOS>BOND
     1     1     2    1
     2     2     3   ar
     3     3     9    1
     4     9    10   ar
     5    10    11   ar
     6    11    12   ar
     7    12    13   ar
     8    13    14   ar
     9     3     4   ar
    10     4     5   ar
    11     5    21    1
    12    21    22   ar
    13    22    23   ar
    14    23    26    1
    15    26    27   ar
    16    26    28   ar
    17    23    24   ar
    18    24    25   ar
    19     5     6   ar
    20     6    15    1
    21    15    16   ar
    22    16    17   ar
    23    17    18   ar
    24    18    19   ar
    25    19    20   ar
    26     6     2   ar
    27    20    15   ar
    28    14     9   ar
    29    25    21   ar
    30     1     7    1
    31     1     8    1
@<TRIPOS>MOLECULE
*****
 28 31 0 0 0
SMALL
GASTEIGER

@<TRIPOS>ATOM
      1 N1         -3.7109  -16.2835   24.0964 N.pl3   1  <1>        -0.3546
      2 C1         -4.7369  -16.9943   23.2645 C.ar    1  <1>         0.0791
      3 C2         -4.4705  -17.7675   22.0070 C.ar    1  <1>         0.1156
      4 N2         -5.7782  -18.3079   21.5093 N.ar    1  <1>        -0.1621
      5 N3         -6.8529  -17.8686   22.4591 N.ar    1  <1>        -0.2054
      6 C3         -6.2093  -17.0568   23.5439 C.ar    1  <1>         0.0992
      7 H1         -2.7634  -16.2998   23.8296 H       1  <1>         0.1424
      8 H2         -3.9851  -15.8005   24.9094 H       1  <1>         0.1424
      9 C4         -3.1313  -17.9656   21.3607 C.ar    1  <1>         0.0206
     10 C5         -2.6631  -19.3477   21.0138 C.ar    1  <1>         0.0016
     11 C6         -1.3240  -19.5458   20.3675 C.ar    1  <1>         0.0000
     12 C7         -0.4532  -18.3616   20.0683 C.ar    1  <1>         0.0000
     13 C8         -0.9215  -16.9795   20.4152 C.ar    1  <1>         0.0000
     14 C9         -2.2605  -16.7815   21.0615 C.ar    1  <1>         0.0016
     15 C10        -6.9143  -16.4194   24.7044 C.ar    1  <1>         0.0190
     16 C11        -8.3080  -15.8907   24.5367 C.ar    1  <1>         0.0015
     17 C12        -9.0130  -15.2533   25.6971 C.ar    1  <1>         0.0000
     18 C13        -8.3243  -15.1445   27.0252 C.ar    1  <1>         0.0000
     19 C14        -6.9305  -15.6732   27.1929 C.ar    1  <1>         0.0000
     20 C15        -6.2255  -16.3106   26.0325 C.ar    1  <1>         0.0015
     21 C16        -8.3145  -18.1855   22.3443 C.ar    1  <1>         0.1954
     22 N4         -9.3071  -17.4673   21.4790 N.ar    1  <1>        -0.2192
     23 C17       -10.6462  -18.1142   21.6746 C.ar    1  <1>         0.1039
     24 C18       -10.4813  -19.2322   22.6609 C.ar    1  <1>         0.0587
     25 S1         -9.0402  -19.2763   23.0748 S.2     1  <1>        -0.0466
     26 C19       -11.9257  -17.7134   21.0020 C.2     1  <1>         0.0911
     27 O1        -11.9000  -17.1709   19.6038 O.co2   1  <1>        -0.5430
     28 O2        -13.2308  -17.8551   21.7277 O.co2   1  <1>        -0.5430
@<TRIPOS>UNITY_ATOM_ATTR
27 1
charge -1
@<TRIPOS>BOND
     1     1     2    1
     2     2     3   ar
     3     3     9    1
     4     9    10   ar
     5    10    11   ar
     6    11    12   ar
     7    12    13   ar
     8    13    14   ar
     9     3     4   ar
    10     4     5   ar
    11     5    21    1
    12    21    22   ar
    13    22    23   ar
    14    23    26    1
    15    26    27   ar
    16    26    28   ar
    17    23    24   ar
    18    24    25   ar
    19     5     6   ar
    20     6    15    1
    21    15    16   ar
    22    16    17   ar
    23    17    18   ar
    24    18    19   ar
    25    19    20   ar
    26     6     2   ar
    27    20    15   ar
    28    14     9   ar
    29    25    21   ar
    30     1     7    1
    31     1     8    1
@<TRIPOS>MOLECULE
*****
 28 31 0 0 0
SMALL
GASTEIGER

@<TRIPOS>ATOM
      1 N1          6.1194   -3.3420   25.6021 N.pl3   1  <1>        -0.3546
      2 C1          6.3425   -3.5189   24.1294 C.ar    1  <1>         0.0791
      3 C2          7.1004   -4.6391   23.4807 C.ar    1  <1>         0.1156
      4 N2          7.0732   -4.4192   21.9972 N.ar    1  <1>        -0.1621
      5 N3          6.2986   -3.1630   21.7290 N.ar    1  <1>        -0.2054
      6 C3          5.8469   -2.6066   23.0468 C.ar    1  <1>         0.0992
      7 H1          6.4864   -3.9980   26.2379 H       1  <1>         0.1424
      8 H2          5.6058   -2.5700   25.9329 H       1  <1>         0.1424
      9 C4          7.7682   -5.7792   24.1910 C.ar    1  <1>         0.0206
     10 C5          7.4074   -6.0914   25.6130 C.ar    1  <1>         0.0016
     11 C6          8.0752   -7.2314   26.3232 C.ar    1  <1>         0.0000
     12 C7          9.1038   -8.0592   25.6113 C.ar    1  <1>         0.0000
     13 C8          9.4646   -7.7470   24.1893 C.ar    1  <1>         0.0000
     14 C9          8.7968   -6.6070   23.4791 C.ar    1  <1>         0.0016
     15 C10         5.0413   -1.3572   23.2467 C.ar    1  <1>         0.0190
     16 C11         3.5478   -1.4382   23.3616 C.ar    1  <1>         0.0015
     17 C12         2.7422   -0.1889   23.5616 C.ar    1  <1>         0.0000
     18 C13         3.4299    1.1414   23.6467 C.ar    1  <1>         0.0000
     19 C14         4.9233    1.2224   23.5318 C.ar    1  <1>         0.0000
     20 C15         5.7290   -0.0269   23.3318 C.ar    1  <1>         0.0015
     21 C16         6.0238   -2.5677   20.3798 C.ar    1  <1>         0.1954
     22 N4          4.7080   -2.0241   19.9074 N.ar    1  <1>        -0.2192
     23 C17         4.8875   -1.5320   18.5019 C.ar    1  <1>         0.1039
     24 C18         6.3143   -1.7715   18.1056 C.ar    1  <1>         0.0587
     25 S1          7.0165   -2.4116   19.2662 S.2     1  <1>        -0.0466
     26 C19         3.8266   -0.9097   17.6434 C.2     1  <1>         0.0911
     27 O1          3.8638   -1.0918   16.1549 O.co2   1  <1>        -0.5430
     28 O2          2.7283   -0.1052   18.2733 O.co2   1  <1>        -0.5430
@<TRIPOS>UNITY_ATOM_ATTR
27 1
charge -1
@<TRIPOS>BOND
     1     1     2    1
     2     2     3   ar
     3     3     9    1
     4     9    10   ar
     5    10    11   ar
     6    11    12   ar
     7    12    13   ar
     8    13    14   ar
     9     3     4   ar
    10     4     5   ar
    11     5    21    1
    12    21    22   ar
    13    22    23   ar
    14    23    26    1
    15    26    27   ar
    16    26    28   ar
    17    23    24   ar
    18    24    25   ar
    19     5     6   ar
    20     6    15    1
    21    15    16   ar
    22    16    17   ar
    23    17    18   ar
    24    18    19   ar
    25    19    20   ar
    26     6     2   ar
    27    20    15   ar
    28    14     9   ar
    29    25    21   ar
    30     1     7    1
    31     1     8    1
@<TRIPOS>MOLECULE
*****
 28 31 0 0 0
SMALL
GASTEIGER

@<TRIPOS>ATOM
      1 N1          6.9296   -4.0186   23.3608 N.pl3   1  <1>        -0.3546
      2 C1          5.8838   -3.1181   23.9485 C.ar    1  <1>         0.0791
      3 C2          4.6834   -2.5755   23.2312 C.ar    1  <1>         0.1156
      4 N2          3.9125   -1.7242   24.1961 N.ar    1  <1>        -0.1621
      5 N3          4.6365   -1.7407   25.5097 N.ar    1  <1>        -0.2054
      6 C3          5.8549   -2.6022   25.3567 C.ar    1  <1>         0.0992
      7 H1          6.8613   -4.3048   22.4213 H       1  <1>         0.1424
      8 H2          7.6844   -4.3235   23.9146 H       1  <1>         0.1424
      9 C4          4.3180   -2.8381   21.8003 C.ar    1  <1>         0.0206
     10 C5          3.9579   -1.6965   20.8965 C.ar    1  <1>         0.0016
     11 C6          3.5925   -1.9591   19.4656 C.ar    1  <1>         0.0000
     12 C7          3.5872   -3.3635   18.9385 C.ar    1  <1>         0.0000
     13 C8          3.9472   -4.5052   19.8423 C.ar    1  <1>         0.0000
     14 C9          4.3126   -4.2425   21.2732 C.ar    1  <1>         0.0016
     15 C10         6.8667   -2.8961   26.4243 C.ar    1  <1>         0.0190
     16 C11         6.6625   -4.0571   27.3519 C.ar    1  <1>         0.0015
     17 C12         7.6743   -4.3510   28.4196 C.ar    1  <1>         0.0000
     18 C13         8.8902   -3.4840   28.5596 C.ar    1  <1>         0.0000
     19 C14         9.0944   -2.3230   27.6320 C.ar    1  <1>         0.0000
     20 C15         8.0826   -2.0290   26.5644 C.ar    1  <1>         0.0015
     21 C16         4.2160   -1.0218   26.7573 C.ar    1  <1>         0.1954
     22 N4          3.1491   -1.4658   27.7136 N.ar    1  <1>        -0.2192
     23 C17         3.0623   -0.4512   28.8149 C.ar    1  <1>         0.1039
     24 C18         4.0756    0.6199   28.5393 C.ar    1  <1>         0.0587
     25 S1          4.7886    0.2672   27.2676 S.2     1  <1>        -0.0466
     26 C19         2.1266   -0.4993   29.9862 C.2     1  <1>         0.0911
     27 O1          0.6852   -0.1227   29.8106 O.co2   1  <1>        -0.5430
     28 O2          2.6321   -0.9239   31.3332 O.co2   1  <1>        -0.5430
@<TRIPOS>UNITY_ATOM_ATTR
27 1
charge -1
@<TRIPOS>BOND
     1     1     2    1
     2     2     3   ar
     3     3     9    1
     4     9    10   ar
     5    10    11   ar
     6    11    12   ar
     7    12    13   ar
     8    13    14   ar
     9     3     4   ar
    10     4     5   ar
    11     5    21    1
    12    21    22   ar
    13    22    23   ar
    14    23    26    1
    15    26    27   ar
    16    26    28   ar
    17    23    24   ar
    18    24    25   ar
    19     5     6   ar
    20     6    15    1
    21    15    16   ar
    22    16    17   ar
    23    17    18   ar
    24    18    19   ar
    25    19    20   ar
    26     6     2   ar
    27    20    15   ar
    28    14     9   ar
    29    25    21   ar
    30     1     7    1
    31     1     8    1
@<TRIPOS>MOLECULE
*****
 28 31 0 0 0
SMALL
GASTEIGER

@<TRIPOS>ATOM
      1 N1          3.1625    0.7478   18.1738 N.pl3   1  <1>        -0.3546
      2 C1          2.1939    0.8910   19.3102 C.ar    1  <1>         0.0791
      3 C2          2.0703   -0.0333   20.4851 C.ar    1  <1>         0.1156
      4 N2          0.9789    0.4881   21.3722 N.ar    1  <1>        -0.1621
      5 N3          0.4279    1.7346   20.7455 N.ar    1  <1>        -0.2054
      6 C3          1.1789    1.9836   19.4710 C.ar    1  <1>         0.0992
      7 H1          3.7936   -0.0077   18.1572 H       1  <1>         0.1424
      8 H2          3.1672    1.4093   17.4447 H       1  <1>         0.1424
      9 C4          2.8937   -1.2630   20.7300 C.ar    1  <1>         0.0206
     10 C5          3.5349   -1.4820   22.0682 C.ar    1  <1>         0.0016
     11 C6          4.3582   -2.7117   22.3131 C.ar    1  <1>         0.0000
     12 C7          4.5402   -3.7224   21.2197 C.ar    1  <1>         0.0000
     13 C8          3.8990   -3.5034   19.8815 C.ar    1  <1>         0.0000
     14 C9          3.0757   -2.2737   19.6367 C.ar    1  <1>         0.0016
     15 C10         0.9542    3.1248   18.5238 C.ar    1  <1>         0.0190
     16 C11         2.0155    4.1692   18.3428 C.ar    1  <1>         0.0015
     17 C12         1.7909    5.3104   17.3956 C.ar    1  <1>         0.0000
     18 C13         0.5049    5.4071   16.6294 C.ar    1  <1>         0.0000
     19 C14        -0.5564    4.3627   16.8105 C.ar    1  <1>         0.0000
     20 C15        -0.3317    3.2215   17.7577 C.ar    1  <1>         0.0015
     21 C16        -0.6796    2.5831   21.2964 C.ar    1  <1>         0.1954
     22 N4         -2.0919    2.6253   20.7929 N.ar    1  <1>        -0.2192
     23 C17        -2.8543    3.6067   21.6329 C.ar    1  <1>         0.1039
     24 C18        -1.9132    4.1710   22.6555 C.ar    1  <1>         0.0587
     25 S1         -0.5692    3.5384   22.4475 S.2     1  <1>        -0.0466
     26 C19        -4.3034    3.9614   21.4775 C.2     1  <1>         0.0911
     27 O1         -5.3354    3.2940   22.3375 O.co2   1  <1>        -0.5430
     28 O2         -4.7207    4.9837   20.4620 O.co2   1  <1>        -0.5430
@<TRIPOS>UNITY_ATOM_ATTR
27 1
charge -1
@<TRIPOS>BOND
     1     1     2    1
     2     2     3   ar
     3     3     9    1
     4     9    10   ar
     5    10    11   ar
     6    11    12   ar
     7    12    13   ar
     8    13    14   ar
     9     3     4   ar
    10     4     5   ar
    11     5    21    1
    12    21    22   ar
    13    22    23   ar
    14    23    26    1
    15    26    27   ar
    16    26    28   ar
    17    23    24   ar
    18    24    25   ar
    19     5     6   ar
    20     6    15    1
    21    15    16   ar
    22    16    17   ar
    23    17    18   ar
    24    18    19   ar
    25    19    20   ar
    26     6     2   ar
    27    20    15   ar
    28    14     9   ar
    29    25    21   ar
    30     1     7    1
    31     1     8    1
@<TRIPOS>MOLECULE
*****
 28 31 0 0 0
SMALL
GASTEIGER

@<TRIPOS>ATOM
      1 N1          3.4322    0.3044   30.4629 N.pl3   1  <1>        -0.3546
      2 C1          2.7013    1.1621   31.4530 C.ar    1  <1>         0.0791
      3 C2          1.4127    1.8895   31.2074 C.ar    1  <1>         0.1156
      4 N2          1.0457    2.6199   32.4651 N.ar    1  <1>        -0.1621
      5 N3          2.1076    2.3440   33.4879 N.ar    1  <1>        -0.2054
      6 C3          3.1309    1.4430   32.8624 C.ar    1  <1>         0.0992
      7 H1          3.0685    0.1798   29.5566 H       1  <1>         0.1424
      8 H2          4.2756   -0.1339   30.7195 H       1  <1>         0.1424
      9 C4          0.6286    1.8868   29.9286 C.ar    1  <1>         0.0206
     10 C5         -0.1783    0.6816   29.5461 C.ar    1  <1>         0.0016
     11 C6         -0.9623    0.6790   28.2673 C.ar    1  <1>         0.0000
     12 C7         -0.9394    1.8816   27.3710 C.ar    1  <1>         0.0000
     13 C8         -0.1325    3.0868   27.7535 C.ar    1  <1>         0.0000
     14 C9          0.6515    3.0894   29.0323 C.ar    1  <1>         0.0016
     15 C10         4.3666    0.9156   33.5293 C.ar    1  <1>         0.0190
     16 C11         5.6362    1.7136   33.4948 C.ar    1  <1>         0.0015
     17 C12         6.8720    1.1862   34.1617 C.ar    1  <1>         0.0000
     18 C13         6.8381   -0.1393   34.8631 C.ar    1  <1>         0.0000
     19 C14         5.5684   -0.9373   34.8976 C.ar    1  <1>         0.0000
     20 C15         4.3327   -0.4099   34.2307 C.ar    1  <1>         0.0015
     21 C16         2.1405    2.8758   34.8902 C.ar    1  <1>         0.1954
     22 N4          2.4239    2.0788   36.1289 N.ar    1  <1>        -0.2192
     23 C17         2.3543    3.0083   37.3041 C.ar    1  <1>         0.1039
     24 C18         2.0279    4.3798   36.7917 C.ar    1  <1>         0.0587
     25 S1          1.8957    4.2978   35.2998 S.2     1  <1>        -0.0466
     26 C19         2.5728    2.6323   38.7397 C.2     1  <1>         0.0911
     27 O1          3.2345    3.5996   39.6760 O.co2   1  <1>        -0.5430
     28 O2          2.1296    1.2891   39.2390 O.co2   1  <1>        -0.5430
@<TRIPOS>UNITY_ATOM_ATTR
27 1
charge -1
@<TRIPOS>BOND
     1     1     2    1
     2     2     3   ar
     3     3     9    1
     4     9    10   ar
     5    10    11   ar
     6    11    12   ar
     7    12    13   ar
     8    13    14   ar
     9     3     4   ar
    10     4     5   ar
    11     5    21    1
    12    21    22   ar
    13    22    23   ar
    14    23    26    1
    15    26    27   ar
    16    26    28   ar
    17    23    24   ar
    18    24    25   ar
    19     5     6   ar
    20     6    15    1
    21    15    16   ar
    22    16    17   ar
    23    17    18   ar
    24    18    19   ar
    25    19    20   ar
    26     6     2   ar
    27    20    15   ar
    28    14     9   ar
    29    25    21   ar
    30     1     7    1
    31     1     8    1
@<TRIPOS>MOLECULE
*****
 28 31 0 0 0
SMALL
GASTEIGER

@<TRIPOS>ATOM
      1 N1          1.9538    0.4352   21.9437 N.pl3   1  <1>        -0.3546
      2 C1          2.7020   -0.2270   23.0625 C.ar    1  <1>         0.0791
      3 C2          3.6874   -1.3491   22.9214 C.ar    1  <1>         0.1156
      4 N2          4.1905   -1.6991   24.2905 N.ar    1  <1>        -0.1621
      5 N3          3.5160   -0.7933   25.2777 N.ar    1  <1>        -0.2054
      6 C3          2.5960    0.1165   24.5188 C.ar    1  <1>         0.0992
      7 H1          2.0917    0.1377   21.0154 H       1  <1>         0.1424
      8 H2          1.3249    1.1674   22.1377 H       1  <1>         0.1424
      9 C4          4.0978   -2.0059   21.6367 C.ar    1  <1>         0.0206
     10 C5          4.3431   -1.1730   20.4136 C.ar    1  <1>         0.0016
     11 C6          4.7534   -1.8298   19.1290 C.ar    1  <1>         0.0000
     12 C7          4.9184   -3.3194   19.0676 C.ar    1  <1>         0.0000
     13 C8          4.6731   -4.1523   20.2907 C.ar    1  <1>         0.0000
     14 C9          4.2628   -3.4955   21.5753 C.ar    1  <1>         0.0016
     15 C10         1.7232    1.1825   25.1119 C.ar    1  <1>         0.0190
     16 C11         0.2363    0.9920   25.1632 C.ar    1  <1>         0.0015
     17 C12        -0.6364    2.0581   25.7564 C.ar    1  <1>         0.0000
     18 C13        -0.0222    3.3147   26.2983 C.ar    1  <1>         0.0000
     19 C14         1.4648    3.5052   26.2470 C.ar    1  <1>         0.0000
     20 C15         2.3375    2.4391   25.6538 C.ar    1  <1>         0.0015
     21 C16         3.7247   -0.7967   26.7632 C.ar    1  <1>         0.1954
     22 N4          2.6586   -0.6219   27.8037 N.ar    1  <1>        -0.2192
     23 C17         3.3112   -0.6926   29.1524 C.ar    1  <1>         0.1039
     24 C18         4.7807   -0.9113   28.9454 C.ar    1  <1>         0.0587
     25 S1          5.0362   -0.9756   27.4688 S.2     1  <1>        -0.0466
     26 C19         2.6164   -0.5669   30.4758 C.2     1  <1>         0.0911
     27 O1          1.3975    0.2980   30.6038 O.co2   1  <1>        -0.5430
     28 O2          3.1404   -1.3060   31.6713 O.co2   1  <1>        -0.5430
@<TRIPOS>UNITY_ATOM_ATTR
27 1
charge -1
@<TRIPOS>BOND
     1     1     2    1
     2     2     3   ar
     3     3     9    1
     4     9    10   ar
     5    10    11   ar
     6    11    12   ar
     7    12    13   ar
     8    13    14   ar
     9     3     4   ar
    10     4     5   ar
    11     5    21    1
    12    21    22   ar
    13    22    23   ar
    14    23    26    1
    15    26    27   ar
    16    26    28   ar
    17    23    24   ar
    18    24    25   ar
    19     5     6   ar
    20     6    15    1
    21    15    16   ar
    22    16    17   ar
    23    17    18   ar
    24    18    19   ar
    25    19    20   ar
    26     6     2   ar
    27    20    15   ar
    28    14     9   ar
    29    25    21   ar
    30     1     7    1
    31     1     8    1
@<TRIPOS>MOLECULE
*****
 28 31 0 0 0
SMALL
GASTEIGER

@<TRIPOS>ATOM
      1 N1          2.0279    0.1968   24.6347 N.pl3   1  <1>        -0.3546
      2 C1          0.9762    1.2398   24.3975 C.ar    1  <1>         0.0791
      3 C2          0.5623    1.7870   23.0636 C.ar    1  <1>         0.1156
      4 N2         -0.5159    2.8041   23.2942 N.ar    1  <1>        -0.1621
      5 N3         -0.7683    2.8854   24.7706 N.ar    1  <1>        -0.2054
      6 C3          0.1539    1.9186   25.4525 C.ar    1  <1>         0.0992
      7 H1          2.5165   -0.1916   23.8734 H       1  <1>         0.1424
      8 H2          2.2295   -0.0992   25.5517 H       1  <1>         0.1424
      9 C4          1.1273    1.3874   21.7327 C.ar    1  <1>         0.0206
     10 C5          2.2829    2.1458   21.1503 C.ar    1  <1>         0.0016
     11 C6          2.8479    1.7461   19.8195 C.ar    1  <1>         0.0000
     12 C7          2.2573    0.5880   19.0712 C.ar    1  <1>         0.0000
     13 C8          1.1017   -0.1704   19.6537 C.ar    1  <1>         0.0000
     14 C9          0.5367    0.2292   20.9845 C.ar    1  <1>         0.0016
     15 C10         0.2389    1.6737   26.9299 C.ar    1  <1>         0.0190
     16 C11         1.3424    2.2981   27.7314 C.ar    1  <1>         0.0015
     17 C12         1.4273    2.0531   29.2088 C.ar    1  <1>         0.0000
     18 C13         0.4088    1.1838   29.8847 C.ar    1  <1>         0.0000
     19 C14        -0.6947    0.5593   29.0831 C.ar    1  <1>         0.0000
     20 C15        -0.7796    0.8043   27.6057 C.ar    1  <1>         0.0015
     21 C16        -1.7674    3.7770   25.4464 C.ar    1  <1>         0.1954
     22 N4         -3.2595    3.6754   25.3314 N.ar    1  <1>        -0.2192
     23 C17        -3.8642    4.7623   26.1699 C.ar    1  <1>         0.1039
     24 C18        -2.7457    5.5356   26.8031 C.ar    1  <1>         0.0587
     25 S1         -1.4499    4.9267   26.3560 S.2     1  <1>        -0.0466
     26 C19        -5.3299    5.0290   26.3444 C.2     1  <1>         0.0911
     27 O1         -5.8388    5.6083   27.6311 O.co2   1  <1>        -0.5430
     28 O2         -6.2868    4.7164   25.2323 O.co2   1  <1>        -0.5430
@<TRIPOS>UNITY_ATOM_ATTR
27 1
charge -1
@<TRIPOS>BOND
     1     1     2    1
     2     2     3   ar
     3     3     9    1
     4     9    10   ar
     5    10    11   ar
     6    11    12   ar
     7    12    13   ar
     8    13    14   ar
     9     3     4   ar
    10     4     5   ar
    11     5    21    1
    12    21    22   ar
    13    22    23   ar
    14    23    26    1
    15    26    27   ar
    16    26    28   ar
    17    23    24   ar
    18    24    25   ar
    19     5     6   ar
    20     6    15    1
    21    15    16   ar
    22    16    17   ar
    23    17    18   ar
    24    18    19   ar
    25    19    20   ar
    26     6     2   ar
    27    20    15   ar
    28    14     9   ar
    29    25    21   ar
    30     1     7    1
    31     1     8    1
