@<TRIPOS>MOLECULE
*****
 26 28 0 0 0
SMALL
GASTEIGER

@<TRIPOS>ATOM
      1 C          -8.0859  -18.2329   22.3309 C.2     1  UNL1        0.0000
      2 C          -9.3352  -18.6697   21.6249 C.2     1  UNL1        0.0000
      3 C          -4.0995  -19.9199   21.1011 C.ar    1  UNL1        0.1386
      4 C          -4.1920  -18.9977   22.2805 C.ar    1  UNL1        0.0369
      5 C          -5.5208  -18.4354   22.6904 C.ar    1  UNL1        0.0031
      6 C          -6.7571  -18.7953   21.9210 C.ar    1  UNL1        0.0002
      7 C          -6.6646  -19.7175   20.7416 C.ar    1  UNL1        0.0031
      8 C          -5.3358  -20.2798   20.3317 C.ar    1  UNL1        0.0369
      9 O          -2.7707  -20.4823   20.6912 O.3     1  UNL1       -0.4740
     10 C          -1.5089  -19.7410   21.0202 C.3     1  UNL1        0.2226
     11 C          -1.0511  -18.6133   20.1434 C.3     1  UNL1        0.1201
     12 C          -2.7031  -17.1285   18.7957 C.3     1  UNL1        0.0898
     13 N          -1.8811  -17.3693   20.0271 N.3     1  UNL1       -0.2672
     14 C          -1.8891  -16.3660   21.1421 C.3     1  UNL1        0.0898
     15 C         -10.6640  -18.1074   22.0349 C.ar    1  UNL1        0.0000
     16 C         -11.1528  -16.8232   21.4331 C.ar    1  UNL1        0.0000
     17 C         -12.4816  -16.2609   21.8431 C.ar    1  UNL1        0.0000
     18 C         -13.3216  -16.9827   22.8548 C.ar    1  UNL1        0.0000
     19 C         -12.8328  -18.2668   23.4565 C.ar    1  UNL1        0.0000
     20 C         -11.5040  -18.8291   23.0465 C.ar    1  UNL1        0.0000
     21 C          -8.1655  -17.2338   23.4469 C.ar    1  UNL1        0.0000
     22 C          -7.6806  -15.8305   23.2332 C.ar    1  UNL1        0.0000
     23 C          -7.7602  -14.8314   24.3492 C.ar    1  UNL1        0.0000
     24 C          -8.3246  -15.2356   25.6789 C.ar    1  UNL1        0.0000
     25 C          -8.8094  -16.6389   25.8926 C.ar    1  UNL1        0.0000
     26 C          -8.7299  -17.6380   24.7767 C.ar    1  UNL1        0.0000
@<TRIPOS>BOND
     1    12    13    1
     2    13    14    1
     3    13    11    1
     4    11    10    1
     5    10     9    1
     6     9     3    1
     7     3     4   ar
     8     4     5   ar
     9     5     6   ar
    10     6     1    1
    11     1     2    2
    12     2    15    1
    13    15    16   ar
    14    16    17   ar
    15    17    18   ar
    16    18    19   ar
    17    19    20   ar
    18     1    21    1
    19    21    22   ar
    20    22    23   ar
    21    23    24   ar
    22    24    25   ar
    23    25    26   ar
    24     6     7   ar
    25     7     8   ar
    26     8     3   ar
    27    20    15   ar
    28    26    21   ar
@<TRIPOS>MOLECULE
*****
 26 28 0 0 0
SMALL
GASTEIGER

@<TRIPOS>ATOM
      1 C          -7.7690  -18.3107   21.8818 C.2     1  UNL1        0.0000
      2 C          -8.8731  -18.7551   20.9688 C.2     1  UNL1        0.0000
      3 C          -3.5925  -19.8785   21.2911 C.ar    1  UNL1        0.1386
      4 C          -4.6634  -20.2022   20.2920 C.ar    1  UNL1        0.0369
      5 C          -6.0556  -19.6796   20.4889 C.ar    1  UNL1        0.0031
      6 C          -6.3769  -18.8333   21.6849 C.ar    1  UNL1        0.0002
      7 C          -5.3060  -18.5096   22.6841 C.ar    1  UNL1        0.0031
      8 C          -3.9138  -19.0322   22.4872 C.ar    1  UNL1        0.0369
      9 O          -2.2004  -20.4011   21.0943 O.3     1  UNL1       -0.4740
     10 C          -1.0405  -19.4506   21.0588 C.3     1  UNL1        0.2226
     11 C          -0.9419  -18.4281   19.9658 C.3     1  UNL1        0.1201
     12 C          -1.9227  -16.3118   21.1101 C.3     1  UNL1        0.0898
     13 N          -1.8801  -17.2577   19.9468 N.3     1  UNL1       -0.2672
     14 C          -2.7755  -17.0334   18.7645 C.3     1  UNL1        0.0898
     15 C         -10.2652  -18.2325   21.1657 C.ar    1  UNL1        0.0000
     16 C         -11.2189  -18.9598   22.0666 C.ar    1  UNL1        0.0000
     17 C         -12.6111  -18.4372   22.2635 C.ar    1  UNL1        0.0000
     18 C         -13.0496  -17.1873   21.5595 C.ar    1  UNL1        0.0000
     19 C         -12.0959  -16.4601   20.6587 C.ar    1  UNL1        0.0000
     20 C         -10.7037  -16.9827   20.4618 C.ar    1  UNL1        0.0000
     21 C          -8.0572  -17.3437   22.9917 C.ar    1  UNL1        0.0000
     22 C          -8.7997  -17.8020   24.2118 C.ar    1  UNL1        0.0000
     23 C          -9.0878  -16.8350   25.3218 C.ar    1  UNL1        0.0000
     24 C          -8.6335  -15.4097   25.2115 C.ar    1  UNL1        0.0000
     25 C          -7.8910  -14.9514   23.9914 C.ar    1  UNL1        0.0000
     26 C          -7.6028  -15.9184   22.8815 C.ar    1  UNL1        0.0000
@<TRIPOS>BOND
     1    12    13    1
     2    13    14    1
     3    13    11    1
     4    11    10    1
     5    10     9    1
     6     9     3    1
     7     3     4   ar
     8     4     5   ar
     9     5     6   ar
    10     6     1    1
    11     1     2    2
    12     2    15    1
    13    15    16   ar
    14    16    17   ar
    15    17    18   ar
    16    18    19   ar
    17    19    20   ar
    18     1    21    1
    19    21    22   ar
    20    22    23   ar
    21    23    24   ar
    22    24    25   ar
    23    25    26   ar
    24     6     7   ar
    25     7     8   ar
    26     8     3   ar
    27    20    15   ar
    28    26    21   ar
@<TRIPOS>MOLECULE
*****
 26 28 0 0 0
SMALL
GASTEIGER

@<TRIPOS>ATOM
      1 C          -8.1153  -18.1177   22.6617 C.2     1  UNL1        0.0000
      2 C          -8.9256  -17.4734   23.7471 C.2     1  UNL1        0.0000
      3 C          -3.6208  -18.0685   22.8785 C.ar    1  UNL1        0.1386
      4 C          -4.3324  -19.2734   22.3383 C.ar    1  UNL1        0.0369
      5 C          -5.8306  -19.2898   22.2661 C.ar    1  UNL1        0.0031
      6 C          -6.6171  -18.1013   22.7340 C.ar    1  UNL1        0.0002
      7 C          -5.9054  -16.8965   23.2741 C.ar    1  UNL1        0.0031
      8 C          -4.4073  -16.8801   23.3464 C.ar    1  UNL1        0.0369
      9 O          -2.1226  -18.0521   22.9507 O.3     1  UNL1       -0.4740
     10 C          -1.3108  -18.0541   21.6894 C.3     1  UNL1        0.2226
     11 C          -1.6884  -17.1507   20.5530 C.3     1  UNL1        0.1201
     12 C          -2.7916  -16.8020   18.2268 C.3     1  UNL1        0.0898
     13 N          -2.4162  -17.7050   19.3642 N.3     1  UNL1       -0.2672
     14 C          -2.7684  -19.1621   19.3128 C.3     1  UNL1        0.0898
     15 C         -10.4238  -17.4898   23.6749 C.ar    1  UNL1        0.0000
     16 C         -11.1441  -16.4938   22.8150 C.ar    1  UNL1        0.0000
     17 C         -12.6423  -16.5102   22.7428 C.ar    1  UNL1        0.0000
     18 C         -13.4201  -17.5226   23.5304 C.ar    1  UNL1        0.0000
     19 C         -12.6997  -18.5185   24.3901 C.ar    1  UNL1        0.0000
     20 C         -11.2016  -18.5021   24.4624 C.ar    1  UNL1        0.0000
     21 C          -8.8031  -18.7785   21.5041 C.ar    1  UNL1        0.0000
     22 C         -10.1606  -19.3896   21.6877 C.ar    1  UNL1        0.0000
     23 C         -10.8485  -20.0504   20.5299 C.ar    1  UNL1        0.0000
     24 C         -10.1788  -20.1000   19.1886 C.ar    1  UNL1        0.0000
     25 C          -8.8213  -19.4889   19.0050 C.ar    1  UNL1        0.0000
     26 C          -8.1335  -18.8282   20.1627 C.ar    1  UNL1        0.0000
@<TRIPOS>BOND
     1    12    13    1
     2    13    14    1
     3    13    11    1
     4    11    10    1
     5    10     9    1
     6     9     3    1
     7     3     4   ar
     8     4     5   ar
     9     5     6   ar
    10     6     1    1
    11     1     2    2
    12     2    15    1
    13    15    16   ar
    14    16    17   ar
    15    17    18   ar
    16    18    19   ar
    17    19    20   ar
    18     1    21    1
    19    21    22   ar
    20    22    23   ar
    21    23    24   ar
    22    24    25   ar
    23    25    26   ar
    24     6     7   ar
    25     7     8   ar
    26     8     3   ar
    27    20    15   ar
    28    26    21   ar
@<TRIPOS>MOLECULE
*****
 26 28 0 0 0
SMALL
GASTEIGER

@<TRIPOS>ATOM
      1 C         -13.7537   -4.9685   18.2851 C.2     1  UNL1        0.0000
      2 C         -14.5353   -3.6898   18.2235 C.2     1  UNL1        0.0000
      3 C         -15.8316   -8.8289   19.2999 C.ar    1  UNL1        0.1386
      4 C         -16.4423   -7.5197   19.7038 C.ar    1  UNL1        0.0369
      5 C         -15.7497   -6.2330   19.3655 C.ar    1  UNL1        0.0031
      6 C         -14.4463   -6.2553   18.6234 C.ar    1  UNL1        0.0002
      7 C         -13.8357   -7.5645   18.2195 C.ar    1  UNL1        0.0031
      8 C         -14.5283   -8.8512   18.5578 C.ar    1  UNL1        0.0369
      9 O         -16.5243  -10.1157   19.6382 O.3     1  UNL1       -0.4740
     10 C         -17.3037  -10.8471   18.5859 C.3     1  UNL1        0.2226
     11 C         -18.6913  -10.3994   18.2334 C.3     1  UNL1        0.1201
     12 C         -19.9884  -10.3263   15.9835 C.3     1  UNL1        0.0898
     13 N         -18.9559   -9.7509   16.9069 N.3     1  UNL1       -0.2672
     14 C         -18.1880   -8.5270   16.5040 C.3     1  UNL1        0.0898
     15 C         -13.8427   -2.4030   17.8852 C.ar    1  UNL1        0.0000
     16 C         -13.0545   -1.6770   18.9349 C.ar    1  UNL1        0.0000
     17 C         -12.3618   -0.3902   18.5966 C.ar    1  UNL1        0.0000
     18 C         -12.4574    0.1706   17.2087 C.ar    1  UNL1        0.0000
     19 C         -13.2455   -0.5554   16.1590 C.ar    1  UNL1        0.0000
     20 C         -13.9382   -1.8421   16.4973 C.ar    1  UNL1        0.0000
     21 C         -12.2795   -4.9605   18.0085 C.ar    1  UNL1        0.0000
     22 C         -11.7817   -4.9820   16.5937 C.ar    1  UNL1        0.0000
     23 C         -10.3074   -4.9740   16.3171 C.ar    1  UNL1        0.0000
     24 C          -9.3310   -4.9444   17.4553 C.ar    1  UNL1        0.0000
     25 C          -9.8287   -4.9229   18.8701 C.ar    1  UNL1        0.0000
     26 C         -11.3029   -4.9309   19.1467 C.ar    1  UNL1        0.0000
@<TRIPOS>BOND
     1    12    13    1
     2    13    14    1
     3    13    11    1
     4    11    10    1
     5    10     9    1
     6     9     3    1
     7     3     4   ar
     8     4     5   ar
     9     5     6   ar
    10     6     1    1
    11     1     2    2
    12     2    15    1
    13    15    16   ar
    14    16    17   ar
    15    17    18   ar
    16    18    19   ar
    17    19    20   ar
    18     1    21    1
    19    21    22   ar
    20    22    23   ar
    21    23    24   ar
    22    24    25   ar
    23    25    26   ar
    24     6     7   ar
    25     7     8   ar
    26     8     3   ar
    27    20    15   ar
    28    26    21   ar
@<TRIPOS>MOLECULE
*****
 26 28 0 0 0
SMALL
GASTEIGER

@<TRIPOS>ATOM
      1 C           2.8325   -0.3288   22.1705 C.2     1  UNL1        0.0000
      2 C           3.6939   -1.5566   22.1907 C.2     1  UNL1        0.0000
      3 C           1.1321    1.2904   26.0093 C.ar    1  UNL1        0.1386
      4 C           2.4445    0.5641   26.0178 C.ar    1  UNL1        0.0369
      5 C           3.0113    0.0244   24.7382 C.ar    1  UNL1        0.0031
      6 C           2.2657    0.2109   23.4501 C.ar    1  UNL1        0.0002
      7 C           0.9533    0.9372   23.4416 C.ar    1  UNL1        0.0031
      8 C           0.3865    1.4770   24.7212 C.ar    1  UNL1        0.0369
      9 O           0.5653    1.8301   27.2889 O.3     1  UNL1       -0.4740
     10 C          -0.5342    1.0914   27.9927 C.3     1  UNL1        0.2226
     11 C          -0.2151    0.2065   29.1610 C.3     1  UNL1        0.1201
     12 C           2.1710   -0.5115   29.8967 C.3     1  UNL1        0.0898
     13 N           1.0234    0.4515   29.9712 N.3     1  UNL1       -0.2672
     14 C           1.1142    1.6595   30.8557 C.3     1  UNL1        0.0898
     15 C           4.2607   -2.0963   20.9111 C.ar    1  UNL1        0.0000
     16 C           3.5620   -3.2131   20.1935 C.ar    1  UNL1        0.0000
     17 C           4.1288   -3.7528   18.9139 C.ar    1  UNL1        0.0000
     18 C           5.3943   -3.1758   18.3519 C.ar    1  UNL1        0.0000
     19 C           6.0929   -2.0592   19.0695 C.ar    1  UNL1        0.0000
     20 C           5.5261   -1.5194   20.3491 C.ar    1  UNL1        0.0000
     21 C           2.5379    0.3593   20.8706 C.ar    1  UNL1        0.0000
     22 C           3.3458    1.5523   20.4535 C.ar    1  UNL1        0.0000
     23 C           3.0512    2.2404   19.1536 C.ar    1  UNL1        0.0000
     24 C           1.9487    1.7354   18.2707 C.ar    1  UNL1        0.0000
     25 C           1.1407    0.5424   18.6878 C.ar    1  UNL1        0.0000
     26 C           1.4353   -0.1457   19.9877 C.ar    1  UNL1        0.0000
@<TRIPOS>BOND
     1    12    13    1
     2    13    14    1
     3    13    11    1
     4    11    10    1
     5    10     9    1
     6     9     3    1
     7     3     4   ar
     8     4     5   ar
     9     5     6   ar
    10     6     1    1
    11     1     2    2
    12     2    15    1
    13    15    16   ar
    14    16    17   ar
    15    17    18   ar
    16    18    19   ar
    17    19    20   ar
    18     1    21    1
    19    21    22   ar
    20    22    23   ar
    21    23    24   ar
    22    24    25   ar
    23    25    26   ar
    24     6     7   ar
    25     7     8   ar
    26     8     3   ar
    27    20    15   ar
    28    26    21   ar
@<TRIPOS>MOLECULE
*****
 26 28 0 0 0
SMALL
GASTEIGER

@<TRIPOS>ATOM
      1 C           2.8425   -0.3435   22.1732 C.2     1  UNL1        0.0000
      2 C           3.7056   -1.5701   22.1923 C.2     1  UNL1        0.0000
      3 C           1.1476    1.2751   26.0147 C.ar    1  UNL1        0.1386
      4 C           0.3976    1.4573   24.7285 C.ar    1  UNL1        0.0369
      5 C           0.9626    0.9177   23.4480 C.ar    1  UNL1        0.0031
      6 C           2.2775    0.1961   23.4537 C.ar    1  UNL1        0.0002
      7 C           3.0275    0.0139   24.7399 C.ar    1  UNL1        0.0031
      8 C           2.4625    0.5535   26.0204 C.ar    1  UNL1        0.0369
      9 O           0.5826    1.8147   27.2952 O.3     1  UNL1       -0.4740
     10 C          -0.5132    1.0738   28.0025 C.3     1  UNL1        0.2226
     11 C          -0.1879    0.1855   29.1666 C.3     1  UNL1        0.1201
     12 C           1.1385    1.6449   30.8581 C.3     1  UNL1        0.0898
     13 N           1.0497    0.4342   29.9770 N.3     1  UNL1       -0.2672
     14 C           2.1984   -0.5277   29.9062 C.3     1  UNL1        0.0898
     15 C           4.2706   -2.1096   20.9118 C.ar    1  UNL1        0.0000
     16 C           5.5410   -1.5398   20.3536 C.ar    1  UNL1        0.0000
     17 C           6.1059   -2.0794   19.0731 C.ar    1  UNL1        0.0000
     18 C           5.4005   -3.1887   18.3507 C.ar    1  UNL1        0.0000
     19 C           4.1301   -3.7585   18.9089 C.ar    1  UNL1        0.0000
     20 C           3.5652   -3.2189   20.1894 C.ar    1  UNL1        0.0000
     21 C           2.5443    0.3436   20.8736 C.ar    1  UNL1        0.0000
     22 C           1.4333   -0.1564   19.9985 C.ar    1  UNL1        0.0000
     23 C           1.1352    0.5307   18.6988 C.ar    1  UNL1        0.0000
     24 C           1.9480    1.7177   18.2743 C.ar    1  UNL1        0.0000
     25 C           3.0589    2.2177   19.1494 C.ar    1  UNL1        0.0000
     26 C           3.3571    1.5307   20.4490 C.ar    1  UNL1        0.0000
@<TRIPOS>BOND
     1    12    13    1
     2    13    14    1
     3    13    11    1
     4    11    10    1
     5    10     9    1
     6     9     3    1
     7     3     4   ar
     8     4     5   ar
     9     5     6   ar
    10     6     1    1
    11     1     2    2
    12     2    15    1
    13    15    16   ar
    14    16    17   ar
    15    17    18   ar
    16    18    19   ar
    17    19    20   ar
    18     1    21    1
    19    21    22   ar
    20    22    23   ar
    21    23    24   ar
    22    24    25   ar
    23    25    26   ar
    24     6     7   ar
    25     7     8   ar
    26     8     3   ar
    27    20    15   ar
    28    26    21   ar
@<TRIPOS>MOLECULE
*****
 26 28 0 0 0
SMALL
GASTEIGER

@<TRIPOS>ATOM
      1 C         -11.7848   -3.1440   17.8549 C.2     1  UNL1        0.0000
      2 C         -10.5178   -3.8473   17.4674 C.2     1  UNL1        0.0000
      3 C         -12.1440    1.3083   17.3091 C.ar    1  UNL1        0.1386
      4 C         -13.0517    0.5944   18.2663 C.ar    1  UNL1        0.0369
      5 C         -12.9319   -0.8897   18.4482 C.ar    1  UNL1        0.0031
      6 C         -11.9045   -1.6599   17.6729 C.ar    1  UNL1        0.0002
      7 C         -10.9968   -0.9460   16.7157 C.ar    1  UNL1        0.0031
      8 C         -11.1165    0.5381   16.5338 C.ar    1  UNL1        0.0369
      9 O         -12.2637    2.7924   17.1272 O.3     1  UNL1       -0.4740
     10 C         -13.5660    3.3912   16.6850 C.3     1  UNL1        0.2226
     11 C         -14.0654    4.6541   17.3219 C.3     1  UNL1        0.1201
     12 C         -14.6165    5.8020   19.5866 C.3     1  UNL1        0.0898
     13 N         -14.6987    4.6091   18.6810 N.3     1  UNL1       -0.2672
     14 C         -15.4141    3.3711   19.1344 C.3     1  UNL1        0.0898
     15 C         -10.3981   -5.3314   17.6493 C.ar    1  UNL1        0.0000
     16 C         -11.0613   -6.2621   16.6777 C.ar    1  UNL1        0.0000
     17 C         -10.9416   -7.7462   16.8596 C.ar    1  UNL1        0.0000
     18 C         -10.1586   -8.2996   18.0132 C.ar    1  UNL1        0.0000
     19 C          -9.4954   -7.3690   18.9848 C.ar    1  UNL1        0.0000
     20 C          -9.6151   -5.8849   18.8028 C.ar    1  UNL1        0.0000
     21 C         -12.9320   -3.9248   18.4242 C.ar    1  UNL1        0.0000
     22 C         -14.0633   -4.3508   17.5363 C.ar    1  UNL1        0.0000
     23 C         -15.2106   -5.1317   18.1057 C.ar    1  UNL1        0.0000
     24 C         -15.2264   -5.4864   19.5630 C.ar    1  UNL1        0.0000
     25 C         -14.0950   -5.0604   20.4510 C.ar    1  UNL1        0.0000
     26 C         -12.9478   -4.2796   19.8816 C.ar    1  UNL1        0.0000
@<TRIPOS>BOND
     1    12    13    1
     2    13    14    1
     3    13    11    1
     4    11    10    1
     5    10     9    1
     6     9     3    1
     7     3     4   ar
     8     4     5   ar
     9     5     6   ar
    10     6     1    1
    11     1     2    2
    12     2    15    1
    13    15    16   ar
    14    16    17   ar
    15    17    18   ar
    16    18    19   ar
    17    19    20   ar
    18     1    21    1
    19    21    22   ar
    20    22    23   ar
    21    23    24   ar
    22    24    25   ar
    23    25    26   ar
    24     6     7   ar
    25     7     8   ar
    26     8     3   ar
    27    20    15   ar
    28    26    21   ar
@<TRIPOS>MOLECULE
*****
 26 28 0 0 0
SMALL
GASTEIGER

@<TRIPOS>ATOM
      1 C           3.5189   -1.2102   22.5585 C.2     1  UNL1        0.0000
      2 C           4.2477   -2.5127   22.4095 C.2     1  UNL1        0.0000
      3 C           2.8194    0.5210   26.6529 C.ar    1  UNL1        0.1386
      4 C           2.0846    1.0755   25.4686 C.ar    1  UNL1        0.0369
      5 C           2.3178    0.4984   24.1038 C.ar    1  UNL1        0.0031
      6 C           3.2857   -0.6331   23.9233 C.ar    1  UNL1        0.0002
      7 C           4.0205   -1.1876   25.1076 C.ar    1  UNL1        0.0031
      8 C           3.7874   -0.6105   26.4724 C.ar    1  UNL1        0.0369
      9 O           2.5862    1.0981   28.0177 O.3     1  UNL1       -0.4740
     10 C           1.7908    0.3297   29.0309 C.3     1  UNL1        0.2226
     11 C           0.5030    0.8915   29.5562 C.3     1  UNL1        0.1201
     12 C          -1.7966   -0.2173   29.0740 C.3     1  UNL1        0.0898
     13 N          -0.7472    0.7986   28.7324 N.3     1  UNL1       -0.2672
     14 C          -0.9479    1.7215   27.5671 C.3     1  UNL1        0.0898
     15 C           4.4808   -3.0898   21.0447 C.ar    1  UNL1        0.0000
     16 C           5.4948   -2.4680   20.1307 C.ar    1  UNL1        0.0000
     17 C           5.7279   -3.0450   18.7659 C.ar    1  UNL1        0.0000
     18 C           4.9472   -4.2439   18.3151 C.ar    1  UNL1        0.0000
     19 C           3.9333   -4.8657   19.2291 C.ar    1  UNL1        0.0000
     20 C           3.7001   -4.2886   20.5939 C.ar    1  UNL1        0.0000
     21 C           3.0233   -0.4847   21.3428 C.ar    1  UNL1        0.0000
     22 C           1.7061   -0.8595   20.7308 C.ar    1  UNL1        0.0000
     23 C           1.2105   -0.1340   19.5150 C.ar    1  UNL1        0.0000
     24 C           2.0321    0.9662   18.9113 C.ar    1  UNL1        0.0000
     25 C           3.3493    1.3410   19.5233 C.ar    1  UNL1        0.0000
     26 C           3.8449    0.6155   20.7390 C.ar    1  UNL1        0.0000
@<TRIPOS>BOND
     1    12    13    1
     2    13    14    1
     3    13    11    1
     4    11    10    1
     5    10     9    1
     6     9     3    1
     7     3     4   ar
     8     4     5   ar
     9     5     6   ar
    10     6     1    1
    11     1     2    2
    12     2    15    1
    13    15    16   ar
    14    16    17   ar
    15    17    18   ar
    16    18    19   ar
    17    19    20   ar
    18     1    21    1
    19    21    22   ar
    20    22    23   ar
    21    23    24   ar
    22    24    25   ar
    23    25    26   ar
    24     6     7   ar
    25     7     8   ar
    26     8     3   ar
    27    20    15   ar
    28    26    21   ar
@<TRIPOS>MOLECULE
*****
 26 28 0 0 0
SMALL
GASTEIGER

@<TRIPOS>ATOM
      1 C           3.8003   -1.5824   21.6309 C.2     1  UNL1        0.0000
      2 C           4.6745   -1.4172   22.8385 C.2     1  UNL1        0.0000
      3 C           0.2098    1.0719   21.0722 C.ar    1  UNL1        0.1386
      4 C           0.5306    0.0198   20.0524 C.ar    1  UNL1        0.0369
      5 C           1.7275   -0.8650   20.2387 C.ar    1  UNL1        0.0031
      6 C           2.6035   -0.6976   21.4447 C.ar    1  UNL1        0.0002
      7 C           2.2826    0.3545   22.4645 C.ar    1  UNL1        0.0031
      8 C           1.0858    1.2393   22.2783 C.ar    1  UNL1        0.0369
      9 O          -0.9871    1.9567   20.8860 O.3     1  UNL1       -0.4740
     10 C          -1.1654    3.1691   21.7511 C.3     1  UNL1        0.2226
     11 C          -2.2528    4.1558   21.4446 C.3     1  UNL1        0.1201
     12 C          -3.8297    3.8044   19.4098 C.3     1  UNL1        0.0898
     13 N          -3.5590    3.6811   20.8800 N.3     1  UNL1       -0.2672
     14 C          -4.5944    3.0830   21.7857 C.3     1  UNL1        0.0898
     15 C           5.8714   -2.3020   23.0248 C.ar    1  UNL1        0.0000
     16 C           7.1871   -1.9225   22.4124 C.ar    1  UNL1        0.0000
     17 C           8.3840   -2.8073   22.5986 C.ar    1  UNL1        0.0000
     18 C           8.2651   -4.0716   23.3972 C.ar    1  UNL1        0.0000
     19 C           6.9494   -4.4510   24.0095 C.ar    1  UNL1        0.0000
     20 C           5.7525   -3.5662   23.8233 C.ar    1  UNL1        0.0000
     21 C           4.1230   -2.6324   20.6095 C.ar    1  UNL1        0.0000
     22 C           4.9359   -2.2773   19.3998 C.ar    1  UNL1        0.0000
     23 C           5.2585   -3.3274   18.3784 C.ar    1  UNL1        0.0000
     24 C           4.7684   -4.7325   18.5666 C.ar    1  UNL1        0.0000
     25 C           3.9555   -5.0875   19.7762 C.ar    1  UNL1        0.0000
     26 C           3.6328   -4.0376   20.7976 C.ar    1  UNL1        0.0000
@<TRIPOS>BOND
     1    12    13    1
     2    13    14    1
     3    13    11    1
     4    11    10    1
     5    10     9    1
     6     9     3    1
     7     3     4   ar
     8     4     5   ar
     9     5     6   ar
    10     6     1    1
    11     1     2    2
    12     2    15    1
    13    15    16   ar
    14    16    17   ar
    15    17    18   ar
    16    18    19   ar
    17    19    20   ar
    18     1    21    1
    19    21    22   ar
    20    22    23   ar
    21    23    24   ar
    22    24    25   ar
    23    25    26   ar
    24     6     7   ar
    25     7     8   ar
    26     8     3   ar
    27    20    15   ar
    28    26    21   ar
