@<TRIPOS>MOLECULE
*****
 28 31 0 0 0
SMALL
GASTEIGER

@<TRIPOS>ATOM
      1 C          -6.3812  -16.2879   23.9633 C.2     1  UNL1        0.3270
      2 N          -4.9045  -16.1766   24.2016 N.2     1  UNL1       -0.0380
      3 C          -4.2201  -17.2150   23.3629 C.2     1  UNL1        0.2637
      4 C          -2.7736  -17.5722   23.1903 C.2     1  UNL1        0.2821
      5 N          -2.3807  -18.6824   22.2612 N.2     1  UNL1       -0.0268
      6 C          -3.4345  -19.4354   21.5047 C.2     1  UNL1        0.3760
      7 N          -3.3505  -20.5688   20.5258 N.2     1  UNL1       -0.0306
      8 C          -4.7451  -20.9122   20.0933 C.2     1  UNL1        0.2361
      9 C          -5.6912  -19.9909   20.8050 C.2     1  UNL1        0.0583
     10 C          -4.8812  -19.0782   21.6772 C.2     1  UNL1        0.1203
     11 C          -5.2739  -17.9680   22.6063 C.3     1  UNL1        0.2596
     12 N          -6.6096  -17.3950   22.9774 N.pl3   1  UNL1       -0.1887
     13 C          -7.9400  -17.8494   22.4545 C.3     1  UNL1        0.1619
     14 C          -8.6120  -19.1534   22.7679 C.3     1  UNL1        0.0480
     15 C          -9.9192  -19.1894   22.0334 C.3     1  UNL1        0.0200
     16 C         -10.0553  -17.9079   21.2660 C.3     1  UNL1        0.0583
     17 C          -8.8321  -17.0796   21.5262 C.3     1  UNL1        0.0623
     18 N         -11.2117  -17.5222   20.3918 N.3     1  UNL1       -0.2913
     19 H         -11.6861  -18.3871   20.1324 H       1  UNL1        0.1235
     20 C         -12.2655  -16.5892   20.9105 C.3     1  UNL1        0.1731
     21 C         -12.8791  -16.8259   22.2586 C.3     1  UNL1        0.4118
     22 F         -13.4926  -17.0627   23.6067 F       1  UNL1       -0.1685
     23 F         -13.4706  -18.1123   21.7634 F       1  UNL1       -0.1685
     24 F         -12.2875  -15.5395   22.7538 F       1  UNL1       -0.1685
     25 C          -8.3041  -16.0094   25.6881 C.3     1  UNL1        0.0450
     26 C          -7.4432  -15.4407   24.5994 C.3     1  UNL1        0.2165
     27 O          -7.6441  -14.0249   24.1467 O.3     1  UNL1       -0.3737
     28 H          -7.0106  -13.8177   23.4420 H       1  UNL1        0.2111
@<TRIPOS>BOND
     1    26    25    1
     2    26    27    1
     3    26     1    1
     4     1     2    2
     5     2     3    1
     6     3     4    2
     7     4     5    1
     8     5     6    2
     9     6     7    1
    10     7     8    2
    11     8     9    1
    12     9    10    2
    13    10    11    1
    14    11    12    1
    15    13    12    1
    16    13    14    1
    17    14    15    1
    18    15    16    1
    19    16    18    1
    20    18    20    1
    21    20    21    1
    22    21    22    1
    23    21    23    1
    24    21    24    1
    25    16    17    1
    26    12     1    1
    27    17    13    1
    28    11     3    1
    29    10     6    1
    30    27    28    1
    31    18    19    1
@<TRIPOS>MOLECULE
*****
 28 31 0 0 0
SMALL
GASTEIGER

@<TRIPOS>ATOM
      1 C         -11.3396  -17.7489   22.0417 C.2     1  UNL1        0.3270
      2 N         -11.4600  -18.4239   20.7075 N.2     1  UNL1       -0.0380
      3 C         -10.1074  -18.9522   20.3315 C.2     1  UNL1        0.2637
      4 C          -9.6231  -19.7055   19.1283 C.2     1  UNL1        0.2821
      5 N          -8.1823  -20.1105   19.0268 N.2     1  UNL1       -0.0268
      6 C          -7.2259  -19.7621   20.1286 C.2     1  UNL1        0.3760
      7 N          -5.7600  -20.0259   20.3060 N.2     1  UNL1       -0.0306
      8 C          -5.3384  -19.4356   21.6189 C.2     1  UNL1        0.2361
      9 C          -6.5438  -18.8070   22.2530 C.2     1  UNL1        0.0583
     10 C          -7.7103  -19.0087   21.3319 C.2     1  UNL1        0.1203
     11 C          -9.1511  -18.6038   21.4333 C.3     1  UNL1        0.2596
     12 N          -9.9126  -17.8601   22.4903 N.pl3   1  UNL1       -0.1887
     13 C          -9.3465  -17.3221   23.7709 C.3     1  UNL1        0.1619
     14 C          -9.5363  -17.9139   25.1362 C.3     1  UNL1        0.0480
     15 C          -8.7984  -17.0554   26.1201 C.3     1  UNL1        0.0200
     16 C          -8.1525  -15.9331   25.3631 C.3     1  UNL1        0.0583
     17 C          -8.4913  -16.0979   23.9112 C.3     1  UNL1        0.0623
     18 N          -7.3148  -14.8380   25.9543 N.3     1  UNL1       -0.2913
     19 H          -7.5952  -14.7474   26.9308 H       1  UNL1        0.1235
     20 C          -5.8190  -14.9482   25.9417 C.3     1  UNL1        0.1731
     21 C          -5.1411  -15.8419   24.9458 C.3     1  UNL1        0.4118
     22 F          -4.4633  -16.7355   23.9499 F       1  UNL1       -0.1685
     23 F          -4.7590  -16.7825   26.0499 F       1  UNL1       -0.1685
     24 F          -5.5233  -14.9012   23.8417 F       1  UNL1       -0.1685
     25 C         -13.4108  -17.9028   23.6026 C.3     1  UNL1        0.0450
     26 C         -12.4511  -17.0802   22.7949 C.3     1  UNL1        0.2165
     27 O         -12.6028  -15.5889   22.7405 O.3     1  UNL1       -0.3737
     28 H         -11.9065  -15.2133   22.1794 H       1  UNL1        0.2111
@<TRIPOS>BOND
     1    26    25    1
     2    26    27    1
     3    26     1    1
     4     1     2    2
     5     2     3    1
     6     3     4    2
     7     4     5    1
     8     5     6    2
     9     6     7    1
    10     7     8    2
    11     8     9    1
    12     9    10    2
    13    10    11    1
    14    11    12    1
    15    13    12    1
    16    13    14    1
    17    14    15    1
    18    15    16    1
    19    16    18    1
    20    18    20    1
    21    20    21    1
    22    21    22    1
    23    21    23    1
    24    21    24    1
    25    16    17    1
    26    12     1    1
    27    17    13    1
    28    11     3    1
    29    10     6    1
    30    27    28    1
    31    18    19    1
@<TRIPOS>MOLECULE
*****
 28 31 0 0 0
SMALL
GASTEIGER

@<TRIPOS>ATOM
      1 C          -8.0520  -18.8004   21.3808 C.2     1  UNL1        0.3270
      2 N          -7.5146  -19.9423   20.5700 N.2     1  UNL1       -0.0380
      3 C          -6.0228  -19.9603   20.7266 C.2     1  UNL1        0.2637
      4 C          -4.9650  -20.8601   20.1601 C.2     1  UNL1        0.2821
      5 N          -3.5225  -20.6293   20.5010 N.2     1  UNL1       -0.0268
      6 C          -3.1381  -19.4985   21.4085 C.2     1  UNL1        0.3760
      7 N          -1.8080  -19.0290   21.9189 N.2     1  UNL1       -0.0306
      8 C          -2.0440  -17.8389   22.8009 C.2     1  UNL1        0.2361
      9 C          -3.5198  -17.5729   22.8356 C.2     1  UNL1        0.0583
     10 C          -4.1960  -18.5986   21.9750 C.2     1  UNL1        0.1203
     11 C          -5.6384  -18.8295   21.6341 C.3     1  UNL1        0.2596
     12 N          -6.8924  -18.1127   22.0384 N.pl3   1  UNL1       -0.1887
     13 C          -6.9729  -16.9179   22.9416 C.3     1  UNL1        0.1619
     14 C          -7.9116  -15.7579   22.7880 C.3     1  UNL1        0.0480
     15 C          -7.6476  -14.7965   23.9085 C.3     1  UNL1        0.0200
     16 C          -6.5458  -15.3621   24.7548 C.3     1  UNL1        0.0583
     17 C          -6.1288  -16.6731   24.1572 C.3     1  UNL1        0.0623
     18 N          -5.9633  -14.7278   25.9830 N.3     1  UNL1       -0.2913
     19 H          -5.8893  -13.7286   25.7917 H       1  UNL1        0.1235
     20 C          -6.6638  -14.8653   27.3022 C.3     1  UNL1        0.1731
     21 C          -7.7362  -15.8993   27.4777 C.3     1  UNL1        0.4118
     22 F          -8.8086  -16.9334   27.6531 F       1  UNL1       -0.1685
     23 F          -8.7816  -14.8656   27.1803 F       1  UNL1       -0.1685
     24 F          -6.6908  -16.9331   27.7750 F       1  UNL1       -0.1685
     25 C         -10.3359  -19.0099   22.6013 C.3     1  UNL1        0.0450
     26 C          -9.4955  -18.4142   21.5110 C.3     1  UNL1        0.2165
     27 O         -10.0987  -17.4321   20.5509 O.3     1  UNL1       -0.3737
     28 H          -9.4247  -17.1467   19.9143 H       1  UNL1        0.2111
@<TRIPOS>BOND
     1    26    25    1
     2    26    27    1
     3    26     1    1
     4     1     2    2
     5     2     3    1
     6     3     4    2
     7     4     5    1
     8     5     6    2
     9     6     7    1
    10     7     8    2
    11     8     9    1
    12     9    10    2
    13    10    11    1
    14    11    12    1
    15    13    12    1
    16    13    14    1
    17    14    15    1
    18    15    16    1
    19    16    18    1
    20    18    20    1
    21    20    21    1
    22    21    22    1
    23    21    23    1
    24    21    24    1
    25    16    17    1
    26    12     1    1
    27    17    13    1
    28    11     3    1
    29    10     6    1
    30    27    28    1
    31    18    19    1
@<TRIPOS>MOLECULE
*****
 28 31 0 0 0
SMALL
GASTEIGER

@<TRIPOS>ATOM
      1 C          -8.1025  -16.1788   24.4513 C.2     1  UNL1        0.3270
      2 N          -9.5883  -16.0785   24.2710 N.2     1  UNL1       -0.0380
      3 C          -9.9630  -16.8779   23.0582 C.2     1  UNL1        0.2637
      4 C         -11.2842  -17.1414   22.3987 C.2     1  UNL1        0.2821
      5 N         -11.3513  -17.9992   21.1700 N.2     1  UNL1       -0.0268
      6 C         -10.0971  -18.5935   20.6009 C.2     1  UNL1        0.3760
      7 N          -9.8536  -19.4723   19.4099 N.2     1  UNL1       -0.0306
      8 C          -8.3819  -19.7519   19.3334 C.2     1  UNL1        0.2361
      9 C          -7.7158  -19.0459   20.4771 C.2     1  UNL1        0.0583
     10 C          -8.7759  -18.3300   21.2605 C.2     1  UNL1        0.1203
     11 C          -8.7089  -17.4722   22.4891 C.3     1  UNL1        0.2596
     12 N          -7.5590  -17.0401   23.3501 N.pl3   1  UNL1       -0.1887
     13 C          -6.1186  -17.4052   23.1457 C.3     1  UNL1        0.1619
     14 C          -4.9339  -16.5711   23.5340 C.3     1  UNL1        0.0480
     15 C          -3.6931  -17.3190   23.1454 C.3     1  UNL1        0.0200
     16 C          -4.1109  -18.6152   22.5169 C.3     1  UNL1        0.0583
     17 C          -5.6099  -18.6686   22.5171 C.3     1  UNL1        0.0623
     18 N          -3.1910  -19.6726   21.9821 N.3     1  UNL1       -0.2913
     19 H          -3.4595  -20.5497   22.4284 H       1  UNL1        0.1235
     20 C          -3.1307  -19.9380   20.5070 C.3     1  UNL1        0.1731
     21 C          -2.9030  -18.8057   19.5500 C.3     1  UNL1        0.4118
     22 F          -2.6754  -17.6733   18.5930 F       1  UNL1       -0.1685
     23 F          -1.4363  -18.8364   19.8626 F       1  UNL1       -0.1685
     24 F          -4.3698  -18.7749   19.2375 F       1  UNL1       -0.1685
     25 C          -7.4040  -16.0376   26.9497 C.3     1  UNL1        0.0450
     26 C          -7.3011  -15.5314   25.5415 C.3     1  UNL1        0.2165
     27 O          -6.3967  -14.3778   25.2234 O.3     1  UNL1       -0.3737
     28 H          -6.4476  -14.1788   24.2754 H       1  UNL1        0.2111
@<TRIPOS>BOND
     1    26    25    1
     2    26    27    1
     3    26     1    1
     4     1     2    2
     5     2     3    1
     6     3     4    2
     7     4     5    1
     8     5     6    2
     9     6     7    1
    10     7     8    2
    11     8     9    1
    12     9    10    2
    13    10    11    1
    14    11    12    1
    15    13    12    1
    16    13    14    1
    17    14    15    1
    18    15    16    1
    19    16    18    1
    20    18    20    1
    21    20    21    1
    22    21    22    1
    23    21    23    1
    24    21    24    1
    25    16    17    1
    26    12     1    1
    27    17    13    1
    28    11     3    1
    29    10     6    1
    30    27    28    1
    31    18    19    1
@<TRIPOS>MOLECULE
*****
 28 31 0 0 0
SMALL
GASTEIGER

@<TRIPOS>ATOM
      1 C          -8.2414  -19.3143   20.4749 C.2     1  UNL1        0.3270
      2 N          -6.7947  -19.6996   20.5666 N.2     1  UNL1       -0.0380
      3 C          -6.1402  -18.8061   21.5782 C.2     1  UNL1        0.2637
      4 C          -4.7299  -18.7251   22.0825 C.2     1  UNL1        0.2821
      5 N          -4.3618  -17.7065   23.1204 N.2     1  UNL1       -0.0268
      6 C          -5.4042  -16.7690   23.6539 C.2     1  UNL1        0.3760
      7 N          -5.3385  -15.6699   24.6725 N.2     1  UNL1       -0.0306
      8 C          -6.7084  -15.0717   24.7978 C.2     1  UNL1        0.2361
      9 C          -7.6206  -15.8010   23.8565 C.2     1  UNL1        0.0583
     10 C          -6.8145  -16.8500   23.1496 C.2     1  UNL1        0.1203
     11 C          -7.1825  -17.8686   22.1117 C.3     1  UNL1        0.2596
     12 N          -8.4812  -18.1827   21.4298 N.pl3   1  UNL1       -0.1887
     13 C          -9.7897  -17.4873   21.6621 C.3     1  UNL1        0.1619
     14 C         -10.3075  -16.3045   20.8983 C.3     1  UNL1        0.0480
     15 C         -11.6480  -15.9388   21.4631 C.3     1  UNL1        0.0200
     16 C         -11.9588  -16.8954   22.5759 C.3     1  UNL1        0.0583
     17 C         -10.8104  -17.8524   22.6989 C.3     1  UNL1        0.0623
     18 N         -13.2004  -16.8950   23.4179 N.3     1  UNL1       -0.2913
     19 H         -13.8649  -16.2694   22.9624 H       1  UNL1        0.1235
     20 C         -13.9271  -18.1801   23.6830 C.3     1  UNL1        0.1731
     21 C         -14.3307  -18.5385   25.0825 C.3     1  UNL1        0.4118
     22 F         -14.7343  -18.8969   26.4820 F       1  UNL1       -0.1685
     23 F         -15.7677  -18.5882   24.6553 F       1  UNL1       -0.1685
     24 F         -12.8937  -18.4888   25.5096 F       1  UNL1       -0.1685
     25 C          -8.8481  -20.5971   18.2986 C.3     1  UNL1        0.0450
     26 C          -9.2682  -19.9492   19.5845 C.3     1  UNL1        0.2165
     27 O         -10.7150  -19.9361   19.9802 O.3     1  UNL1       -0.3737
     28 H         -10.8133  -19.4818   20.8315 H       1  UNL1        0.2111
@<TRIPOS>BOND
     1    26    25    1
     2    26    27    1
     3    26     1    1
     4     1     2    2
     5     2     3    1
     6     3     4    2
     7     4     5    1
     8     5     6    2
     9     6     7    1
    10     7     8    2
    11     8     9    1
    12     9    10    2
    13    10    11    1
    14    11    12    1
    15    13    12    1
    16    13    14    1
    17    14    15    1
    18    15    16    1
    19    16    18    1
    20    18    20    1
    21    20    21    1
    22    21    22    1
    23    21    23    1
    24    21    24    1
    25    16    17    1
    26    12     1    1
    27    17    13    1
    28    11     3    1
    29    10     6    1
    30    27    28    1
    31    18    19    1
@<TRIPOS>MOLECULE
*****
 28 31 0 0 0
SMALL
GASTEIGER

@<TRIPOS>ATOM
      1 C          -9.4610  -18.4841   21.6558 C.2     1  UNL1        0.3270
      2 N         -10.2635  -17.5281   22.4877 N.2     1  UNL1       -0.0380
      3 C          -9.3087  -16.7179   23.3136 C.2     1  UNL1        0.2637
      4 C          -9.5274  -15.6245   24.3168 C.2     1  UNL1        0.2821
      5 N          -8.3535  -14.9863   24.9986 N.2     1  UNL1       -0.0268
      6 C          -6.9610  -15.4416   24.6771 C.2     1  UNL1        0.3760
      7 N          -5.6193  -15.0033   25.1849 N.2     1  UNL1       -0.0306
      8 C          -4.5715  -15.8259   24.4955 C.2     1  UNL1        0.2361
      9 C          -5.2654  -16.7726   23.5616 C.2     1  UNL1        0.0583
     10 C          -6.7422  -16.5351   23.6738 C.2     1  UNL1        0.1203
     11 C          -7.9161  -17.1732   22.9921 C.3     1  UNL1        0.2596
     12 N          -8.0102  -18.2648   21.9675 N.pl3   1  UNL1       -0.1887
     13 C          -6.8562  -19.0067   21.3611 C.3     1  UNL1        0.1619
     14 C          -6.5764  -20.4732   21.5070 C.3     1  UNL1        0.0480
     15 C          -5.3267  -20.7853   20.7385 C.3     1  UNL1        0.0200
     16 C          -4.8341  -19.5118   20.1176 C.3     1  UNL1        0.0583
     17 C          -5.7794  -18.4126   20.5024 C.3     1  UNL1        0.0623
     18 N          -3.6109  -19.3635   19.2620 N.3     1  UNL1       -0.2913
     19 H          -3.8624  -18.7414   18.4938 H       1  UNL1        0.1235
     20 C          -2.3414  -18.8280   19.8550 C.3     1  UNL1        0.1731
     21 C          -2.2668  -18.5298   21.3231 C.3     1  UNL1        0.4118
     22 F          -2.1922  -18.2315   22.7913 F       1  UNL1       -0.1685
     23 F          -2.5205  -17.0785   21.0412 F       1  UNL1       -0.1685
     24 F          -2.0132  -19.9810   21.6050 F       1  UNL1       -0.1685
     25 C          -9.4631  -19.5557   19.2890 C.3     1  UNL1        0.0450
     26 C         -10.0124  -19.4838   20.6830 C.3     1  UNL1        0.2165
     27 O         -11.1132  -20.4116   21.1041 O.3     1  UNL1       -0.3737
     28 H         -11.3498  -20.2344   22.0280 H       1  UNL1        0.2111
@<TRIPOS>BOND
     1    26    25    1
     2    26    27    1
     3    26     1    1
     4     1     2    2
     5     2     3    1
     6     3     4    2
     7     4     5    1
     8     5     6    2
     9     6     7    1
    10     7     8    2
    11     8     9    1
    12     9    10    2
    13    10    11    1
    14    11    12    1
    15    13    12    1
    16    13    14    1
    17    14    15    1
    18    15    16    1
    19    16    18    1
    20    18    20    1
    21    20    21    1
    22    21    22    1
    23    21    23    1
    24    21    24    1
    25    16    17    1
    26    12     1    1
    27    17    13    1
    28    11     3    1
    29    10     6    1
    30    27    28    1
    31    18    19    1
@<TRIPOS>MOLECULE
*****
 28 31 0 0 0
SMALL
GASTEIGER

@<TRIPOS>ATOM
      1 C          -9.1321  -20.0674   19.2907 C.2     1  UNL1        0.3270
      2 N         -10.5626  -19.6316   19.4079 N.2     1  UNL1       -0.0380
      3 C         -10.6558  -18.6446   20.5336 C.2     1  UNL1        0.2637
      4 C         -11.8134  -17.8820   21.1065 C.2     1  UNL1        0.2821
      5 N         -11.5982  -16.9452   22.2580 N.2     1  UNL1       -0.0268
      6 C         -10.2253  -16.7710   22.8366 C.2     1  UNL1        0.3760
      7 N          -9.7110  -15.9252   23.9636 N.2     1  UNL1       -0.0306
      8 C          -8.2355  -16.1652   24.0872 C.2     1  UNL1        0.2361
      9 C          -7.8378  -17.1592   23.0366 C.2     1  UNL1        0.0583
     10 C          -9.0676  -17.5336   22.2636 C.2     1  UNL1        0.1203
     11 C          -9.2829  -18.4704   21.1121 C.3     1  UNL1        0.2596
     12 N          -8.3412  -19.3497   20.3440 N.pl3   1  UNL1       -0.1887
     13 C          -6.8674  -19.4873   20.5866 C.3     1  UNL1        0.1619
     14 C          -6.2261  -20.2220   21.7264 C.3     1  UNL1        0.0480
     15 C          -4.7385  -20.1030   21.5762 C.3     1  UNL1        0.0200
     16 C          -4.4602  -19.2948   20.3436 C.3     1  UNL1        0.0583
     17 C          -5.7759  -18.9142   19.7320 C.3     1  UNL1        0.0623
     18 N          -3.1041  -18.9309   19.8154 N.3     1  UNL1       -0.2913
     19 H          -3.2373  -18.1459   19.1779 H       1  UNL1        0.1235
     20 C          -2.0106  -18.5378   20.7639 C.3     1  UNL1        0.1731
     21 C          -1.8622  -17.1060   21.1854 C.3     1  UNL1        0.4118
     22 F          -1.7139  -15.6741   21.6070 F       1  UNL1       -0.1685
     23 F          -0.8713  -16.8836   20.0815 F       1  UNL1       -0.1685
     24 F          -2.8531  -17.3283   22.2893 F       1  UNL1       -0.1685
     25 C          -9.2140  -21.1640   16.9369 C.3     1  UNL1        0.0450
     26 C          -8.5880  -21.0486   18.2951 C.3     1  UNL1        0.2165
     27 O          -7.4180  -21.9143   18.6577 O.3     1  UNL1       -0.3737
     28 H          -7.1370  -21.7149   19.5645 H       1  UNL1        0.2111
@<TRIPOS>BOND
     1    26    25    1
     2    26    27    1
     3    26     1    1
     4     1     2    2
     5     2     3    1
     6     3     4    2
     7     4     5    1
     8     5     6    2
     9     6     7    1
    10     7     8    2
    11     8     9    1
    12     9    10    2
    13    10    11    1
    14    11    12    1
    15    13    12    1
    16    13    14    1
    17    14    15    1
    18    15    16    1
    19    16    18    1
    20    18    20    1
    21    20    21    1
    22    21    22    1
    23    21    23    1
    24    21    24    1
    25    16    17    1
    26    12     1    1
    27    17    13    1
    28    11     3    1
    29    10     6    1
    30    27    28    1
    31    18    19    1
@<TRIPOS>MOLECULE
*****
 28 31 0 0 0
SMALL
GASTEIGER

@<TRIPOS>ATOM
      1 C         -11.1817   -3.5453   18.3496 C.2     1  UNL1        0.3270
      2 N         -11.3212   -2.0652   18.5491 N.2     1  UNL1       -0.0380
      3 C         -12.7782   -1.7204   18.4577 C.2     1  UNL1        0.2637
      4 C         -13.5103   -0.4165   18.5744 C.2     1  UNL1        0.2821
      5 N         -15.0034   -0.3795   18.4352 N.2     1  UNL1       -0.0268
      6 C         -15.7643   -1.6466   18.1793 C.2     1  UNL1        0.3760
      7 N         -17.2282   -1.9191   17.9984 N.2     1  UNL1       -0.0306
      8 C         -17.4008   -3.3915   17.7699 C.2     1  UNL1        0.2361
      9 C         -16.0436   -4.0290   17.8095 C.2     1  UNL1        0.0583
     10 C         -15.0322   -2.9506   18.0625 C.2     1  UNL1        0.1203
     11 C         -13.5391   -2.9875   18.2017 C.3     1  UNL1        0.2596
     12 N         -12.5524   -4.1153   18.1350 N.pl3   1  UNL1       -0.1887
     13 C         -12.8791   -5.5596   17.8956 C.3     1  UNL1        0.1619
     14 C         -12.6374   -6.3194   16.6249 C.3     1  UNL1        0.0480
     15 C         -13.1137   -7.7269   16.8288 C.3     1  UNL1        0.0200
     16 C         -13.6498   -7.8372   18.2254 C.3     1  UNL1        0.0583
     17 C         -13.5048   -6.4977   18.8847 C.3     1  UNL1        0.0623
     18 N         -14.2292   -9.0706   18.8526 N.3     1  UNL1       -0.2913
     19 H         -13.9749   -9.0460   19.8401 H       1  UNL1        0.1235
     20 C         -15.7072   -9.3191   18.7921 C.3     1  UNL1        0.1731
     21 C         -16.6501   -8.4189   19.5340 C.3     1  UNL1        0.4118
     22 F         -17.5930   -7.5187   20.2760 F       1  UNL1       -0.1685
     23 F         -16.9276   -7.6654   18.2671 F       1  UNL1       -0.1685
     24 F         -16.3726   -9.1725   20.8010 F       1  UNL1       -0.1685
     25 C          -9.2158   -4.6640   17.0713 C.3     1  UNL1        0.0450
     26 C          -9.8969   -4.3194   18.3626 C.3     1  UNL1        0.2165
     27 O          -9.2933   -4.7490   19.6668 O.3     1  UNL1       -0.3737
     28 H          -9.8551   -4.4478   20.3979 H       1  UNL1        0.2111
@<TRIPOS>BOND
     1    26    25    1
     2    26    27    1
     3    26     1    1
     4     1     2    2
     5     2     3    1
     6     3     4    2
     7     4     5    1
     8     5     6    2
     9     6     7    1
    10     7     8    2
    11     8     9    1
    12     9    10    2
    13    10    11    1
    14    11    12    1
    15    13    12    1
    16    13    14    1
    17    14    15    1
    18    15    16    1
    19    16    18    1
    20    18    20    1
    21    20    21    1
    22    21    22    1
    23    21    23    1
    24    21    24    1
    25    16    17    1
    26    12     1    1
    27    17    13    1
    28    11     3    1
    29    10     6    1
    30    27    28    1
    31    18    19    1
@<TRIPOS>MOLECULE
*****
 28 31 0 0 0
SMALL
GASTEIGER

@<TRIPOS>ATOM
      1 C          -6.5818  -16.3202   24.6549 C.2     1  UNL1        0.3270
      2 N          -8.0531  -16.0436   24.7476 N.2     1  UNL1       -0.0380
      3 C          -8.7228  -16.6995   23.5765 C.2     1  UNL1        0.2637
      4 C         -10.1588  -16.7638   23.1481 C.2     1  UNL1        0.2821
      5 N         -10.5374  -17.5101   21.9032 N.2     1  UNL1       -0.0268
      6 C          -9.4799  -18.1920   21.0867 C.2     1  UNL1        0.3760
      7 N          -9.5509  -18.9961   19.8225 N.2     1  UNL1       -0.0306
      8 C          -8.1587  -19.4287   19.4695 C.2     1  UNL1        0.2361
      9 C          -7.2272  -18.8920   20.5156 C.2     1  UNL1        0.0583
     10 C          -8.0438  -18.1276   21.5152 C.2     1  UNL1        0.1203
     11 C          -7.6653  -17.3814   22.7600 C.3     1  UNL1        0.2596
     12 N          -6.3421  -17.1470   23.4265 N.pl3   1  UNL1       -0.1887
     13 C          -5.0126  -17.6509   22.9486 C.3     1  UNL1        0.1619
     14 C          -4.6585  -19.0828   22.6759 C.3     1  UNL1        0.0480
     15 C          -3.2309  -19.1282   22.2182 C.3     1  UNL1        0.0200
     16 C          -2.7025  -17.7244   22.2079 C.3     1  UNL1        0.0583
     17 C          -3.8036  -16.8114   22.6593 C.3     1  UNL1        0.0623
     18 N          -1.3162  -17.3070   21.8152 N.3     1  UNL1       -0.2913
     19 H          -0.6988  -18.0870   22.0407 H       1  UNL1        0.1235
     20 C          -1.0235  -16.9194   20.3960 C.3     1  UNL1        0.1731
     21 C          -1.4913  -17.7914   19.2687 C.3     1  UNL1        0.4118
     22 F          -1.9591  -18.6633   18.1414 F       1  UNL1       -0.1685
     23 F          -2.6221  -16.8421   19.0036 F       1  UNL1       -0.1685
     24 F          -0.3606  -18.7406   19.5337 F       1  UNL1       -0.1685
     25 C          -5.5323  -14.4287   26.0939 C.3     1  UNL1        0.0450
     26 C          -5.5341  -15.8522   25.6210 C.3     1  UNL1        0.2165
     27 O          -4.4883  -16.8077   26.1142 O.3     1  UNL1       -0.3737
     28 H          -4.6323  -17.6794   25.7140 H       1  UNL1        0.2111
@<TRIPOS>BOND
     1    26    25    1
     2    26    27    1
     3    26     1    1
     4     1     2    2
     5     2     3    1
     6     3     4    2
     7     4     5    1
     8     5     6    2
     9     6     7    1
    10     7     8    2
    11     8     9    1
    12     9    10    2
    13    10    11    1
    14    11    12    1
    15    13    12    1
    16    13    14    1
    17    14    15    1
    18    15    16    1
    19    16    18    1
    20    18    20    1
    21    20    21    1
    22    21    22    1
    23    21    23    1
    24    21    24    1
    25    16    17    1
    26    12     1    1
    27    17    13    1
    28    11     3    1
    29    10     6    1
    30    27    28    1
    31    18    19    1
