@<TRIPOS>MOLECULE
*****
 31 33 0 0 0
SMALL
GASTEIGER

@<TRIPOS>ATOM
      1 C         -10.4992  -18.5609   19.4798 C.3     1  UNL1        0.1152
      2 N          -9.5964  -18.4319   20.6707 N.am    1  UNL1       -0.2729
      3 C          -8.3371  -19.2430   20.7485 C.2     1  UNL1        0.2459
      4 O          -7.9806  -20.1833   19.6354 O.2     1  UNL1       -0.2730
      5 C          -7.4341  -19.1140   21.9394 C.3     1  UNL1        0.1738
      6 N          -6.2266  -19.9950   22.0639 N.pl3   1  UNL1       -0.3253
      7 H          -6.3145  -20.9003   22.4409 H       1  UNL1        0.1473
      8 C          -4.8851  -19.4969   21.6142 C.ar    1  UNL1        0.0454
      9 C          -4.4983  -19.5859   20.1676 C.ar    1  UNL1        0.0206
     10 C          -3.1569  -19.0877   19.7180 C.ar    1  UNL1        0.0765
     11 C          -2.2021  -18.5005   20.7148 C.ar    1  UNL1        0.2901
     12 C          -2.5889  -18.4115   22.1613 C.ar    1  UNL1        0.0765
     13 C          -3.9303  -18.9097   22.6110 C.ar    1  UNL1        0.0206
     14 N          -0.8606  -18.0023   20.2651 N.pl3   1  UNL1        0.0809
     15 O           0.1643  -18.9689   19.7501 O.2     1  UNL1        0.0415
     16 O          -0.5441  -16.5376   20.3303 O.co2   1  UNL1       -0.5760
     17 C          -9.9528  -17.4916   21.7838 C.3     1  UNL1        0.1139
     18 C         -11.0344  -17.8570   22.7567 C.ar    1  UNL1       -0.0029
     19 C         -10.7465  -18.8171   23.8726 C.ar    1  UNL1       -0.0026
     20 C         -11.8281  -19.1824   24.8456 C.ar    1  UNL1       -0.0003
     21 C         -13.1977  -18.5876   24.7026 C.ar    1  UNL1       -0.0000
     22 C         -13.4856  -17.6275   23.5867 C.ar    1  UNL1       -0.0003
     23 C         -12.4041  -17.2622   22.6138 C.ar    1  UNL1       -0.0026
     24 C          -9.2277  -16.1861   21.9239 C.3     1  UNL1        0.0968
     25 N          -8.5678  -15.8304   23.2231 N.3     1  UNL1       -0.2689
     26 C          -9.2010  -15.8982   24.5812 C.3     1  UNL1        0.0748
     27 C          -8.1834  -15.4541   25.5899 C.3     1  UNL1        0.0480
     28 C          -6.9213  -15.1118   24.8551 C.3     1  UNL1        0.1278
     29 O          -5.6455  -14.6228   25.4743 O.3     1  UNL1       -0.3830
     30 C          -7.1588  -15.3443   23.3924 C.3     1  UNL1        0.1017
     31 H          -4.9845  -14.4761   24.7798 H       1  UNL1        0.2104
@<TRIPOS>UNITY_ATOM_ATTR
14 1
charge 1
16 1
charge -1
@<TRIPOS>BOND
     1     1     2    1
     2     2     3   am
     3     3     4    2
     4     3     5    1
     5     5     6    1
     6     6     8    1
     7     8     9   ar
     8     9    10   ar
     9    10    11   ar
    10    11    14    1
    11    14    15    2
    12    14    16    1
    13    11    12   ar
    14    12    13   ar
    15     2    17    1
    16    17    24    1
    17    24    25    1
    18    25    26    1
    19    26    27    1
    20    27    28    1
    21    28    29    1
    22    28    30    1
    23    17    18    1
    24    18    19   ar
    25    19    20   ar
    26    20    21   ar
    27    21    22   ar
    28    22    23   ar
    29    13     8   ar
    30    30    25    1
    31    23    18   ar
    32     6     7    1
    33    29    31    1
@<TRIPOS>MOLECULE
*****
 31 33 0 0 0
SMALL
GASTEIGER

@<TRIPOS>ATOM
      1 C          -8.8596  -16.0486   21.8149 C.3     1  UNL1        0.1152
      2 N          -8.4868  -17.3326   22.4948 N.am    1  UNL1       -0.2729
      3 C          -7.7200  -18.3824   21.7465 C.2     1  UNL1        0.2459
      4 O          -7.3261  -18.1482   20.3182 O.2     1  UNL1       -0.2730
      5 C          -7.3472  -19.6665   22.4264 C.3     1  UNL1        0.1738
      6 N          -6.2433  -20.5164   21.8707 N.pl3   1  UNL1       -0.3253
      7 H          -6.3766  -21.4855   21.7595 H       1  UNL1        0.1473
      8 C          -4.9363  -19.8898   21.4842 C.ar    1  UNL1        0.0454
      9 C          -4.4135  -20.0466   20.0871 C.ar    1  UNL1        0.0206
     10 C          -3.1065  -19.4201   19.7008 C.ar    1  UNL1        0.0765
     11 C          -2.3224  -18.6368   20.7116 C.ar    1  UNL1        0.2901
     12 C          -2.8453  -18.4800   22.1087 C.ar    1  UNL1        0.0765
     13 C          -4.1522  -19.1065   22.4950 C.ar    1  UNL1        0.0206
     14 N          -1.0154  -18.0102   20.3252 N.pl3   1  UNL1        0.0809
     15 O          -0.8072  -16.5361   20.5085 O.2     1  UNL1        0.0415
     16 O           0.0832  -18.8577   19.7554 O.co2   1  UNL1       -0.5760
     17 C          -8.8808  -17.5668   23.9231 C.3     1  UNL1        0.1139
     18 C          -8.2379  -16.7694   25.0189 C.ar    1  UNL1       -0.0029
     19 C          -8.8495  -16.7474   26.3883 C.ar    1  UNL1       -0.0026
     20 C          -8.2065  -15.9500   27.4841 C.ar    1  UNL1       -0.0003
     21 C          -6.9520  -15.1746   27.2104 C.ar    1  UNL1       -0.0000
     22 C          -6.3404  -15.1966   25.8410 C.ar    1  UNL1       -0.0003
     23 C          -6.9833  -15.9940   24.7452 C.ar    1  UNL1       -0.0026
     24 C          -9.9177  -18.5984   24.2556 C.3     1  UNL1        0.0968
     25 N         -11.3715  -18.2960   24.0435 N.3     1  UNL1       -0.2689
     26 C         -11.9418  -17.4164   22.9707 C.3     1  UNL1        0.0748
     27 C         -13.4330  -17.3968   23.1312 C.3     1  UNL1        0.0480
     28 C         -13.7844  -18.2645   24.3033 C.3     1  UNL1        0.1278
     29 O         -15.1671  -18.5298   24.8207 O.3     1  UNL1       -0.3830
     30 C         -12.5104  -18.8203   24.8672 C.3     1  UNL1        0.1017
     31 H         -15.1175  -19.1234   25.5863 H       1  UNL1        0.2104
@<TRIPOS>UNITY_ATOM_ATTR
14 1
charge 1
16 1
charge -1
@<TRIPOS>BOND
     1     1     2    1
     2     2     3   am
     3     3     4    2
     4     3     5    1
     5     5     6    1
     6     6     8    1
     7     8     9   ar
     8     9    10   ar
     9    10    11   ar
    10    11    14    1
    11    14    15    2
    12    14    16    1
    13    11    12   ar
    14    12    13   ar
    15     2    17    1
    16    17    24    1
    17    24    25    1
    18    25    26    1
    19    26    27    1
    20    27    28    1
    21    28    29    1
    22    28    30    1
    23    17    18    1
    24    18    19   ar
    25    19    20   ar
    26    20    21   ar
    27    21    22   ar
    28    22    23   ar
    29    13     8   ar
    30    30    25    1
    31    23    18   ar
    32     6     7    1
    33    29    31    1
@<TRIPOS>MOLECULE
*****
 31 33 0 0 0
SMALL
GASTEIGER

@<TRIPOS>ATOM
      1 C          -8.6446  -15.2836   26.2077 C.3     1  UNL1        0.1152
      2 N          -7.8277  -15.7200   25.0279 N.am    1  UNL1       -0.2729
      3 C          -6.3451  -15.4926   25.0169 C.2     1  UNL1        0.2459
      4 O          -5.6795  -14.8287   26.1858 O.2     1  UNL1       -0.2730
      5 C          -5.5280  -15.9291   23.8371 C.3     1  UNL1        0.1738
      6 N          -4.4816  -16.9912   24.0012 N.pl3   1  UNL1       -0.3253
      7 H          -4.3886  -17.4620   24.8608 H       1  UNL1        0.1473
      8 C          -3.5768  -17.3360   22.8555 C.ar    1  UNL1        0.0454
      9 C          -3.6020  -18.7164   22.2690 C.ar    1  UNL1        0.0206
     10 C          -2.6973  -19.0611   21.1234 C.ar    1  UNL1        0.0765
     11 C          -1.7673  -18.0256   20.5642 C.ar    1  UNL1        0.2901
     12 C          -1.7421  -16.6452   21.1506 C.ar    1  UNL1        0.0765
     13 C          -2.6468  -16.3004   22.2962 C.ar    1  UNL1        0.0206
     14 N          -0.8626  -18.3704   19.4185 N.pl3   1  UNL1        0.0809
     15 O           0.4955  -18.9497   19.6834 O.2     1  UNL1        0.0415
     16 O          -1.3158  -18.1359   18.0080 O.co2   1  UNL1       -0.5760
     17 C          -8.4932  -16.3840   23.8590 C.3     1  UNL1        0.1139
     18 C          -8.8288  -17.8448   23.9174 C.ar    1  UNL1       -0.0029
     19 C          -8.2118  -18.7958   22.9351 C.ar    1  UNL1       -0.0026
     20 C          -8.5474  -20.2567   22.9935 C.ar    1  UNL1       -0.0003
     21 C          -9.4998  -20.7665   24.0341 C.ar    1  UNL1       -0.0000
     22 C         -10.1167  -19.8154   25.0164 C.ar    1  UNL1       -0.0003
     23 C          -9.7812  -18.3546   24.9581 C.ar    1  UNL1       -0.0026
     24 C          -8.8233  -15.5871   22.6319 C.3     1  UNL1        0.0968
     25 N         -10.1218  -15.8151   21.9163 N.3     1  UNL1       -0.2689
     26 C         -11.3783  -16.3651   22.5234 C.3     1  UNL1        0.0748
     27 C         -12.4248  -16.4231   21.4503 C.3     1  UNL1        0.0480
     28 C         -11.8150  -15.9090   20.1800 C.3     1  UNL1        0.1278
     29 O         -12.5070  -15.7912   18.8544 O.3     1  UNL1       -0.3830
     30 C         -10.3916  -15.5332   20.4679 C.3     1  UNL1        0.1017
     31 H         -11.8901  -15.4305   18.1985 H       1  UNL1        0.2104
@<TRIPOS>UNITY_ATOM_ATTR
14 1
charge 1
16 1
charge -1
@<TRIPOS>BOND
     1     1     2    1
     2     2     3   am
     3     3     4    2
     4     3     5    1
     5     5     6    1
     6     6     8    1
     7     8     9   ar
     8     9    10   ar
     9    10    11   ar
    10    11    14    1
    11    14    15    2
    12    14    16    1
    13    11    12   ar
    14    12    13   ar
    15     2    17    1
    16    17    24    1
    17    24    25    1
    18    25    26    1
    19    26    27    1
    20    27    28    1
    21    28    29    1
    22    28    30    1
    23    17    18    1
    24    18    19   ar
    25    19    20   ar
    26    20    21   ar
    27    21    22   ar
    28    22    23   ar
    29    13     8   ar
    30    30    25    1
    31    23    18   ar
    32     6     7    1
    33    29    31    1
@<TRIPOS>MOLECULE
*****
 31 33 0 0 0
SMALL
GASTEIGER

@<TRIPOS>ATOM
      1 C          -8.8260  -15.5536   26.0990 C.3     1  UNL1        0.1152
      2 N          -7.9301  -15.9023   24.9476 N.am    1  UNL1       -0.2729
      3 C          -6.4540  -15.6542   25.0440 C.2     1  UNL1        0.2459
      4 O          -5.8737  -15.0573   26.2918 O.2     1  UNL1       -0.2730
      5 C          -5.5580  -16.0030   23.8926 C.3     1  UNL1        0.1738
      6 N          -4.4217  -16.9619   24.0902 N.pl3   1  UNL1       -0.3253
      7 H          -4.2674  -17.3669   24.9742 H       1  UNL1        0.1473
      8 C          -3.5203  -17.3038   22.9409 C.ar    1  UNL1        0.0454
      9 C          -3.4335  -18.7188   22.4511 C.ar    1  UNL1        0.0206
     10 C          -2.5322  -19.0607   21.3019 C.ar    1  UNL1        0.0765
     11 C          -1.7176  -17.9875   20.6425 C.ar    1  UNL1        0.2901
     12 C          -1.8044  -16.5724   21.1324 C.ar    1  UNL1        0.0765
     13 C          -2.7057  -16.2306   22.2816 C.ar    1  UNL1        0.0206
     14 N          -0.8162  -18.3294   19.4933 N.pl3   1  UNL1        0.0809
     15 O          -1.2859  -18.1208   18.0840 O.2     1  UNL1        0.0415
     16 O           0.5546  -18.8798   19.7533 O.co2   1  UNL1       -0.5760
     17 C          -8.5104  -16.4993   23.6999 C.3     1  UNL1        0.1139
     18 C          -9.9030  -17.0565   23.7125 C.ar    1  UNL1       -0.0029
     19 C         -10.9971  -16.3583   22.9605 C.ar    1  UNL1       -0.0026
     20 C         -12.3897  -16.9156   22.9731 C.ar    1  UNL1       -0.0003
     21 C         -12.6882  -18.1711   23.7377 C.ar    1  UNL1       -0.0000
     22 C         -11.5941  -18.8693   24.4897 C.ar    1  UNL1       -0.0003
     23 C         -10.2016  -18.3120   24.4771 C.ar    1  UNL1       -0.0026
     24 C          -7.6982  -16.5389   22.4395 C.3     1  UNL1        0.0968
     25 N          -7.7030  -17.7700   21.5825 N.3     1  UNL1       -0.2689
     26 C          -8.8240  -18.2213   20.6938 C.3     1  UNL1        0.0748
     27 C          -8.4015  -19.4962   20.0258 C.3     1  UNL1        0.0480
     28 C          -7.0195  -19.8329   20.5017 C.3     1  UNL1        0.1278
     29 O          -6.2110  -21.0268   20.0882 O.3     1  UNL1       -0.3830
     30 C          -6.5877  -18.7661   21.4638 C.3     1  UNL1        0.1017
     31 H          -5.3533  -21.0090   20.5409 H       1  UNL1        0.2104
@<TRIPOS>UNITY_ATOM_ATTR
14 1
charge 1
16 1
charge -1
@<TRIPOS>BOND
     1     1     2    1
     2     2     3   am
     3     3     4    2
     4     3     5    1
     5     5     6    1
     6     6     8    1
     7     8     9   ar
     8     9    10   ar
     9    10    11   ar
    10    11    14    1
    11    14    15    2
    12    14    16    1
    13    11    12   ar
    14    12    13   ar
    15     2    17    1
    16    17    24    1
    17    24    25    1
    18    25    26    1
    19    26    27    1
    20    27    28    1
    21    28    29    1
    22    28    30    1
    23    17    18    1
    24    18    19   ar
    25    19    20   ar
    26    20    21   ar
    27    21    22   ar
    28    22    23   ar
    29    13     8   ar
    30    30    25    1
    31    23    18   ar
    32     6     7    1
    33    29    31    1
@<TRIPOS>MOLECULE
*****
 31 33 0 0 0
SMALL
GASTEIGER

@<TRIPOS>ATOM
      1 C          -8.7271  -15.5494   21.9156 C.3     1  UNL1        0.1152
      2 N          -7.9165  -16.5807   22.6432 N.am    1  UNL1       -0.2729
      3 C          -6.6585  -16.1802   23.3552 C.2     1  UNL1        0.2459
      4 O          -6.2111  -14.7486   23.3397 O.2     1  UNL1       -0.2730
      5 C          -5.8477  -17.2115   24.0828 C.3     1  UNL1        0.1738
      6 N          -4.3597  -17.0564   24.1908 N.pl3   1  UNL1       -0.3253
      7 H          -3.9574  -16.7415   25.0324 H       1  UNL1        0.1473
      8 C          -3.4846  -17.3811   23.0166 C.ar    1  UNL1        0.0454
      9 C          -2.7398  -16.2869   22.3109 C.ar    1  UNL1        0.0206
     10 C          -1.8647  -16.6117   21.1368 C.ar    1  UNL1        0.0765
     11 C          -1.7343  -18.0306   20.6683 C.ar    1  UNL1        0.2901
     12 C          -2.4791  -19.1249   21.3740 C.ar    1  UNL1        0.0765
     13 C          -3.3542  -18.8001   22.5481 C.ar    1  UNL1        0.0206
     14 N          -0.8592  -18.3554   19.4941 N.pl3   1  UNL1        0.0809
     15 O           0.5082  -18.9313   19.7144 O.2     1  UNL1        0.0415
     16 O          -1.3514  -18.1041   18.0996 O.co2   1  UNL1       -0.5760
     17 C          -8.3638  -18.0123   22.6587 C.3     1  UNL1        0.1139
     18 C          -7.8393  -18.9732   21.6332 C.ar    1  UNL1       -0.0029
     19 C          -6.6208  -19.7959   21.9304 C.ar    1  UNL1       -0.0026
     20 C          -6.0962  -20.7568   20.9048 C.ar    1  UNL1       -0.0003
     21 C          -6.7902  -20.8948   19.5822 C.ar    1  UNL1       -0.0000
     22 C          -8.0086  -20.0720   19.2851 C.ar    1  UNL1       -0.0003
     23 C          -8.5332  -19.1112   20.3105 C.ar    1  UNL1       -0.0026
     24 C          -9.3357  -18.4832   23.6996 C.3     1  UNL1        0.0968
     25 N         -10.8078  -18.2751   23.5001 N.3     1  UNL1       -0.2689
     26 C         -11.4704  -17.8223   22.2329 C.3     1  UNL1        0.0748
     27 C         -12.9478  -17.7506   22.4823 C.3     1  UNL1        0.0480
     28 C         -13.1983  -18.1593   23.9037 C.3     1  UNL1        0.1278
     29 O         -14.5363  -18.2311   24.5777 O.3     1  UNL1       -0.3830
     30 C         -11.8756  -18.4834   24.5328 C.3     1  UNL1        0.1017
     31 H         -14.4208  -18.5227   25.4956 H       1  UNL1        0.2104
@<TRIPOS>UNITY_ATOM_ATTR
14 1
charge 1
16 1
charge -1
@<TRIPOS>BOND
     1     1     2    1
     2     2     3   am
     3     3     4    2
     4     3     5    1
     5     5     6    1
     6     6     8    1
     7     8     9   ar
     8     9    10   ar
     9    10    11   ar
    10    11    14    1
    11    14    15    2
    12    14    16    1
    13    11    12   ar
    14    12    13   ar
    15     2    17    1
    16    17    24    1
    17    24    25    1
    18    25    26    1
    19    26    27    1
    20    27    28    1
    21    28    29    1
    22    28    30    1
    23    17    18    1
    24    18    19   ar
    25    19    20   ar
    26    20    21   ar
    27    21    22   ar
    28    22    23   ar
    29    13     8   ar
    30    30    25    1
    31    23    18   ar
    32     6     7    1
    33    29    31    1
@<TRIPOS>MOLECULE
*****
 31 33 0 0 0
SMALL
GASTEIGER

@<TRIPOS>ATOM
      1 C          -9.2989  -16.5430   24.8331 C.3     1  UNL1        0.1152
      2 N          -8.0284  -16.4558   24.0406 N.am    1  UNL1       -0.2729
      3 C          -6.7487  -16.0606   24.7160 C.2     1  UNL1        0.2459
      4 O          -6.7396  -15.7526   26.1840 O.2     1  UNL1       -0.2730
      5 C          -5.4781  -15.9734   23.9235 C.3     1  UNL1        0.1738
      6 N          -4.4179  -17.0216   24.0883 N.pl3   1  UNL1       -0.3253
      7 H          -4.3178  -17.4895   24.9488 H       1  UNL1        0.1473
      8 C          -3.5102  -17.3571   22.9422 C.ar    1  UNL1        0.0454
      9 C          -2.7773  -16.2647   22.2214 C.ar    1  UNL1        0.0206
     10 C          -1.8696  -16.6002   21.0753 C.ar    1  UNL1        0.0765
     11 C          -1.6948  -18.0280   20.6500 C.ar    1  UNL1        0.2901
     12 C          -2.4277  -19.1203   21.3708 C.ar    1  UNL1        0.0765
     13 C          -3.3354  -18.7849   22.5169 C.ar    1  UNL1        0.0206
     14 N          -0.7871  -18.3634   19.5039 N.pl3   1  UNL1        0.0809
     15 O          -1.2485  -18.1460   18.0933 O.2     1  UNL1        0.0415
     16 O           0.5820  -18.9162   19.7684 O.co2   1  UNL1       -0.5760
     17 C          -8.0375  -16.7639   22.5726 C.3     1  UNL1        0.1139
     18 C          -7.4068  -18.0276   22.0674 C.ar    1  UNL1       -0.0029
     19 C          -7.5649  -19.3048   22.8380 C.ar    1  UNL1       -0.0026
     20 C          -6.9341  -20.5685   22.3329 C.ar    1  UNL1       -0.0003
     21 C          -6.1453  -20.5550   21.0572 C.ar    1  UNL1       -0.0000
     22 C          -5.9871  -19.2779   20.2866 C.ar    1  UNL1       -0.0003
     23 C          -6.6179  -18.0142   20.7917 C.ar    1  UNL1       -0.0026
     24 C          -8.6773  -15.8082   21.6097 C.3     1  UNL1        0.0968
     25 N         -10.0750  -16.0556   21.1245 N.3     1  UNL1       -0.2689
     26 C         -10.7201  -15.4162   19.9308 C.3     1  UNL1        0.0748
     27 C         -12.1167  -15.9513   19.8164 C.3     1  UNL1        0.0480
     28 C         -12.3348  -16.9214   20.9395 C.3     1  UNL1        0.1278
     29 O         -13.5937  -17.6918   21.2071 O.3     1  UNL1       -0.3830
     30 C         -11.0730  -16.9859   21.7480 C.3     1  UNL1        0.1017
     31 H         -13.4718  -18.2477   21.9926 H       1  UNL1        0.2104
@<TRIPOS>UNITY_ATOM_ATTR
14 1
charge 1
16 1
charge -1
@<TRIPOS>BOND
     1     1     2    1
     2     2     3   am
     3     3     4    2
     4     3     5    1
     5     5     6    1
     6     6     8    1
     7     8     9   ar
     8     9    10   ar
     9    10    11   ar
    10    11    14    1
    11    14    15    2
    12    14    16    1
    13    11    12   ar
    14    12    13   ar
    15     2    17    1
    16    17    24    1
    17    24    25    1
    18    25    26    1
    19    26    27    1
    20    27    28    1
    21    28    29    1
    22    28    30    1
    23    17    18    1
    24    18    19   ar
    25    19    20   ar
    26    20    21   ar
    27    21    22   ar
    28    22    23   ar
    29    13     8   ar
    30    30    25    1
    31    23    18   ar
    32     6     7    1
    33    29    31    1
@<TRIPOS>MOLECULE
*****
 31 33 0 0 0
SMALL
GASTEIGER

@<TRIPOS>ATOM
      1 C          -3.2194  -17.8481   25.0440 C.3     1  UNL1        0.1152
      2 N          -4.0995  -17.5554   23.8651 N.am    1  UNL1       -0.2729
      3 C          -5.0589  -16.4034   23.9132 C.2     1  UNL1        0.2459
      4 O          -5.1383  -15.5441   25.1401 O.2     1  UNL1       -0.2730
      5 C          -5.9390  -16.1106   22.7343 C.3     1  UNL1        0.1738
      6 N          -7.1430  -15.2310   22.8973 N.pl3   1  UNL1       -0.3253
      7 H          -7.0298  -14.2669   23.0613 H       1  UNL1        0.1473
      8 C          -8.5197  -15.8204   22.8103 C.ar    1  UNL1        0.0454
      9 C          -9.0868  -16.5764   23.9751 C.ar    1  UNL1        0.0206
     10 C         -10.4634  -17.1657   23.8881 C.ar    1  UNL1        0.0765
     11 C         -11.2729  -16.9990   22.6364 C.ar    1  UNL1        0.2901
     12 C         -10.7058  -16.2429   21.4716 C.ar    1  UNL1        0.0765
     13 C          -9.3292  -15.6536   21.5586 C.ar    1  UNL1        0.0206
     14 N         -12.6496  -17.5883   22.5494 N.pl3   1  UNL1        0.0809
     15 O         -13.3627  -18.0158   23.7980 O.2     1  UNL1        0.0415
     16 O         -13.3132  -17.7502   21.2140 O.co2   1  UNL1       -0.5760
     17 C          -4.0201  -18.4146   22.6382 C.3     1  UNL1        0.1139
     18 C          -3.0540  -18.0713   21.5433 C.ar    1  UNL1       -0.0029
     19 C          -2.1055  -16.9217   21.7132 C.ar    1  UNL1       -0.0026
     20 C          -1.1394  -16.5784   20.6183 C.ar    1  UNL1       -0.0003
     21 C          -1.1217  -17.3847   19.3536 C.ar    1  UNL1       -0.0000
     22 C          -2.0702  -18.5343   19.1837 C.ar    1  UNL1       -0.0003
     23 C          -3.0363  -18.8776   20.2785 C.ar    1  UNL1       -0.0026
     24 C          -4.9068  -19.6172   22.5061 C.3     1  UNL1        0.0968
     25 N          -6.2325  -19.4992   21.8143 N.3     1  UNL1       -0.2689
     26 C          -7.5750  -19.4590   22.4821 C.3     1  UNL1        0.0748
     27 C          -8.6207  -19.3356   21.4138 C.3     1  UNL1        0.0480
     28 C          -7.9245  -19.2997   20.0857 C.3     1  UNL1        0.1278
     29 O          -8.5877  -19.1831   18.7453 O.3     1  UNL1       -0.3830
     30 C          -6.4484  -19.4008   20.3331 C.3     1  UNL1        0.1017
     31 H          -7.9122  -19.1825   18.0493 H       1  UNL1        0.2104
@<TRIPOS>UNITY_ATOM_ATTR
14 1
charge 1
16 1
charge -1
@<TRIPOS>BOND
     1     1     2    1
     2     2     3   am
     3     3     4    2
     4     3     5    1
     5     5     6    1
     6     6     8    1
     7     8     9   ar
     8     9    10   ar
     9    10    11   ar
    10    11    14    1
    11    14    15    2
    12    14    16    1
    13    11    12   ar
    14    12    13   ar
    15     2    17    1
    16    17    24    1
    17    24    25    1
    18    25    26    1
    19    26    27    1
    20    27    28    1
    21    28    29    1
    22    28    30    1
    23    17    18    1
    24    18    19   ar
    25    19    20   ar
    26    20    21   ar
    27    21    22   ar
    28    22    23   ar
    29    13     8   ar
    30    30    25    1
    31    23    18   ar
    32     6     7    1
    33    29    31    1
@<TRIPOS>MOLECULE
*****
 31 33 0 0 0
SMALL
GASTEIGER

@<TRIPOS>ATOM
      1 C          -9.6086  -16.6414   25.2698 C.3     1  UNL1        0.1152
      2 N          -8.5077  -16.8833   24.2802 N.am    1  UNL1       -0.2729
      3 C          -7.1723  -16.2266   24.4685 C.2     1  UNL1        0.2459
      4 O          -6.9379  -15.3280   25.6465 O.2     1  UNL1       -0.2730
      5 C          -6.0713  -16.4685   23.4789 C.3     1  UNL1        0.1738
      6 N          -4.7613  -17.0365   23.9384 N.pl3   1  UNL1       -0.3253
      7 H          -4.6268  -17.2578   24.8882 H       1  UNL1        0.1473
      8 C          -3.6561  -17.2673   22.9507 C.ar    1  UNL1        0.0454
      9 C          -3.2434  -18.6662   22.6004 C.ar    1  UNL1        0.0206
     10 C          -2.1383  -18.8970   21.6128 C.ar    1  UNL1        0.0765
     11 C          -1.4459  -17.7289   20.9754 C.ar    1  UNL1        0.2901
     12 C          -1.8587  -16.3300   21.3257 C.ar    1  UNL1        0.0765
     13 C          -2.9638  -16.0992   22.3134 C.ar    1  UNL1        0.0206
     14 N          -0.3408  -17.9597   19.9877 N.pl3   1  UNL1        0.0809
     15 O          -0.6547  -18.0823   18.5261 O.2     1  UNL1        0.0415
     16 O           1.0782  -18.0679   20.4617 O.co2   1  UNL1       -0.5760
     17 C          -8.7421  -17.7819   23.1022 C.3     1  UNL1        0.1139
     18 C          -9.6540  -17.3441   21.9947 C.ar    1  UNL1       -0.0029
     19 C          -9.7277  -15.8956   21.6121 C.ar    1  UNL1       -0.0026
     20 C         -10.6397  -15.4578   20.5045 C.ar    1  UNL1       -0.0003
     21 C         -11.4780  -16.4686   19.7796 C.ar    1  UNL1       -0.0000
     22 C         -11.4043  -17.9171   20.1621 C.ar    1  UNL1       -0.0003
     23 C         -10.4923  -18.3549   21.2696 C.ar    1  UNL1       -0.0026
     24 C          -8.0645  -19.1183   23.0318 C.3     1  UNL1        0.0968
     25 N          -7.0563  -19.3922   21.9554 N.3     1  UNL1       -0.2689
     26 C          -6.4023  -20.7127   21.6753 C.3     1  UNL1        0.0748
     27 C          -5.4669  -20.5304   20.5170 C.3     1  UNL1        0.0480
     28 C          -5.5428  -19.0971   20.0811 C.3     1  UNL1        0.1278
     29 O          -4.7718  -18.4762   18.9542 O.3     1  UNL1       -0.3830
     30 C          -6.5251  -18.3936   20.9701 C.3     1  UNL1        0.1017
     31 H          -5.0043  -17.5373   18.8820 H       1  UNL1        0.2104
@<TRIPOS>UNITY_ATOM_ATTR
14 1
charge 1
16 1
charge -1
@<TRIPOS>BOND
     1     1     2    1
     2     2     3   am
     3     3     4    2
     4     3     5    1
     5     5     6    1
     6     6     8    1
     7     8     9   ar
     8     9    10   ar
     9    10    11   ar
    10    11    14    1
    11    14    15    2
    12    14    16    1
    13    11    12   ar
    14    12    13   ar
    15     2    17    1
    16    17    24    1
    17    24    25    1
    18    25    26    1
    19    26    27    1
    20    27    28    1
    21    28    29    1
    22    28    30    1
    23    17    18    1
    24    18    19   ar
    25    19    20   ar
    26    20    21   ar
    27    21    22   ar
    28    22    23   ar
    29    13     8   ar
    30    30    25    1
    31    23    18   ar
    32     6     7    1
    33    29    31    1
@<TRIPOS>MOLECULE
*****
 31 33 0 0 0
SMALL
GASTEIGER

@<TRIPOS>ATOM
      1 C          -9.9968   -5.7484   18.9581 C.3     1  UNL1        0.1152
      2 N         -11.0726   -5.9036   17.9244 N.am    1  UNL1       -0.2729
      3 C         -11.2034   -7.1908   17.1654 C.2     1  UNL1        0.2459
      4 O         -10.2583   -8.3228   17.4402 O.2     1  UNL1       -0.2730
      5 C         -12.2792   -7.3460   16.1317 C.3     1  UNL1        0.1738
      6 N         -13.3209   -8.4139   16.2878 N.pl3   1  UNL1       -0.3253
      7 H         -13.1977   -9.2889   15.8537 H       1  UNL1        0.1473
      8 C         -14.5502   -8.1488   17.1055 C.ar    1  UNL1        0.0454
      9 C         -14.4948   -8.2589   18.6004 C.ar    1  UNL1        0.0206
     10 C         -15.7241   -7.9937   19.4179 C.ar    1  UNL1        0.0765
     11 C         -17.0088   -7.6184   18.7406 C.ar    1  UNL1        0.2901
     12 C         -17.0642   -7.5083   17.2457 C.ar    1  UNL1        0.0765
     13 C         -15.8349   -7.7734   16.4281 C.ar    1  UNL1        0.0206
     14 N         -18.2382   -7.3532   19.5582 N.pl3   1  UNL1        0.0809
     15 O         -18.9383   -6.0308   19.4526 O.2     1  UNL1        0.0415
     16 O         -18.7673   -8.4104   20.4814 O.co2   1  UNL1       -0.5760
     17 C         -12.0176   -4.7716   17.6496 C.3     1  UNL1        0.1139
     18 C         -13.2656   -4.6210   18.4681 C.ar    1  UNL1       -0.0029
     19 C         -13.1869   -4.6386   19.9659 C.ar    1  UNL1       -0.0026
     20 C         -14.4349   -4.4879   20.7843 C.ar    1  UNL1       -0.0003
     21 C         -15.7616   -4.3198   20.1049 C.ar    1  UNL1       -0.0000
     22 C         -15.8403   -4.3022   18.6071 C.ar    1  UNL1       -0.0003
     23 C         -14.5923   -4.4528   17.7887 C.ar    1  UNL1       -0.0026
     24 C         -11.7147   -3.7902   16.5565 C.3     1  UNL1        0.0968
     25 N         -11.5622   -2.3330   16.8778 N.3     1  UNL1       -0.2689
     26 C         -10.3392   -1.4996   16.6337 C.3     1  UNL1        0.0748
     27 C         -10.6270   -0.1048   17.1047 C.3     1  UNL1        0.0480
     28 C         -12.0280   -0.0763   17.6400 C.3     1  UNL1        0.1278
     29 O         -12.7281    1.1194   18.2146 O.3     1  UNL1       -0.3830
     30 C         -12.6060   -1.4533   17.4998 C.3     1  UNL1        0.1017
     31 H         -13.6246    0.8690   18.4874 H       1  UNL1        0.2104
@<TRIPOS>UNITY_ATOM_ATTR
14 1
charge 1
16 1
charge -1
@<TRIPOS>BOND
     1     1     2    1
     2     2     3   am
     3     3     4    2
     4     3     5    1
     5     5     6    1
     6     6     8    1
     7     8     9   ar
     8     9    10   ar
     9    10    11   ar
    10    11    14    1
    11    14    15    2
    12    14    16    1
    13    11    12   ar
    14    12    13   ar
    15     2    17    1
    16    17    24    1
    17    24    25    1
    18    25    26    1
    19    26    27    1
    20    27    28    1
    21    28    29    1
    22    28    30    1
    23    17    18    1
    24    18    19   ar
    25    19    20   ar
    26    20    21   ar
    27    21    22   ar
    28    22    23   ar
    29    13     8   ar
    30    30    25    1
    31    23    18   ar
    32     6     7    1
    33    29    31    1
