@<TRIPOS>MOLECULE
*****
 24 27 0 0 0
SMALL
GASTEIGER

@<TRIPOS>ATOM
      1 C         -13.4869  -18.3303   24.0755 C.2     1  UNL1        0.1227
      2 C         -12.1406  -18.7569   24.5811 C.2     1  UNL1        0.0395
      3 C         -10.9309  -18.6138   23.7057 C.2     1  UNL1        0.0386
      4 BR         -9.5847  -19.0404   24.2112 Br      1  UNL1       -0.0489
      5 C         -11.0675  -18.0440   22.3249 C.2     1  UNL1        0.0281
      6 C         -10.0622  -17.7844   21.2423 C.2     1  UNL1        0.0963
      7 C         -10.7872  -17.1973   20.0676 C.2     1  UNL1        0.1049
      8 N         -12.2405  -17.0941   20.4243 N.2     1  UNL1       -0.2475
      9 C         -12.4137  -17.6174   21.8194 C.2     1  UNL1        0.0673
     10 C         -13.6234  -17.7605   22.6946 C.3     1  UNL1        0.1096
     11 C         -14.5460  -18.4789   26.4432 C.3     1  UNL1        0.2520
     12 O         -14.6966  -18.4734   24.9508 O.2     1  UNL1       -0.4753
     13 C          -8.5904  -18.0630   21.3206 C.2     1  UNL1        0.3428
     14 O          -8.0671  -19.4295   20.9908 O.2     1  UNL1       -0.2448
     15 O          -7.6418  -16.9750   21.7286 O.3     1  UNL1       -0.4454
     16 C          -8.1310  -15.8260   22.5596 C.3     1  UNL1        0.2087
     17 C          -7.6714  -15.6782   23.9797 C.3     1  UNL1        0.0445
     18 C          -6.2083  -15.5521   24.2853 C.3     1  UNL1        0.0210
     19 C          -5.7487  -15.4044   25.7055 C.3     1  UNL1        0.0722
     20 N          -6.7523  -15.3827   26.8201 N.3     1  UNL1       -0.2727
     21 C          -8.2154  -15.5087   26.5145 C.3     1  UNL1        0.0722
     22 C          -8.6750  -15.6565   25.0943 C.3     1  UNL1        0.0210
     23 C          -7.0519  -15.4657   26.0577 C.3     1  UNL1        0.0722
     24 C          -7.4676  -15.5993   24.7736 C.3     1  UNL1        0.0210
@<TRIPOS>BOND
     1    11    12    1
     2    12     1    1
     3     1     2    2
     4     2     3    1
     5     3     4    1
     6     3     5    2
     7     5     6    1
     8     6    13    1
     9    13    14    2
    10    13    15    1
    11    15    16    1
    12    16    17    1
    13    17    18    1
    14    18    19    1
    15    19    20    1
    16    20    21    1
    17    21    22    1
    18    20    23    1
    19    23    24    1
    20     6     7    2
    21     7     8    1
    22     8     9    2
    23     9    10    1
    24    10     1    1
    25     9     5    1
    26    22    17    1
    27    24    17    1
@<TRIPOS>MOLECULE
*****
 24 27 0 0 0
SMALL
GASTEIGER

@<TRIPOS>ATOM
      1 C          -6.2398  -19.1737   21.9295 C.2     1  UNL1        0.1227
      2 C          -6.8583  -17.9134   22.4579 C.2     1  UNL1        0.0395
      3 C          -8.1828  -17.4489   21.9285 C.2     1  UNL1        0.0386
      4 BR         -8.8013  -16.1886   22.4568 Br      1  UNL1       -0.0489
      5 C          -8.8886  -18.2446   20.8708 C.2     1  UNL1        0.0281
      6 C         -10.1945  -18.0370   20.1626 C.2     1  UNL1        0.0963
      7 C         -10.3830  -19.1689   19.1966 C.2     1  UNL1        0.1049
      8 N          -9.1937  -20.0761   19.3078 N.2     1  UNL1       -0.2475
      9 C          -8.2700  -19.5048   20.3425 C.2     1  UNL1        0.0673
     10 C          -6.9457  -19.9694   20.8718 C.3     1  UNL1        0.1096
     11 C          -3.8743  -18.6355   22.8592 C.3     1  UNL1        0.2520
     12 O          -4.9155  -19.6383   22.4589 O.2     1  UNL1       -0.4753
     13 C         -11.1449  -16.8974   20.3820 C.2     1  UNL1        0.3428
     14 O         -11.1049  -15.7024   19.4763 O.2     1  UNL1       -0.2448
     15 O         -12.1354  -16.9529   21.5071 O.3     1  UNL1       -0.4454
     16 C         -12.4530  -18.2641   22.1629 C.3     1  UNL1        0.2087
     17 C         -11.4956  -18.8589   23.1526 C.3     1  UNL1        0.0445
     18 C         -10.8845  -20.2034   22.8902 C.3     1  UNL1        0.0210
     19 C          -9.9271  -20.7982   23.8800 C.3     1  UNL1        0.0722
     20 N          -9.5808  -20.0484   25.1322 N.3     1  UNL1       -0.2727
     21 C         -10.1919  -18.7039   25.3946 C.3     1  UNL1        0.0722
     22 C         -11.1493  -18.1091   24.4048 C.3     1  UNL1        0.0210
     23 C         -10.1105  -19.6819   24.6193 C.3     1  UNL1        0.0722
     24 C         -10.9762  -19.1441   23.7244 C.3     1  UNL1        0.0210
@<TRIPOS>BOND
     1    11    12    1
     2    12     1    1
     3     1     2    2
     4     2     3    1
     5     3     4    1
     6     3     5    2
     7     5     6    1
     8     6    13    1
     9    13    14    2
    10    13    15    1
    11    15    16    1
    12    16    17    1
    13    17    18    1
    14    18    19    1
    15    19    20    1
    16    20    21    1
    17    21    22    1
    18    20    23    1
    19    23    24    1
    20     6     7    2
    21     7     8    1
    22     8     9    2
    23     9    10    1
    24    10     1    1
    25     9     5    1
    26    22    17    1
    27    24    17    1
@<TRIPOS>MOLECULE
*****
 24 27 0 0 0
SMALL
GASTEIGER

@<TRIPOS>ATOM
      1 C          -2.3932  -18.9352   21.1815 C.2     1  UNL1        0.1227
      2 C          -3.3082  -19.9889   20.6316 C.2     1  UNL1        0.0395
      3 C          -4.7710  -19.9590   20.9627 C.2     1  UNL1        0.0386
      4 BR         -5.6860  -21.0127   20.4127 Br      1  UNL1       -0.0489
      5 C          -5.3186  -18.8755   21.8436 C.2     1  UNL1        0.0281
      6 C          -6.7053  -18.5898   22.3391 C.2     1  UNL1        0.0963
      7 C          -6.6473  -17.3595   23.1953 C.2     1  UNL1        0.1049
      8 N          -5.2248  -16.8849   23.2289 N.2     1  UNL1       -0.2475
      9 C          -4.4036  -17.8218   22.3935 C.2     1  UNL1        0.0673
     10 C          -2.9409  -17.8516   22.0625 C.3     1  UNL1        0.1096
     11 C          -0.3673  -17.9959   19.8537 C.3     1  UNL1        0.2520
     12 O          -0.9305  -18.9650   20.8505 O.2     1  UNL1       -0.4753
     13 C          -7.9342  -19.3933   22.0323 C.2     1  UNL1        0.3428
     14 O          -8.4726  -20.3576   23.0474 O.2     1  UNL1       -0.2448
     15 O          -8.6248  -19.2326   20.7105 O.3     1  UNL1       -0.4454
     16 C         -10.1008  -19.4762   20.6008 C.3     1  UNL1        0.2087
     17 C         -11.0630  -18.6004   21.3472 C.3     1  UNL1        0.0445
     18 C         -11.5351  -17.3142   20.7368 C.3     1  UNL1        0.0210
     19 C         -12.4973  -16.4384   21.4832 C.3     1  UNL1        0.0722
     20 N         -12.9874  -16.8490   22.8402 N.3     1  UNL1       -0.2727
     21 C         -12.5154  -18.1353   23.4506 C.3     1  UNL1        0.0722
     22 C         -11.5532  -19.0110   22.7041 C.3     1  UNL1        0.0210
     23 C         -12.4606  -17.3617   22.4693 C.3     1  UNL1        0.0722
     24 C         -11.5906  -18.1536   21.7945 C.3     1  UNL1        0.0210
@<TRIPOS>BOND
     1    11    12    1
     2    12     1    1
     3     1     2    2
     4     2     3    1
     5     3     4    1
     6     3     5    2
     7     5     6    1
     8     6    13    1
     9    13    14    2
    10    13    15    1
    11    15    16    1
    12    16    17    1
    13    17    18    1
    14    18    19    1
    15    19    20    1
    16    20    21    1
    17    21    22    1
    18    20    23    1
    19    23    24    1
    20     6     7    2
    21     7     8    1
    22     8     9    2
    23     9    10    1
    24    10     1    1
    25     9     5    1
    26    22    17    1
    27    24    17    1
@<TRIPOS>MOLECULE
*****
 24 27 0 0 0
SMALL
GASTEIGER

@<TRIPOS>ATOM
      1 C          -2.4327  -19.1640   20.8119 C.2     1  UNL1        0.1227
      2 C          -2.8703  -18.2627   21.9282 C.2     1  UNL1        0.0395
      3 C          -4.3292  -18.1143   22.2443 C.2     1  UNL1        0.0386
      4 BR         -4.7668  -17.2131   23.3606 Br      1  UNL1       -0.0489
      5 C          -5.3503  -18.8673   21.4441 C.2     1  UNL1        0.0281
      6 C          -6.8473  -18.9208   21.5233 C.2     1  UNL1        0.0963
      7 C          -7.3349  -19.8551   20.4559 C.2     1  UNL1        0.1049
      8 N          -6.1392  -20.3790   19.7171 N.2     1  UNL1       -0.2475
      9 C          -4.9127  -19.7686   20.3278 C.2     1  UNL1        0.0673
     10 C          -3.4540  -19.9169   20.0117 C.3     1  UNL1        0.1096
     11 C          -0.2352  -18.1943   19.8218 C.3     1  UNL1        0.2520
     12 O          -0.9740  -19.3124   20.4957 O.2     1  UNL1       -0.4753
     13 C          -7.7059  -18.1714   22.4986 C.2     1  UNL1        0.3428
     14 O          -8.4630  -18.9163   23.5579 O.2     1  UNL1       -0.2448
     15 O          -7.8075  -16.6772   22.4147 O.3     1  UNL1       -0.4454
     16 C          -8.5490  -15.9152   23.4728 C.3     1  UNL1        0.2087
     17 C          -7.9784  -15.8035   24.8554 C.3     1  UNL1        0.0445
     18 C          -6.6581  -15.1245   25.0694 C.3     1  UNL1        0.0210
     19 C          -6.0875  -15.0128   26.4521 C.3     1  UNL1        0.0722
     20 N          -6.8373  -15.5801   27.6209 N.3     1  UNL1       -0.2727
     21 C          -8.1576  -16.2590   27.4070 C.3     1  UNL1        0.0722
     22 C          -8.7281  -16.3707   26.0242 C.3     1  UNL1        0.0210
     23 C          -7.1900  -15.6654   26.8819 C.3     1  UNL1        0.0722
     24 C          -7.7060  -15.7665   25.6316 C.3     1  UNL1        0.0210
@<TRIPOS>BOND
     1    11    12    1
     2    12     1    1
     3     1     2    2
     4     2     3    1
     5     3     4    1
     6     3     5    2
     7     5     6    1
     8     6    13    1
     9    13    14    2
    10    13    15    1
    11    15    16    1
    12    16    17    1
    13    17    18    1
    14    18    19    1
    15    19    20    1
    16    20    21    1
    17    21    22    1
    18    20    23    1
    19    23    24    1
    20     6     7    2
    21     7     8    1
    22     8     9    2
    23     9    10    1
    24    10     1    1
    25     9     5    1
    26    22    17    1
    27    24    17    1
@<TRIPOS>MOLECULE
*****
 24 27 0 0 0
SMALL
GASTEIGER

@<TRIPOS>ATOM
      1 C          -5.9517  -15.5565   24.8538 C.2     1  UNL1        0.1227
      2 C          -7.3971  -15.8643   24.5969 C.2     1  UNL1        0.0395
      3 C          -7.7735  -16.9151   23.5947 C.2     1  UNL1        0.0386
      4 BR         -9.2189  -17.2230   23.3378 Br      1  UNL1       -0.0489
      5 C          -6.7045  -17.6579   22.8494 C.2     1  UNL1        0.0281
      6 C          -6.7709  -18.7379   21.8106 C.2     1  UNL1        0.0963
      7 C          -5.3665  -19.0975   21.4254 C.2     1  UNL1        0.1049
      8 N          -4.4322  -18.2398   22.2262 N.2     1  UNL1       -0.2475
      9 C          -5.2591  -17.3501   23.1063 C.2     1  UNL1        0.0673
     10 C          -4.8827  -16.2994   24.1085 C.3     1  UNL1        0.1096
     11 C          -6.1899  -14.5199   27.2241 C.3     1  UNL1        0.2520
     12 O          -5.5752  -14.5058   25.8559 O.2     1  UNL1       -0.4753
     13 C          -8.0220  -19.3507   21.2545 C.2     1  UNL1        0.3428
     14 O          -8.8899  -20.2072   22.1280 O.2     1  UNL1       -0.2448
     15 O          -8.4052  -19.1069   19.8249 O.3     1  UNL1       -0.4454
     16 C          -9.8401  -19.2211   19.4030 C.3     1  UNL1        0.2087
     17 C         -10.8691  -18.2989   19.9868 C.3     1  UNL1        0.0445
     18 C         -11.0098  -16.9019   19.4592 C.3     1  UNL1        0.0210
     19 C         -12.0388  -15.9798   20.0430 C.3     1  UNL1        0.0722
     20 N         -12.9272  -16.4548   21.1544 N.3     1  UNL1       -0.2727
     21 C         -12.7865  -17.8519   21.6819 C.3     1  UNL1        0.0722
     22 C         -11.7575  -18.7740   21.0981 C.3     1  UNL1        0.0210
     23 C         -12.3779  -16.9963   20.8663 C.3     1  UNL1        0.0722
     24 C         -11.4475  -17.8301   20.3385 C.3     1  UNL1        0.0210
@<TRIPOS>BOND
     1    11    12    1
     2    12     1    1
     3     1     2    2
     4     2     3    1
     5     3     4    1
     6     3     5    2
     7     5     6    1
     8     6    13    1
     9    13    14    2
    10    13    15    1
    11    15    16    1
    12    16    17    1
    13    17    18    1
    14    18    19    1
    15    19    20    1
    16    20    21    1
    17    21    22    1
    18    20    23    1
    19    23    24    1
    20     6     7    2
    21     7     8    1
    22     8     9    2
    23     9    10    1
    24    10     1    1
    25     9     5    1
    26    22    17    1
    27    24    17    1
@<TRIPOS>MOLECULE
*****
 24 27 0 0 0
SMALL
GASTEIGER

@<TRIPOS>ATOM
      1 C          -6.0050  -16.7734   23.5593 C.2     1  UNL1        0.1227
      2 C          -7.3974  -16.2326   23.4229 C.2     1  UNL1        0.0395
      3 C          -8.3404  -16.8325   22.4223 C.2     1  UNL1        0.0386
      4 BR         -9.7328  -16.2917   22.2860 Br      1  UNL1       -0.0489
      5 C          -7.8908  -17.9732   21.5582 C.2     1  UNL1        0.0281
      6 C          -8.5920  -18.7618   20.4922 C.2     1  UNL1        0.0963
      7 C          -7.6330  -19.7900   19.9697 C.2     1  UNL1        0.1049
      8 N          -6.3391  -19.6369   20.7129 N.2     1  UNL1       -0.2475
      9 C          -6.4984  -18.5140   21.6946 C.2     1  UNL1        0.0673
     10 C          -5.5555  -17.9142   22.6951 C.3     1  UNL1        0.1096
     11 C          -5.5981  -15.5377   25.8081 C.3     1  UNL1        0.2520
     12 O          -5.0621  -16.1736   24.5598 O.2     1  UNL1       -0.4753
     13 C         -10.0044  -18.5580   20.0298 C.2     1  UNL1        0.3428
     14 O         -10.4391  -17.2177   19.5154 O.2     1  UNL1       -0.2448
     15 O         -10.9820  -19.6944   20.0819 O.3     1  UNL1       -0.4454
     16 C         -11.0326  -20.5857   21.2874 C.3     1  UNL1        0.2087
     17 C         -10.9064  -19.9970   22.6612 C.3     1  UNL1        0.0445
     18 C         -11.9339  -19.0234   23.1573 C.3     1  UNL1        0.0210
     19 C         -11.8077  -18.4347   24.5312 C.3     1  UNL1        0.0722
     20 N         -10.6539  -18.8198   25.4090 N.3     1  UNL1       -0.2727
     21 C          -9.6264  -19.7934   24.9129 C.3     1  UNL1        0.0722
     22 C          -9.7526  -20.3821   23.5390 C.3     1  UNL1        0.0210
     23 C         -10.6808  -19.1686   24.6637 C.3     1  UNL1        0.0722
     24 C         -10.7948  -19.7009   23.4214 C.3     1  UNL1        0.0210
@<TRIPOS>BOND
     1    11    12    1
     2    12     1    1
     3     1     2    2
     4     2     3    1
     5     3     4    1
     6     3     5    2
     7     5     6    1
     8     6    13    1
     9    13    14    2
    10    13    15    1
    11    15    16    1
    12    16    17    1
    13    17    18    1
    14    18    19    1
    15    19    20    1
    16    20    21    1
    17    21    22    1
    18    20    23    1
    19    23    24    1
    20     6     7    2
    21     7     8    1
    22     8     9    2
    23     9    10    1
    24    10     1    1
    25     9     5    1
    26    22    17    1
    27    24    17    1
@<TRIPOS>MOLECULE
*****
 24 27 0 0 0
SMALL
GASTEIGER

@<TRIPOS>ATOM
      1 C          -7.1669  -15.8479   24.4941 C.2     1  UNL1        0.1227
      2 C          -8.4373  -16.4482   25.0191 C.2     1  UNL1        0.0395
      3 C          -9.0423  -17.6389   24.3362 C.2     1  UNL1        0.0386
      4 BR        -10.3128  -18.2392   24.8611 Br      1  UNL1       -0.0489
      5 C          -8.3770  -18.2291   23.1284 C.2     1  UNL1        0.0281
      6 C          -8.7364  -19.3925   22.2524 C.2     1  UNL1        0.0963
      7 C          -7.6882  -19.5112   21.1861 C.2     1  UNL1        0.1049
      8 N          -6.6809  -18.4211   21.4030 N.2     1  UNL1       -0.2475
      9 C          -7.1066  -17.6288   22.6034 C.2     1  UNL1        0.0673
     10 C          -6.5015  -16.4382   23.2863 C.3     1  UNL1        0.1096
     11 C          -5.4059  -14.8382   26.1156 C.3     1  UNL1        0.2520
     12 O          -6.5618  -14.6573   25.1770 O.2     1  UNL1       -0.4753
     13 C          -9.9339  -20.2812   22.4144 C.2     1  UNL1        0.3428
     14 O         -10.2351  -20.8983   23.7480 O.2     1  UNL1       -0.2448
     15 O         -10.8303  -20.5529   21.2427 O.3     1  UNL1       -0.4454
     16 C         -11.4448  -19.4115   20.4879 C.3     1  UNL1        0.2087
     17 C         -11.7295  -18.1160   21.1882 C.3     1  UNL1        0.0445
     18 C         -12.8660  -18.0242   22.1629 C.3     1  UNL1        0.0210
     19 C         -13.1506  -16.7286   22.8631 C.3     1  UNL1        0.0722
     20 N         -12.2987  -15.5248   22.5888 N.3     1  UNL1       -0.2727
     21 C         -11.1622  -15.6166   21.6142 C.3     1  UNL1        0.0722
     22 C         -10.8776  -16.9122   20.9139 C.3     1  UNL1        0.0210
     23 C         -12.1042  -16.2130   22.1809 C.3     1  UNL1        0.0722
     24 C         -11.8468  -17.3845   21.5476 C.3     1  UNL1        0.0210
@<TRIPOS>BOND
     1    11    12    1
     2    12     1    1
     3     1     2    2
     4     2     3    1
     5     3     4    1
     6     3     5    2
     7     5     6    1
     8     6    13    1
     9    13    14    2
    10    13    15    1
    11    15    16    1
    12    16    17    1
    13    17    18    1
    14    18    19    1
    15    19    20    1
    16    20    21    1
    17    21    22    1
    18    20    23    1
    19    23    24    1
    20     6     7    2
    21     7     8    1
    22     8     9    2
    23     9    10    1
    24    10     1    1
    25     9     5    1
    26    22    17    1
    27    24    17    1
@<TRIPOS>MOLECULE
*****
 24 27 0 0 0
SMALL
GASTEIGER

@<TRIPOS>ATOM
      1 C         -11.2368   -1.1367   17.5487 C.2     1  UNL1        0.1227
      2 C         -10.4087   -2.2247   16.9319 C.2     1  UNL1        0.0395
      3 C         -10.5889   -3.6467   17.3742 C.2     1  UNL1        0.0386
      4 BR         -9.7608   -4.7347   16.7573 Br      1  UNL1       -0.0489
      5 C         -11.5972   -3.9806   18.4333 C.2     1  UNL1        0.0281
      6 C         -11.9939   -5.2809   19.0672 C.2     1  UNL1        0.0963
      7 C         -13.0672   -4.9966   20.0758 C.2     1  UNL1        0.1049
      8 N         -13.3338   -3.5205   20.0653 N.2     1  UNL1       -0.2475
      9 C         -12.4253   -2.8926   19.0502 C.2     1  UNL1        0.0673
     10 C         -12.2451   -1.4707   18.6079 C.3     1  UNL1        0.1096
     11 C         -12.2262    1.2243   17.1056 C.3     1  UNL1        0.2520
     12 O         -11.0566    0.2852   17.1064 O.2     1  UNL1       -0.4753
     13 C         -11.4184   -6.6290   18.7484 C.2     1  UNL1        0.3428
     14 O         -10.0210   -6.9679   19.1753 O.2     1  UNL1       -0.2448
     15 O         -12.2403   -7.6381   18.0026 O.3     1  UNL1       -0.4454
     16 C         -13.6581   -7.3218   17.6284 C.3     1  UNL1        0.2087
     17 C         -14.7865   -8.0951   18.2436 C.3     1  UNL1        0.0445
     18 C         -15.6365   -7.4643   19.3064 C.3     1  UNL1        0.0210
     19 C         -16.7649   -8.2378   19.9215 C.3     1  UNL1        0.0722
     20 N         -17.0433   -9.6421   19.4738 N.3     1  UNL1       -0.2727
     21 C         -16.1933  -10.2729   18.4110 C.3     1  UNL1        0.0722
     22 C         -15.0649   -9.4995   17.7959 C.3     1  UNL1        0.0210
     23 C         -16.4140   -9.2578   19.1075 C.3     1  UNL1        0.0722
     24 C         -15.3937   -8.5585   18.5513 C.3     1  UNL1        0.0210
@<TRIPOS>BOND
     1    11    12    1
     2    12     1    1
     3     1     2    2
     4     2     3    1
     5     3     4    1
     6     3     5    2
     7     5     6    1
     8     6    13    1
     9    13    14    2
    10    13    15    1
    11    15    16    1
    12    16    17    1
    13    17    18    1
    14    18    19    1
    15    19    20    1
    16    20    21    1
    17    21    22    1
    18    20    23    1
    19    23    24    1
    20     6     7    2
    21     7     8    1
    22     8     9    2
    23     9    10    1
    24    10     1    1
    25     9     5    1
    26    22    17    1
    27    24    17    1
@<TRIPOS>MOLECULE
*****
 24 27 0 0 0
SMALL
GASTEIGER

@<TRIPOS>ATOM
      1 C          -8.3028  -15.8082   25.2171 C.2     1  UNL1        0.1227
      2 C          -9.0743  -16.7362   24.3262 C.2     1  UNL1        0.0395
      3 C          -8.3608  -17.5290   23.2714 C.2     1  UNL1        0.0386
      4 BR         -9.1323  -18.4570   22.3805 Br      1  UNL1       -0.0489
      5 C          -6.8760  -17.3938   23.1074 C.2     1  UNL1        0.0281
      6 C          -5.9074  -18.0415   22.1629 C.2     1  UNL1        0.0963
      7 C          -4.5372  -17.5139   22.4700 C.2     1  UNL1        0.1049
      8 N          -4.6591  -16.5401   23.6043 N.2     1  UNL1       -0.2475
      9 C          -6.1045  -16.4658   23.9983 C.2     1  UNL1        0.0673
     10 C          -6.8178  -15.6730   25.0531 C.3     1  UNL1        0.1096
     11 C          -8.4713  -14.9646   27.6685 C.3     1  UNL1        0.2520
     12 O          -9.0161  -15.0155   26.2719 O.2     1  UNL1       -0.4753
     13 C          -6.2489  -19.0414   21.0982 C.2     1  UNL1        0.3428
     14 O          -7.2575  -18.6978   20.0424 O.2     1  UNL1       -0.2448
     15 O          -5.5820  -20.3850   21.0893 O.3     1  UNL1       -0.4454
     16 C          -4.4265  -20.6427   20.1683 C.3     1  UNL1        0.2087
     17 C          -3.3580  -19.6040   19.9966 C.3     1  UNL1        0.0445
     18 C          -2.1722  -19.5889   20.9150 C.3     1  UNL1        0.0210
     19 C          -1.1038  -18.5501   20.7432 C.3     1  UNL1        0.0722
     20 N          -1.2213  -17.5265   19.6531 N.3     1  UNL1       -0.2727
     21 C          -2.4072  -17.5416   18.7347 C.3     1  UNL1        0.0722
     22 C          -3.4755  -18.5804   18.9065 C.3     1  UNL1        0.0210
     23 C          -1.8319  -18.0760   19.7082 C.3     1  UNL1        0.0722
     24 C          -2.7980  -19.0153   19.8634 C.3     1  UNL1        0.0210
@<TRIPOS>BOND
     1    11    12    1
     2    12     1    1
     3     1     2    2
     4     2     3    1
     5     3     4    1
     6     3     5    2
     7     5     6    1
     8     6    13    1
     9    13    14    2
    10    13    15    1
    11    15    16    1
    12    16    17    1
    13    17    18    1
    14    18    19    1
    15    19    20    1
    16    20    21    1
    17    21    22    1
    18    20    23    1
    19    23    24    1
    20     6     7    2
    21     7     8    1
    22     8     9    2
    23     9    10    1
    24    10     1    1
    25     9     5    1
    26    22    17    1
    27    24    17    1
