@<TRIPOS>MOLECULE
*****
 111 123 0 0 0
SMALL
GASTEIGER

@<TRIPOS>ATOM
      1 C           7.8975    0.2232   21.4175 C.2     1  UNL1        0.1319
      2 C           7.7998   -0.1726   19.9740 C.3     1  UNL1        0.0733
      3 C           6.7204    0.8491   22.1049 C.2     1  UNL1        0.1046
      4 N           5.7918    0.8296   20.9271 N.am    1  UNL1       -0.2788
      5 C           4.6333    0.9622   19.9834 C.2     1  UNL1        0.2466
      6 O           5.3074    0.3635   18.7845 O.2     1  UNL1       -0.2729
      7 C           3.3125    1.2390   19.3288 C.3     1  UNL1        0.1762
      8 N           1.9058    1.6441   19.0012 N.am    1  UNL1       -0.2916
      9 C           0.4952    2.1539   19.0197 C.2     1  UNL1        0.2645
     10 O           0.1716    1.8425   17.5885 O.2     1  UNL1       -0.2685
     11 C          -1.2316    2.9712   19.6902 C.ar    1  UNL1        0.1415
     12 C          -2.4463    3.1483   18.8282 C.ar    1  UNL1        0.0606
     13 S          -3.5193    3.7811   19.6637 S.2     1  UNL1       -0.0657
     14 C          -2.9678    3.9953   21.0421 C.ar    1  UNL1        0.1125
     15 N          -1.5539    3.4947   21.0585 N.ar    1  UNL1       -0.2337
     16 C          -3.6418    4.5939   22.2410 C.ar    1  UNL1        0.0460
     17 C          -4.6538    4.6254   21.1341 C.ar    1  UNL1        0.0421
     18 C          -6.0212    5.1888   21.3841 C.ar    1  UNL1        0.1583
     19 C          -6.3769    5.7208   22.7407 C.ar    1  UNL1        0.1388
     20 N          -5.3649    5.6893   23.8476 N.ar    1  UNL1       -0.2386
     21 C          -3.9974    5.1259   23.5977 C.ar    1  UNL1        0.1015
     22 C          -4.0139    5.5601   25.0334 C.ar    1  UNL1        0.1057
     23 C          -5.1305    6.1913   25.8110 C.ar    1  UNL1        0.0572
     24 S          -4.6427    6.4339   27.2085 S.2     1  UNL1       -0.0685
     25 C          -3.0455    6.0419   27.8081 C.ar    1  UNL1        0.1099
     26 N          -3.6903    5.8715   26.4645 N.ar    1  UNL1       -0.2394
     27 C          -2.1168    6.0613   28.9859 C.3     1  UNL1        0.1628
     28 C          -2.2815    6.5414   30.3975 C.3     1  UNL1        0.2348
     29 O          -1.8588    6.8120   31.8110 O.3     1  UNL1       -0.4421
     30 C          -0.9215    6.8264   32.9820 C.2     1  UNL1        0.3604
     31 O          -1.7689    7.4486   34.0520 O.2     1  UNL1       -0.2431
     32 C           0.3681    6.5821   33.7081 C.ar    1  UNL1        0.1710
     33 C           1.7870    6.1213   33.8638 C.ar    1  UNL1        0.0340
     34 C           2.2099    6.3919   35.2774 C.ar    1  UNL1        0.0186
     35 C           3.4994    6.1476   36.0035 C.ar    1  UNL1        0.0226
     36 C           3.6313    6.5313   37.4475 C.ar    1  UNL1       -0.0006
     37 C           2.4737    7.1594   38.1655 C.ar    1  UNL1        0.0014
     38 C           1.1841    7.4037   37.4394 C.ar    1  UNL1        0.0205
     39 C           1.0522    7.0200   35.9953 C.ar    1  UNL1        0.0972
     40 N          -0.0861    7.1375   35.0255 N.ar    1  UNL1       -0.1772
     41 O          -1.4407    7.7099   35.3211 O.3     1  UNL1       -0.4257
     42 C           4.9916    5.4896   35.5860 C.3     1  UNL1        0.2351
     43 O           6.0397    4.8564   34.7197 O.3     1  UNL1       -0.4418
     44 C           6.3254    4.3425   33.3398 C.2     1  UNL1        0.3474
     45 O           7.7357    3.8319   33.3180 O.2     1  UNL1       -0.2473
     46 C           5.7395    4.1442   31.9732 C.3     1  UNL1        0.2447
     47 C           4.5058    4.3373   31.1421 C.3     1  UNL1        0.1777
     48 O           4.0517    4.8927   32.4594 O.3     1  UNL1       -0.3462
     49 C           3.0900    5.5237   33.4221 C.3     1  UNL1        0.1705
     50 C           5.6894    3.5263   29.8423 C.3     1  UNL1        0.1489
     51 N           6.6427    2.8957   28.8709 N.am    1  UNL1       -0.2936
     52 C           7.3167    2.2971   27.6720 C.2     1  UNL1        0.2644
     53 O           8.6377    2.0202   28.3267 O.2     1  UNL1       -0.2685
     54 C           7.6723    1.7651   26.3154 C.ar    1  UNL1        0.1415
     55 C           8.9661    1.1642   25.8516 C.ar    1  UNL1        0.0606
     56 S           8.8114    0.7887   24.4076 S.2     1  UNL1       -0.0645
     57 C           7.3652    1.0195   23.4485 C.ar    1  UNL1        0.1270
     58 N           7.6888    1.3309   24.8797 N.ar    1  UNL1       -0.2324
     59 C           4.5123    4.1522   30.5297 C.ar    1  UNL1        0.1087
     60 N           3.1797    4.7371   30.8933 N.ar    1  UNL1       -0.2364
     61 C           1.7691    5.2468   30.9118 C.ar    1  UNL1        0.1412
     62 C           1.8883    4.7804   29.4912 C.ar    1  UNL1        0.0603
     63 S           3.2700    4.2290   29.2988 S.2     1  UNL1       -0.0684
     64 C           0.3625    5.6520   30.5843 C.2     1  UNL1        0.2644
     65 O           0.0069    6.1839   31.9409 O.2     1  UNL1       -0.2685
     66 N          -0.9584    5.9288   29.9296 N.am    1  UNL1       -0.2927
     67 H           6.4174    0.4157   20.2895 H       1  UNL1        0.1550
     68 H           1.9166    1.3591   18.0589 H       1  UNL1        0.1502
     69 H          -1.6350    8.0351   36.1781 H       1  UNL1        0.3257
     70 H           7.4030    2.8087   29.4903 H       1  UNL1        0.1502
     71 H          -1.4008    6.3217   30.7165 H       1  UNL1        0.1502
     72 C          -7.7443    6.2842   22.9907 C.ar    1  UNL1        0.1315
     73 N          -8.7792    5.7104   23.9126 N.ar    1  UNL1       -0.2321
     74 C          -9.9915    6.5919   23.8544 C.ar    1  UNL1        0.1415
     75 C          -9.7059    7.7103   22.8966 C.ar    1  UNL1        0.0606
     76 S          -8.3170    7.5201   22.3628 S.2     1  UNL1       -0.0642
     77 C         -11.2658    6.3903   24.6197 C.2     1  UNL1        0.2641
     78 O         -11.3012    5.4410   25.7806 O.2     1  UNL1       -0.2685
     79 N         -12.5046    7.1379   24.2241 N.am    1  UNL1       -0.2996
     80 H         -12.4813    7.7610   23.4622 H       1  UNL1        0.1498
     81 C         -13.7788    6.9363   24.9895 C.3     1  UNL1        0.0912
     82 C         -14.5722    5.6765   24.8065 C.3     1  UNL1        0.0386
     83 C         -14.8981    5.1894   23.4257 C.3     1  UNL1        0.0740
     84 N         -16.3018    5.2904   22.9066 N.3     1  UNL1       -0.2684
     85 C         -16.6592    6.3558   21.9132 C.3     1  UNL1        0.1046
     86 C         -18.0629    6.4568   21.3940 C.3     1  UNL1        0.1595
     87 O         -19.1091    5.4924   21.8684 O.3     1  UNL1       -0.3508
     88 C         -18.7517    4.4268   22.8619 C.3     1  UNL1        0.1595
     89 C         -17.3481    4.3258   23.3810 C.3     1  UNL1        0.1046
     90 C           3.6681    0.7071   17.9721 C.3     1  UNL1        0.1373
     91 C           3.0972   -0.5992   17.5054 C.3     1  UNL1        0.0340
     92 O           4.5945    1.4814   17.0821 O.3     1  UNL1       -0.3823
     93 H           4.7184    1.0012   16.2485 H       1  UNL1        0.2104
     94 C           9.5349   -1.3893   22.6295 C.3     1  UNL1        0.2520
     95 O           9.1724   -0.0069   22.1736 O.2     1  UNL1       -0.4744
     96 O          -7.0332    5.2203   20.2773 O.3     1  UNL1       -0.4698
     97 C          -6.8745    6.1894   19.1434 C.3     1  UNL1        0.2525
     98 O           6.7877    3.5110   31.1069 O.3     1  UNL1       -0.3190
     99 C           7.0579    2.0393   31.2110 C.3     1  UNL1        0.2380
    100 C           8.1847    1.5422   32.0673 C.3     1  UNL1        0.0896
    101 C           8.4548    0.0705   32.1714 C.3     1  UNL1        0.1089
    102 C           9.1004   -1.2183   32.5868 C.3     1  UNL1        0.0310
    103 O           9.5357    0.5976   33.0680 O.3     1  UNL1       -0.3852
    104 C           7.5982   -0.9044   31.4190 C.3     1  UNL1        0.1099
    105 C           6.4714   -0.4073   30.5627 C.3     1  UNL1        0.1347
    106 C           5.6148   -1.3821   29.8104 C.3     1  UNL1        0.0337
    107 O           6.2013    1.0645   30.4587 O.3     1  UNL1       -0.3315
    108 H           9.4852    1.5658   33.1005 H       1  UNL1        0.2103
    109 N           7.8683   -2.3761   31.5231 N.3     1  UNL1       -0.2675
    110 C           9.0734   -2.9667   30.8529 C.3     1  UNL1        0.0898
    111 C           6.9333   -3.2574   32.2973 C.3     1  UNL1        0.0898
@<TRIPOS>BOND
     1    94    95    1
     2    95     1    1
     3     1     2    1
     4     1     3    2
     5     3     4    1
     6     4     5   am
     7     5     6    2
     8     5     7    1
     9     7    90    1
    10    90    91    1
    11    90    92    1
    12     7     8    1
    13     8     9   am
    14     9    10    2
    15     9    11    1
    16    11    12   ar
    17    12    13   ar
    18    13    14   ar
    19    14    15   ar
    20    14    16    1
    21    16    17   ar
    22    17    18   ar
    23    18    96    1
    24    96    97    1
    25    18    19   ar
    26    19    72    1
    27    72    73   ar
    28    73    74   ar
    29    74    77    1
    30    77    78    2
    31    77    79   am
    32    79    81    1
    33    81    82    1
    34    82    83    1
    35    83    84    1
    36    84    85    1
    37    85    86    1
    38    86    87    1
    39    87    88    1
    40    88    89    1
    41    74    75   ar
    42    75    76   ar
    43    19    20   ar
    44    20    21   ar
    45    21    22    1
    46    22    23   ar
    47    23    24   ar
    48    24    25   ar
    49    25    26   ar
    50    25    27    1
    51    27    28    1
    52    28    29    1
    53    29    30    1
    54    30    31    2
    55    30    32    1
    56    32    33   ar
    57    33    34   ar
    58    34    35   ar
    59    35    36   ar
    60    36    37   ar
    61    37    38   ar
    62    38    39   ar
    63    39    40   ar
    64    40    41    1
    65    35    42    1
    66    42    43    1
    67    43    44    1
    68    44    45    2
    69    44    46    1
    70    46    98    1
    71    99    98    1
    72    99   100    1
    73   100   101    1
    74   101   102    1
    75   101   103    1
    76   101   104    1
    77   104   109    1
    78   109   110    1
    79   109   111    1
    80   104   105    1
    81   105   106    1
    82   105   107    1
    83    46    47    1
    84    47    48    1
    85    48    49    1
    86    47    50    1
    87    50    51    1
    88    51    52   am
    89    52    53    2
    90    52    54    1
    91    54    55   ar
    92    55    56   ar
    93    56    57   ar
    94    57    58   ar
    95    50    59    1
    96    59    60   ar
    97    60    61   ar
    98    61    62   ar
    99    62    63   ar
   100    61    64    1
   101    64    65    2
   102    64    66   am
   103    57     3    1
   104    63    59   ar
   105    15    11   ar
   106    21    16   ar
   107    26    22   ar
   108    66    27    1
   109    76    72   ar
   110    40    32   ar
   111   107    99    1
   112    58    54   ar
   113    89    84    1
   114    49    33    1
   115    39    34   ar
   116     4    67    1
   117    92    93    1
   118     8    68    1
   119    79    80    1
   120    41    69    1
   121   103   108    1
   122    51    70    1
   123    66    71    1
@<TRIPOS>MOLECULE
*****
 111 123 0 0 0
SMALL
GASTEIGER

@<TRIPOS>ATOM
      1 C           7.3987    0.6170   21.3429 C.2     1  UNL1        0.1319
      2 C           7.1997    0.2613   19.8993 C.3     1  UNL1        0.0733
      3 C           6.2734    1.2229   22.1280 C.2     1  UNL1        0.1046
      4 N           5.2647    1.2356   21.0179 N.am    1  UNL1       -0.2788
      5 C           4.0433    1.3937   20.1616 C.2     1  UNL1        0.2466
      6 O           4.6310    0.8288   18.9024 O.2     1  UNL1       -0.2729
      7 C           2.6803    1.6879   19.6090 C.3     1  UNL1        0.1762
      8 N           1.2547    2.1011   19.3919 N.am    1  UNL1       -0.2916
      9 C          -0.1504    2.6094   19.5231 C.2     1  UNL1        0.2645
     10 O          -0.5738    2.3377   18.1100 O.2     1  UNL1       -0.2685
     11 C          -1.8250    3.4070   20.3352 C.ar    1  UNL1        0.1415
     12 C          -3.0968    3.6072   19.5655 C.ar    1  UNL1        0.0606
     13 S          -4.1078    4.2160   20.4912 S.2     1  UNL1       -0.0657
     14 C          -3.4609    4.3921   21.8330 C.ar    1  UNL1        0.1125
     15 N          -2.0500    3.8921   21.7366 N.ar    1  UNL1       -0.2337
     16 C          -4.0486    4.9570   23.0923 C.ar    1  UNL1        0.0460
     17 C          -5.1354    5.0186   22.0602 C.ar    1  UNL1        0.0421
     18 C          -6.4813    5.5741   22.4207 C.ar    1  UNL1        0.1583
     19 C          -6.7404    6.0680   23.8131 C.ar    1  UNL1        0.1388
     20 N          -5.6536    6.0064   24.8452 N.ar    1  UNL1       -0.2386
     21 C          -4.3077    5.4509   24.4848 C.ar    1  UNL1        0.1015
     22 C          -4.2231    5.8451   25.9295 C.ar    1  UNL1        0.1057
     23 C          -5.2818    6.4539   26.8005 C.ar    1  UNL1        0.0572
     24 S          -4.6971    6.6579   28.1667 S.2     1  UNL1       -0.0685
     25 C          -3.0623    6.2502   28.6420 C.ar    1  UNL1        0.1099
     26 N          -3.7998    6.1168   27.3426 N.ar    1  UNL1       -0.2394
     27 C          -2.0536    6.2375   29.7521 C.3     1  UNL1        0.1628
     28 C          -2.1185    6.6781   31.1845 C.3     1  UNL1        0.2348
     29 O          -1.5975    6.9097   32.5719 O.3     1  UNL1       -0.4421
     30 C          -0.5806    6.8921   33.6744 C.2     1  UNL1        0.3604
     31 O          -1.3502    7.4839   34.8179 O.2     1  UNL1       -0.2431
     32 C           0.7562    6.6284   34.3015 C.ar    1  UNL1        0.1710
     33 C           2.1819    6.1642   34.3448 C.ar    1  UNL1        0.0340
     34 C           2.7030    6.3958   35.7322 C.ar    1  UNL1        0.0186
     35 C           4.0398    6.1321   36.3593 C.ar    1  UNL1        0.0226
     36 C           4.2729    6.4757   37.8007 C.ar    1  UNL1       -0.0006
     37 C           3.1692    7.0830   38.6150 C.ar    1  UNL1        0.0014
     38 C           1.8324    7.3466   37.9879 C.ar    1  UNL1        0.0205
     39 C           1.5992    7.0030   36.5465 C.ar    1  UNL1        0.0972
     40 N           0.3961    7.1468   35.6623 N.ar    1  UNL1       -0.1772
     41 O          -0.9337    7.7101   36.0677 O.3     1  UNL1       -0.4257
     42 C           5.4982    5.4867   35.8204 C.3     1  UNL1        0.2351
     43 O           6.4823    4.8784   34.8657 O.3     1  UNL1       -0.4418
     44 C           6.6701    4.4032   33.4555 C.2     1  UNL1        0.3474
     45 O           8.0746    3.8941   33.3210 O.2     1  UNL1       -0.2473
     46 C           5.9898    4.2425   32.1282 C.3     1  UNL1        0.2447
     47 C           4.7012    4.4579   31.3911 C.3     1  UNL1        0.1777
     48 O           4.3411    4.9763   32.7519 O.3     1  UNL1       -0.3462
     49 C           3.4500    5.5798   33.7966 C.3     1  UNL1        0.1705
     50 C           5.7899    3.6839   29.9898 C.3     1  UNL1        0.1489
     51 N           6.6720    3.0810   28.9370 N.am    1  UNL1       -0.2936
     52 C           7.2597    2.5162   27.6778 C.2     1  UNL1        0.2644
     53 O           8.6228    2.2220   28.2305 O.2     1  UNL1       -0.2685
     54 C           7.5188    2.0223   26.2854 C.ar    1  UNL1        0.1415
     55 C           8.7761    1.4352   25.7157 C.ar    1  UNL1        0.0606
     56 S           8.5203    1.0998   24.2762 S.2     1  UNL1       -0.0645
     57 C           7.0109    1.3563   23.4274 C.ar    1  UNL1        0.1270
     58 N           7.4342    1.6280   24.8406 N.ar    1  UNL1       -0.2324
     59 C           4.6646    4.2899   30.7749 C.ar    1  UNL1        0.1087
     60 N           3.3615    4.8637   31.2469 N.ar    1  UNL1       -0.2364
     61 C           1.9564    5.3720   31.3781 C.ar    1  UNL1        0.1412
     62 C           1.9753    4.9452   29.9403 C.ar    1  UNL1        0.0603
     63 S           3.3394    4.4001   29.6365 S.2     1  UNL1       -0.0684
     64 C           0.5309    5.7853   31.1612 C.2     1  UNL1        0.2644
     65 O           0.2718    6.2792   32.5536 O.2     1  UNL1       -0.2685
     66 N          -0.8322    6.0795   30.6084 N.am    1  UNL1       -0.2927
     67 H           5.8436    0.8399   20.3270 H       1  UNL1        0.1550
     68 H           1.1992    1.8424   18.4437 H       1  UNL1        0.1502
     69 H          -1.0672    8.0113   36.9448 H       1  UNL1        0.3257
     70 H           7.4736    2.9773   29.4990 H       1  UNL1        0.1502
     71 H          -1.2179    6.4502   31.4349 H       1  UNL1        0.1502
     72 C          -8.0863    6.6236   24.1737 C.ar    1  UNL1        0.1315
     73 N          -9.3150    6.5849   23.3142 N.ar    1  UNL1       -0.2321
     74 C         -10.4279    7.2527   24.0662 C.ar    1  UNL1        0.1415
     75 C          -9.8869    7.7041   25.3904 C.ar    1  UNL1        0.0606
     76 S          -8.4397    7.3153   25.4568 S.2     1  UNL1       -0.0642
     77 C         -11.8347    7.4368   23.5795 C.2     1  UNL1        0.2641
     78 O         -12.1126    7.5362   22.1088 O.2     1  UNL1       -0.2685
     79 N         -12.9638    7.5216   24.5635 N.am    1  UNL1       -0.2996
     80 H         -12.7814    7.4564   25.5287 H       1  UNL1        0.1498
     81 C         -14.3706    7.7057   24.0767 C.3     1  UNL1        0.0912
     82 C         -15.4853    6.9081   24.6858 C.3     1  UNL1        0.0386
     83 C         -15.2269    6.0610   25.8964 C.3     1  UNL1        0.0740
     84 N         -16.0374    6.2656   27.1419 N.3     1  UNL1       -0.2684
     85 C         -16.0197    5.2299   28.2268 C.3     1  UNL1        0.1046
     86 C         -16.8303    5.4345   29.4723 C.3     1  UNL1        0.1595
     87 O         -17.6584    6.6747   29.6328 O.3     1  UNL1       -0.3508
     88 C         -17.6761    7.7104   28.5479 C.3     1  UNL1        0.1595
     89 C         -16.8657    7.5059   27.3025 C.3     1  UNL1        0.1046
     90 C           2.9394    1.1940   18.2165 C.3     1  UNL1        0.1373
     91 C           2.2480   -0.0403   17.7177 C.3     1  UNL1        0.0340
     92 O           3.8898    1.9342   17.3228 O.3     1  UNL1       -0.3823
     93 H           3.9425    1.4855   16.4645 H       1  UNL1        0.2104
     94 C           9.3840   -0.9737   21.8710 C.3     1  UNL1        0.2520
     95 O           8.7230    0.3666   22.0013 O.2     1  UNL1       -0.4744
     96 O          -7.5681    5.6358   21.3887 O.3     1  UNL1       -0.4698
     97 C          -7.3079    6.2888   20.0637 C.3     1  UNL1        0.2525
     98 O           6.9739    3.6341   31.1735 O.3     1  UNL1       -0.3190
     99 C           7.3415    2.1852   31.2974 C.3     1  UNL1        0.2380
    100 C           6.7959    1.1868   30.3198 C.3     1  UNL1        0.0896
    101 C           7.1635   -0.2621   30.4438 C.3     1  UNL1        0.1089
    102 C           7.2209   -1.7320   30.1497 C.3     1  UNL1        0.0310
    103 O           6.2703   -0.3221   29.2402 O.3     1  UNL1       -0.3852
    104 C           8.0766   -0.7128   31.5452 C.3     1  UNL1        0.1099
    105 C           8.6222    0.2856   32.5228 C.3     1  UNL1        0.1347
    106 C           9.5353   -0.1649   33.6242 C.3     1  UNL1        0.0337
    107 O           8.2546    1.7346   32.3988 O.3     1  UNL1       -0.3315
    108 H           5.9462    0.5685   29.0334 H       1  UNL1        0.2103
    109 N           8.4442   -2.1617   31.6692 N.3     1  UNL1       -0.2675
    110 C           7.9335   -2.9688   32.8259 C.3     1  UNL1        0.0898
    111 C           9.3225   -2.8036   30.6363 C.3     1  UNL1        0.0898
@<TRIPOS>BOND
     1    94    95    1
     2    95     1    1
     3     1     2    1
     4     1     3    2
     5     3     4    1
     6     4     5   am
     7     5     6    2
     8     5     7    1
     9     7    90    1
    10    90    91    1
    11    90    92    1
    12     7     8    1
    13     8     9   am
    14     9    10    2
    15     9    11    1
    16    11    12   ar
    17    12    13   ar
    18    13    14   ar
    19    14    15   ar
    20    14    16    1
    21    16    17   ar
    22    17    18   ar
    23    18    96    1
    24    96    97    1
    25    18    19   ar
    26    19    72    1
    27    72    73   ar
    28    73    74   ar
    29    74    77    1
    30    77    78    2
    31    77    79   am
    32    79    81    1
    33    81    82    1
    34    82    83    1
    35    83    84    1
    36    84    85    1
    37    85    86    1
    38    86    87    1
    39    87    88    1
    40    88    89    1
    41    74    75   ar
    42    75    76   ar
    43    19    20   ar
    44    20    21   ar
    45    21    22    1
    46    22    23   ar
    47    23    24   ar
    48    24    25   ar
    49    25    26   ar
    50    25    27    1
    51    27    28    1
    52    28    29    1
    53    29    30    1
    54    30    31    2
    55    30    32    1
    56    32    33   ar
    57    33    34   ar
    58    34    35   ar
    59    35    36   ar
    60    36    37   ar
    61    37    38   ar
    62    38    39   ar
    63    39    40   ar
    64    40    41    1
    65    35    42    1
    66    42    43    1
    67    43    44    1
    68    44    45    2
    69    44    46    1
    70    46    98    1
    71    99    98    1
    72    99   100    1
    73   100   101    1
    74   101   102    1
    75   101   103    1
    76   101   104    1
    77   104   109    1
    78   109   110    1
    79   109   111    1
    80   104   105    1
    81   105   106    1
    82   105   107    1
    83    46    47    1
    84    47    48    1
    85    48    49    1
    86    47    50    1
    87    50    51    1
    88    51    52   am
    89    52    53    2
    90    52    54    1
    91    54    55   ar
    92    55    56   ar
    93    56    57   ar
    94    57    58   ar
    95    50    59    1
    96    59    60   ar
    97    60    61   ar
    98    61    62   ar
    99    62    63   ar
   100    61    64    1
   101    64    65    2
   102    64    66   am
   103    57     3    1
   104    63    59   ar
   105    15    11   ar
   106    21    16   ar
   107    26    22   ar
   108    66    27    1
   109    76    72   ar
   110    40    32   ar
   111   107    99    1
   112    58    54   ar
   113    89    84    1
   114    49    33    1
   115    39    34   ar
   116     4    67    1
   117    92    93    1
   118     8    68    1
   119    79    80    1
   120    41    69    1
   121   103   108    1
   122    51    70    1
   123    66    71    1
