@<TRIPOS>MOLECULE
*****
 37 41 0 0 0
SMALL
GASTEIGER

@<TRIPOS>ATOM
      1 N          -0.6659    1.6745   26.4293 N.am    1  UNL1       -0.3004
      2 C          -1.3005    3.0045   26.1490 C.2     1  UNL1        0.2482
      3 O          -1.1816    4.1176   27.1475 O.2     1  UNL1       -0.2701
      4 H          -0.7440    0.9440   25.7739 H       1  UNL1        0.1499
      5 C          -2.0539    3.2214   24.8702 C.ar    1  UNL1        0.0823
      6 C          -1.3183    3.2600   23.5636 C.ar    1  UNL1        0.0260
      7 C          -2.0717    3.4769   22.2848 C.ar    1  UNL1        0.0843
      8 N          -1.3361    3.5155   20.9782 N.2     1  UNL1       -0.2491
      9 C          -2.0895    3.7324   19.6993 C.2     1  UNL1        0.0664
     10 C          -1.3539    3.7710   18.3927 C.3     1  UNL1        0.0718
     11 C          -2.1073    3.9879   17.1140 C.2     1  UNL1       -0.0198
     12 C          -3.5964    4.1662   17.1419 C.2     1  UNL1       -0.0040
     13 C          -4.3321    4.1276   18.4485 C.2     1  UNL1        0.0041
     14 C          -3.5786    3.9107   19.7272 C.2     1  UNL1        0.0528
     15 C          -4.3143    3.8721   21.0339 C.2     1  UNL1        0.1982
     16 O          -5.8034    4.0504   21.0618 O.2     1  UNL1       -0.2865
     17 C          -3.5609    3.6552   22.3127 C.ar    1  UNL1        0.0588
     18 C          -4.2965    3.6166   23.6194 C.ar    1  UNL1        0.0345
     19 C          -3.5431    3.3997   24.8981 C.ar    1  UNL1        0.1446
     20 F          -4.2787    3.3611   26.2047 F       1  UNL1       -0.2040
     21 C           0.0875    1.4576   27.7080 C.3     1  UNL1        0.0775
     22 C           1.3180    2.0449   27.0826 C.3     1  UNL1        0.0243
     23 C          -1.1429    0.8704   28.3334 C.3     1  UNL1        0.0243
     24 C           2.3479    0.8069   31.5443 C.ar    1  UNL1        0.1318
     25 C           1.8571    2.1784   31.1864 C.ar    1  UNL1        0.0341
     26 C           1.1036    2.3953   29.9076 C.ar    1  UNL1        0.0017
     27 C           0.8410    1.2407   28.9868 C.ar    1  UNL1        0.0130
     28 C           1.3319   -0.1308   29.3447 C.ar    1  UNL1        0.0975
     29 N           2.0853   -0.3477   30.6234 N.ar    1  UNL1       -0.2294
     30 N           4.6084    0.1560   35.3805 N.3     1  UNL1       -0.2698
     31 C           3.8263    1.4195   35.1760 C.3     1  UNL1        0.0939
     32 C           3.0728    1.6365   33.8973 C.3     1  UNL1        0.1095
     33 N           3.1014    0.5899   32.8231 N.pl3   1  UNL1       -0.2904
     34 C           3.8836   -0.6736   33.0276 C.3     1  UNL1        0.1095
     35 C           4.6370   -0.8905   34.3063 C.3     1  UNL1        0.0939
     36 C           6.8608   -0.1148   36.6467 C.3     1  UNL1        0.0188
     37 C           5.3619   -0.0610   36.6593 C.3     1  UNL1        0.0722
@<TRIPOS>BOND
     1    36    37    1
     2    37    30    1
     3    30    31    1
     4    31    32    1
     5    32    33    1
     6    33    24    1
     7    24    25   ar
     8    25    26   ar
     9    26    27   ar
    10    27    21    1
    11    21    22    1
    12    21    23    1
    13    21     1    1
    14     1     2   am
    15     2     3    2
    16     2     5    1
    17     5     6   ar
    18     6     7   ar
    19     7     8    1
    20     8     9    2
    21     9    10    1
    22    10    11    1
    23    11    12    2
    24    12    13    1
    25    13    14    2
    26    14    15    1
    27    15    16    2
    28    15    17    1
    29    17    18   ar
    30    18    19   ar
    31    19    20    1
    32    27    28   ar
    33    28    29   ar
    34    33    34    1
    35    34    35    1
    36    35    30    1
    37    29    24   ar
    38    19     5   ar
    39    17     7   ar
    40    14     9    1
    41     1     4    1
@<TRIPOS>MOLECULE
*****
 37 41 0 0 0
SMALL
GASTEIGER

@<TRIPOS>ATOM
      1 N           1.6128    2.3741   29.0405 N.am    1  UNL1       -0.3004
      2 C           1.0465    1.5752   30.1768 C.2     1  UNL1        0.2482
      3 O          -0.3244    0.9772   30.0632 O.2     1  UNL1       -0.2701
      4 H           2.5126    2.7666   29.1151 H       1  UNL1        0.1499
      5 C           1.8512    1.3744   31.4267 C.ar    1  UNL1        0.0823
      6 C           1.5510    2.1879   32.6506 C.ar    1  UNL1        0.0260
      7 C           2.3557    1.9871   33.9006 C.ar    1  UNL1        0.0843
      8 N           2.0556    2.8006   35.1245 N.2     1  UNL1       -0.2491
      9 C           2.8602    2.5998   36.3745 C.2     1  UNL1        0.0664
     10 C           2.5601    3.4133   37.5984 C.3     1  UNL1        0.0718
     11 C           3.3647    3.2125   38.8483 C.2     1  UNL1       -0.0198
     12 C           4.4695    2.1982   38.8742 C.2     1  UNL1       -0.0040
     13 C           4.7696    1.3846   37.6503 C.2     1  UNL1        0.0041
     14 C           3.9650    1.5855   36.4004 C.2     1  UNL1        0.0528
     15 C           4.2651    0.7719   35.1764 C.2     1  UNL1        0.1982
     16 O           5.3698   -0.2424   35.2023 O.2     1  UNL1       -0.2865
     17 C           3.4604    0.9727   33.9265 C.ar    1  UNL1        0.0588
     18 C           3.7605    0.1592   32.7025 C.ar    1  UNL1        0.0345
     19 C           2.9559    0.3600   31.4526 C.ar    1  UNL1        0.1446
     20 F           3.2560   -0.4535   30.2287 F       1  UNL1       -0.2040
     21 C           0.8082    2.5749   27.7907 C.3     1  UNL1        0.0775
     22 C           1.3506    1.2914   27.2353 C.3     1  UNL1        0.0243
     23 C           0.2658    3.8583   28.3460 C.3     1  UNL1        0.0243
     24 C          -1.6057    3.1773   24.0410 C.ar    1  UNL1        0.1318
     25 C          -2.2556    3.3310   25.3841 C.ar    1  UNL1        0.0341
     26 C          -1.4509    3.1302   26.6340 C.ar    1  UNL1        0.0017
     27 C           0.0036    2.7757   26.5408 C.ar    1  UNL1        0.0130
     28 C           0.6535    2.6221   25.1976 C.ar    1  UNL1        0.0975
     29 N          -0.1511    2.8229   23.9477 N.ar    1  UNL1       -0.2294
     30 N          -4.0195    3.7798   20.2913 N.3     1  UNL1       -0.2698
     31 C          -2.5455    3.5174   20.2003 C.3     1  UNL1        0.0939
     32 C          -1.7408    3.3166   21.4501 C.3     1  UNL1        0.1095
     33 N          -2.4103    3.3782   22.7910 N.pl3   1  UNL1       -0.2904
     34 C          -3.8844    3.6405   22.8820 C.3     1  UNL1        0.1095
     35 C          -4.6890    3.8413   21.6322 C.3     1  UNL1        0.0939
     36 C          -6.1316    3.2662   18.8681 C.3     1  UNL1        0.0188
     37 C          -4.8242    3.9806   19.0413 C.3     1  UNL1        0.0722
@<TRIPOS>BOND
     1    36    37    1
     2    37    30    1
     3    30    31    1
     4    31    32    1
     5    32    33    1
     6    33    24    1
     7    24    25   ar
     8    25    26   ar
     9    26    27   ar
    10    27    21    1
    11    21    22    1
    12    21    23    1
    13    21     1    1
    14     1     2   am
    15     2     3    2
    16     2     5    1
    17     5     6   ar
    18     6     7   ar
    19     7     8    1
    20     8     9    2
    21     9    10    1
    22    10    11    1
    23    11    12    2
    24    12    13    1
    25    13    14    2
    26    14    15    1
    27    15    16    2
    28    15    17    1
    29    17    18   ar
    30    18    19   ar
    31    19    20    1
    32    27    28   ar
    33    28    29   ar
    34    33    34    1
    35    34    35    1
    36    35    30    1
    37    29    24   ar
    38    19     5   ar
    39    17     7   ar
    40    14     9    1
    41     1     4    1
@<TRIPOS>MOLECULE
*****
 37 41 0 0 0
SMALL
GASTEIGER

@<TRIPOS>ATOM
      1 N          -1.0698    1.9285   26.4827 N.am    1  UNL1       -0.3004
      2 C          -1.7882    3.2444   26.4327 C.2     1  UNL1        0.2482
      3 O          -1.4732    4.3096   27.4407 O.2     1  UNL1       -0.2701
      4 H          -1.2766    1.2294   25.8211 H       1  UNL1        0.1499
      5 C          -2.8217    3.4950   25.3748 C.ar    1  UNL1        0.0823
      6 C          -2.4475    3.4060   23.9250 C.ar    1  UNL1        0.0260
      7 C          -3.4810    3.6566   22.8670 C.ar    1  UNL1        0.0843
      8 N          -3.1069    3.5676   21.4171 N.2     1  UNL1       -0.2491
      9 C          -4.1403    3.8182   20.3591 C.2     1  UNL1        0.0664
     10 C          -3.7662    3.7292   18.9093 C.3     1  UNL1        0.0718
     11 C          -4.7996    3.9798   17.8514 C.2     1  UNL1       -0.0198
     12 C          -6.2071    4.3193   18.2433 C.2     1  UNL1       -0.0040
     13 C          -6.5812    4.4083   19.6931 C.2     1  UNL1        0.0041
     14 C          -5.5478    4.1577   20.7510 C.2     1  UNL1        0.0528
     15 C          -5.9219    4.2467   22.2010 C.2     1  UNL1        0.1982
     16 O          -7.3294    4.5862   22.5929 O.2     1  UNL1       -0.2865
     17 C          -4.8885    3.9961   23.2589 C.ar    1  UNL1        0.0588
     18 C          -5.2626    4.0851   24.7088 C.ar    1  UNL1        0.0345
     19 C          -4.2292    3.8345   25.7667 C.ar    1  UNL1        0.1446
     20 F          -4.6033    3.9235   27.2166 F       1  UNL1       -0.2040
     21 C          -0.0364    1.6780   27.5406 C.3     1  UNL1        0.0775
     22 C           0.9825    2.4104   26.7188 C.3     1  UNL1        0.0243
     23 C          -1.0553    0.9455   28.3624 C.3     1  UNL1        0.0243
     24 C           3.0639    0.9262   30.7144 C.ar    1  UNL1        0.1318
     25 C           3.1781    2.1279   29.8241 C.ar    1  UNL1        0.0341
     26 C           2.1447    2.3786   28.7661 C.ar    1  UNL1        0.0017
     27 C           0.9970    1.4274   28.5985 C.ar    1  UNL1        0.0130
     28 C           0.8828    0.2256   29.4889 C.ar    1  UNL1        0.0975
     29 N           1.9162   -0.0250   30.5468 N.ar    1  UNL1       -0.2294
     30 N           6.1641    0.1744   33.8882 N.3     1  UNL1       -0.2698
     31 C           4.8552   -0.5570   33.9302 C.3     1  UNL1        0.0939
     32 C           3.8217   -0.3064   32.8723 C.3     1  UNL1        0.1095
     33 N           4.0973    0.6755   31.7724 N.pl3   1  UNL1       -0.2904
     34 C           5.4063    1.4069   31.7304 C.3     1  UNL1        0.1095
     35 C           6.4397    1.1563   32.7883 C.3     1  UNL1        0.0939
     36 C           6.7964   -0.1208   36.3909 C.3     1  UNL1        0.0188
     37 C           7.1976   -0.0762   34.9462 C.3     1  UNL1        0.0722
@<TRIPOS>BOND
     1    36    37    1
     2    37    30    1
     3    30    31    1
     4    31    32    1
     5    32    33    1
     6    33    24    1
     7    24    25   ar
     8    25    26   ar
     9    26    27   ar
    10    27    21    1
    11    21    22    1
    12    21    23    1
    13    21     1    1
    14     1     2   am
    15     2     3    2
    16     2     5    1
    17     5     6   ar
    18     6     7   ar
    19     7     8    1
    20     8     9    2
    21     9    10    1
    22    10    11    1
    23    11    12    2
    24    12    13    1
    25    13    14    2
    26    14    15    1
    27    15    16    2
    28    15    17    1
    29    17    18   ar
    30    18    19   ar
    31    19    20    1
    32    27    28   ar
    33    28    29   ar
    34    33    34    1
    35    34    35    1
    36    35    30    1
    37    29    24   ar
    38    19     5   ar
    39    17     7   ar
    40    14     9    1
    41     1     4    1
@<TRIPOS>MOLECULE
*****
 37 41 0 0 0
SMALL
GASTEIGER

@<TRIPOS>ATOM
      1 N           0.4829    2.3828   27.4241 N.am    1  UNL1       -0.3004
      2 C           0.0163    1.4495   28.5018 C.2     1  UNL1        0.2482
      3 O          -1.3398    0.8150   28.4090 O.2     1  UNL1       -0.2701
      4 H           1.3729    2.7993   27.4850 H       1  UNL1        0.1499
      5 C           0.9056    1.1507   29.6721 C.ar    1  UNL1        0.0823
      6 C           0.8448    2.0111   30.8992 C.ar    1  UNL1        0.0260
      7 C           1.7342    1.7124   32.0696 C.ar    1  UNL1        0.0843
      8 N           1.6734    2.5728   33.2967 N.2     1  UNL1       -0.2491
      9 C           2.5628    2.2740   34.4671 C.2     1  UNL1        0.0664
     10 C           2.5020    3.1345   35.6942 C.3     1  UNL1        0.0718
     11 C           3.3914    2.8357   36.8645 C.2     1  UNL1       -0.0198
     12 C           4.3416    1.6764   36.8077 C.2     1  UNL1       -0.0040
     13 C           4.4024    0.8160   35.5806 C.2     1  UNL1        0.0041
     14 C           3.5131    1.1148   34.4103 C.2     1  UNL1        0.0528
     15 C           3.5739    0.2543   33.1831 C.2     1  UNL1        0.1982
     16 O           4.5241   -0.9049   33.1262 O.2     1  UNL1       -0.2865
     17 C           2.6845    0.5531   32.0128 C.ar    1  UNL1        0.0588
     18 C           2.7453   -0.3073   30.7855 C.ar    1  UNL1        0.0345
     19 C           1.8559   -0.0085   29.6152 C.ar    1  UNL1        0.1446
     20 F           1.9167   -0.8690   28.3881 F       1  UNL1       -0.2040
     21 C          -0.4065    2.6816   26.2538 C.3     1  UNL1        0.0775
     22 C          -0.9565    3.8753   26.9766 C.3     1  UNL1        0.0243
     23 C           0.1435    1.4879   25.5311 C.3     1  UNL1        0.0243
     24 C          -3.0747    3.5780   22.7428 C.ar    1  UNL1        0.1318
     25 C          -3.6383    3.5800   24.1329 C.ar    1  UNL1        0.0341
     26 C          -2.7489    3.2812   25.3033 C.ar    1  UNL1        0.0017
     27 C          -1.2959    2.9804   25.0835 C.ar    1  UNL1        0.0130
     28 C          -0.7323    2.9784   23.6934 C.ar    1  UNL1        0.0975
     29 N          -1.6217    3.2772   22.5231 N.ar    1  UNL1       -0.2294
     30 N          -5.7429    4.4744   19.2318 N.3     1  UNL1       -0.2698
     31 C          -4.3575    3.9458   19.0053 C.3     1  UNL1        0.0939
     32 C          -3.4682    3.6470   20.1756 C.3     1  UNL1        0.1095
     33 N          -3.9641    3.8768   21.5724 N.pl3   1  UNL1       -0.2904
     34 C          -5.3495    4.4055   21.7990 C.3     1  UNL1        0.1095
     35 C          -6.2389    4.7043   20.6287 C.3     1  UNL1        0.0939
     36 C          -6.0624    5.4137   16.8306 C.3     1  UNL1        0.0188
     37 C          -6.6323    4.7732   18.0614 C.3     1  UNL1        0.0722
@<TRIPOS>BOND
     1    36    37    1
     2    37    30    1
     3    30    31    1
     4    31    32    1
     5    32    33    1
     6    33    24    1
     7    24    25   ar
     8    25    26   ar
     9    26    27   ar
    10    27    21    1
    11    21    22    1
    12    21    23    1
    13    21     1    1
    14     1     2   am
    15     2     3    2
    16     2     5    1
    17     5     6   ar
    18     6     7   ar
    19     7     8    1
    20     8     9    2
    21     9    10    1
    22    10    11    1
    23    11    12    2
    24    12    13    1
    25    13    14    2
    26    14    15    1
    27    15    16    2
    28    15    17    1
    29    17    18   ar
    30    18    19   ar
    31    19    20    1
    32    27    28   ar
    33    28    29   ar
    34    33    34    1
    35    34    35    1
    36    35    30    1
    37    29    24   ar
    38    19     5   ar
    39    17     7   ar
    40    14     9    1
    41     1     4    1
@<TRIPOS>MOLECULE
*****
 37 41 0 0 0
SMALL
GASTEIGER

@<TRIPOS>ATOM
      1 N           2.2049    0.0330   27.8448 N.am    1  UNL1       -0.3004
      2 C           3.0273    0.7159   26.7923 C.2     1  UNL1        0.2482
      3 O           3.9486    1.8374   27.1708 O.2     1  UNL1       -0.2701
      4 H           1.6003   -0.7031   27.5963 H       1  UNL1        0.1499
      5 C           2.9282    0.2771   25.3613 C.ar    1  UNL1        0.0823
      6 C           3.8157   -0.8186   24.8498 C.ar    1  UNL1        0.0260
      7 C           3.7167   -1.2574   23.4187 C.ar    1  UNL1        0.0843
      8 N           4.6041   -2.3531   22.9072 N.2     1  UNL1       -0.2491
      9 C           4.5051   -2.7920   21.4761 C.2     1  UNL1        0.0664
     10 C           5.3925   -3.8877   20.9646 C.3     1  UNL1        0.0718
     11 C           5.2935   -4.3264   19.5336 C.2     1  UNL1       -0.0198
     12 C           4.3070   -3.6695   18.6143 C.2     1  UNL1       -0.0040
     13 C           3.4196   -2.5737   19.1258 C.2     1  UNL1        0.0041
     14 C           3.5186   -2.1350   20.5568 C.2     1  UNL1        0.0528
     15 C           2.6311   -1.0392   21.0684 C.2     1  UNL1        0.1982
     16 O           1.6446   -0.3822   20.1491 O.2     1  UNL1       -0.2865
     17 C           2.7302   -0.6004   22.4994 C.ar    1  UNL1        0.0588
     18 C           1.8427    0.4953   23.0110 C.ar    1  UNL1        0.0345
     19 C           1.9417    0.9341   24.4420 C.ar    1  UNL1        0.1446
     20 F           1.0543    2.0298   24.9536 F       1  UNL1       -0.2040
     21 C           2.3040    0.4718   29.2757 C.3     1  UNL1        0.0775
     22 C           3.3790   -0.5468   29.5136 C.3     1  UNL1        0.0243
     23 C           1.2290    1.4904   29.0378 C.3     1  UNL1        0.0243
     24 C           2.6011    1.7880   33.5686 C.ar    1  UNL1        0.1318
     25 C           1.5112    2.3295   32.6919 C.ar    1  UNL1        0.0341
     26 C           1.4121    1.8908   31.2609 C.ar    1  UNL1        0.0017
     27 C           2.4030    0.9105   30.7066 C.ar    1  UNL1        0.0130
     28 C           3.4930    0.3691   31.5835 C.ar    1  UNL1        0.0975
     29 N           3.5921    0.8078   33.0144 N.ar    1  UNL1       -0.2294
     30 N           2.8984    3.1041   37.8616 N.3     1  UNL1       -0.2698
     31 C           2.1292    3.9317   36.8750 C.3     1  UNL1        0.0939
     32 C           2.0301    3.4930   35.4440 C.3     1  UNL1        0.1095
     33 N           2.7002    2.2268   34.9996 N.pl3   1  UNL1       -0.2904
     34 C           3.4695    1.3992   35.9863 C.3     1  UNL1        0.1095
     35 C           3.5686    1.8379   37.4172 C.3     1  UNL1        0.0939
     36 C           4.2282    4.2509   39.7765 C.3     1  UNL1        0.0188
     37 C           2.9975    3.5429   39.2926 C.3     1  UNL1        0.0722
@<TRIPOS>BOND
     1    36    37    1
     2    37    30    1
     3    30    31    1
     4    31    32    1
     5    32    33    1
     6    33    24    1
     7    24    25   ar
     8    25    26   ar
     9    26    27   ar
    10    27    21    1
    11    21    22    1
    12    21    23    1
    13    21     1    1
    14     1     2   am
    15     2     3    2
    16     2     5    1
    17     5     6   ar
    18     6     7   ar
    19     7     8    1
    20     8     9    2
    21     9    10    1
    22    10    11    1
    23    11    12    2
    24    12    13    1
    25    13    14    2
    26    14    15    1
    27    15    16    2
    28    15    17    1
    29    17    18   ar
    30    18    19   ar
    31    19    20    1
    32    27    28   ar
    33    28    29   ar
    34    33    34    1
    35    34    35    1
    36    35    30    1
    37    29    24   ar
    38    19     5   ar
    39    17     7   ar
    40    14     9    1
    41     1     4    1
@<TRIPOS>MOLECULE
*****
 37 41 0 0 0
SMALL
GASTEIGER

@<TRIPOS>ATOM
      1 N          -0.1670    1.5388   25.9321 N.am    1  UNL1       -0.3004
      2 C          -0.4008    2.9342   25.4337 C.2     1  UNL1        0.2482
      3 O           0.0388    4.1083   26.2572 O.2     1  UNL1       -0.2701
      4 H          -0.4555    0.7682   25.3916 H       1  UNL1        0.1499
      5 C          -1.0742    3.1553   24.1117 C.ar    1  UNL1        0.0823
      6 C          -2.5147    3.5708   24.0641 C.ar    1  UNL1        0.0260
      7 C          -3.1882    3.7920   22.7422 C.ar    1  UNL1        0.0843
      8 N          -4.6287    4.2075   22.6945 N.2     1  UNL1       -0.2491
      9 C          -5.3022    4.4287   21.3726 C.2     1  UNL1        0.0664
     10 C          -6.7427    4.8441   21.3249 C.3     1  UNL1        0.0718
     11 C          -7.4162    5.0653   20.0030 C.2     1  UNL1       -0.0198
     12 C          -6.6491    4.8710   18.7287 C.2     1  UNL1       -0.0040
     13 C          -5.2086    4.4556   18.7763 C.2     1  UNL1        0.0041
     14 C          -4.5352    4.2344   20.0983 C.2     1  UNL1        0.0528
     15 C          -3.0946    3.8189   20.1459 C.2     1  UNL1        0.1982
     16 O          -2.3275    3.6246   18.8716 O.2     1  UNL1       -0.2865
     17 C          -2.4212    3.5977   21.4678 C.ar    1  UNL1        0.0588
     18 C          -0.9806    3.1822   21.5155 C.ar    1  UNL1        0.0345
     19 C          -0.3072    2.9611   22.8374 C.ar    1  UNL1        0.1446
     20 F           1.1333    2.5456   22.8851 F       1  UNL1       -0.2040
     21 C           0.5065    1.3176   27.2540 C.3     1  UNL1        0.0775
     22 C          -0.8331    1.2561   27.9262 C.3     1  UNL1        0.0243
     23 C           1.8460    1.3791   26.5819 C.3     1  UNL1        0.0243
     24 C           2.5268    0.6540   31.2199 C.ar    1  UNL1        0.1318
     25 C           2.3816    2.0441   30.6755 C.ar    1  UNL1        0.0341
     26 C           1.7082    2.2654   29.3535 C.ar    1  UNL1        0.0017
     27 C           1.1799    1.0964   28.5760 C.ar    1  UNL1        0.0130
     28 C           1.3251   -0.2937   29.1205 C.ar    1  UNL1        0.0975
     29 N           1.9985   -0.5149   30.4424 N.ar    1  UNL1       -0.2294
     30 N           4.5470   -0.0096   35.1858 N.3     1  UNL1       -0.2698
     31 C           4.5581   -1.0925   34.1479 C.3     1  UNL1        0.0939
     32 C           3.8847   -0.8713   32.8260 C.3     1  UNL1        0.1095
     33 N           3.2002    0.4328   32.5419 N.pl3   1  UNL1       -0.2904
     34 C           3.1891    1.5157   33.5798 C.3     1  UNL1        0.1095
     35 C           3.8625    1.2945   34.9017 C.3     1  UNL1        0.0939
     36 C           6.4267    0.5794   36.8799 C.3     1  UNL1        0.0188
     37 C           5.2205   -0.2308   36.5078 C.3     1  UNL1        0.0722
@<TRIPOS>BOND
     1    36    37    1
     2    37    30    1
     3    30    31    1
     4    31    32    1
     5    32    33    1
     6    33    24    1
     7    24    25   ar
     8    25    26   ar
     9    26    27   ar
    10    27    21    1
    11    21    22    1
    12    21    23    1
    13    21     1    1
    14     1     2   am
    15     2     3    2
    16     2     5    1
    17     5     6   ar
    18     6     7   ar
    19     7     8    1
    20     8     9    2
    21     9    10    1
    22    10    11    1
    23    11    12    2
    24    12    13    1
    25    13    14    2
    26    14    15    1
    27    15    16    2
    28    15    17    1
    29    17    18   ar
    30    18    19   ar
    31    19    20    1
    32    27    28   ar
    33    28    29   ar
    34    33    34    1
    35    34    35    1
    36    35    30    1
    37    29    24   ar
    38    19     5   ar
    39    17     7   ar
    40    14     9    1
    41     1     4    1
@<TRIPOS>MOLECULE
*****
 37 41 0 0 0
SMALL
GASTEIGER

@<TRIPOS>ATOM
      1 N           5.8941   -2.3595   31.3191 N.am    1  UNL1       -0.3004
      2 C           7.1368   -3.1996   31.3162 C.2     1  UNL1        0.2482
      3 O           8.1379   -3.0618   32.4248 O.2     1  UNL1       -0.2701
      4 H           5.2371   -2.4500   30.5916 H       1  UNL1        0.1499
      5 C           7.3785   -4.1775   30.2048 C.ar    1  UNL1        0.0823
      6 C           7.5946   -3.6835   28.8051 C.ar    1  UNL1        0.0260
      7 C           7.8362   -4.6614   27.6935 C.ar    1  UNL1        0.0843
      8 N           8.0524   -4.1675   26.2938 N.2     1  UNL1       -0.2491
      9 C           8.2940   -5.1454   25.1823 C.2     1  UNL1        0.0664
     10 C           8.5101   -4.6514   23.7826 C.3     1  UNL1        0.0718
     11 C           8.7517   -5.6293   22.6711 C.2     1  UNL1       -0.0198
     12 C           8.7772   -7.1011   22.9594 C.2     1  UNL1       -0.0040
     13 C           8.5611   -7.5951   24.3591 C.2     1  UNL1        0.0041
     14 C           8.3195   -6.6172   25.4706 C.2     1  UNL1        0.0528
     15 C           8.1033   -7.1111   26.8704 C.2     1  UNL1        0.1982
     16 O           8.1288   -8.5829   27.1587 O.2     1  UNL1       -0.2865
     17 C           7.8617   -6.1333   27.9818 C.ar    1  UNL1        0.0588
     18 C           7.6456   -6.6272   29.3816 C.ar    1  UNL1        0.0345
     19 C           7.4040   -5.6493   30.4931 C.ar    1  UNL1        0.1446
     20 F           7.1878   -6.1432   31.8928 F       1  UNL1       -0.2040
     21 C           5.6525   -1.3817   32.4306 C.3     1  UNL1        0.0775
     22 C           4.9135   -2.4371   33.1986 C.3     1  UNL1        0.0243
     23 C           6.3915   -0.3262   31.6626 C.3     1  UNL1        0.0243
     24 C           4.9276    1.5521   35.7649 C.ar    1  UNL1        0.1318
     25 C           4.7314    0.0840   36.0018 C.ar    1  UNL1        0.0341
     26 C           4.9730   -0.8940   34.8903 C.ar    1  UNL1        0.0017
     27 C           5.4109   -0.4038   33.5420 C.ar    1  UNL1        0.0130
     28 C           5.6071    1.0644   33.3052 C.ar    1  UNL1        0.0975
     29 N           5.3655    2.0423   34.4166 N.ar    1  UNL1       -0.2294
     30 N           4.2029    4.4859   39.0992 N.3     1  UNL1       -0.2698
     31 C           3.2185    3.3835   38.8430 C.3     1  UNL1        0.0939
     32 C           3.4600    2.4056   37.7316 C.3     1  UNL1        0.1095
     33 N           4.6860    2.5300   36.8764 N.pl3   1  UNL1       -0.2904
     34 C           5.6705    3.6324   37.1326 C.3     1  UNL1        0.1095
     35 C           5.4289    4.6103   38.2440 C.3     1  UNL1        0.0939
     36 C           3.9988    5.0021   41.6373 C.3     1  UNL1        0.0188
     37 C           3.9613    5.4639   40.2106 C.3     1  UNL1        0.0722
@<TRIPOS>BOND
     1    36    37    1
     2    37    30    1
     3    30    31    1
     4    31    32    1
     5    32    33    1
     6    33    24    1
     7    24    25   ar
     8    25    26   ar
     9    26    27   ar
    10    27    21    1
    11    21    22    1
    12    21    23    1
    13    21     1    1
    14     1     2   am
    15     2     3    2
    16     2     5    1
    17     5     6   ar
    18     6     7   ar
    19     7     8    1
    20     8     9    2
    21     9    10    1
    22    10    11    1
    23    11    12    2
    24    12    13    1
    25    13    14    2
    26    14    15    1
    27    15    16    2
    28    15    17    1
    29    17    18   ar
    30    18    19   ar
    31    19    20    1
    32    27    28   ar
    33    28    29   ar
    34    33    34    1
    35    34    35    1
    36    35    30    1
    37    29    24   ar
    38    19     5   ar
    39    17     7   ar
    40    14     9    1
    41     1     4    1
@<TRIPOS>MOLECULE
*****
 37 41 0 0 0
SMALL
GASTEIGER

@<TRIPOS>ATOM
      1 N           3.5196   -1.9820   21.6758 N.am    1  UNL1       -0.3004
      2 C           5.0115   -1.8463   21.5975 C.2     1  UNL1        0.2482
      3 O           5.6217   -0.6501   20.9291 O.2     1  UNL1       -0.2701
      4 H           3.1191   -2.7671   22.1145 H       1  UNL1        0.1499
      5 C           5.8930   -2.9067   22.1875 C.ar    1  UNL1        0.0823
      6 C           5.7766   -3.2551   23.6418 C.ar    1  UNL1        0.0260
      7 C           6.6582   -4.3156   24.2320 C.ar    1  UNL1        0.0843
      8 N           6.5417   -4.6640   25.6863 N.2     1  UNL1       -0.2491
      9 C           7.4233   -5.7245   26.2764 C.2     1  UNL1        0.0664
     10 C           7.3069   -6.0729   27.7307 C.3     1  UNL1        0.0718
     11 C           8.1884   -7.1333   28.3208 C.2     1  UNL1       -0.0198
     12 C           9.1864   -7.8454   27.4565 C.2     1  UNL1       -0.0040
     13 C           9.3029   -7.4971   26.0022 C.2     1  UNL1        0.0041
     14 C           8.4213   -6.4366   25.4122 C.2     1  UNL1        0.0528
     15 C           8.5377   -6.0882   23.9578 C.2     1  UNL1        0.1982
     16 O           9.5357   -6.8003   23.0935 O.2     1  UNL1       -0.2865
     17 C           7.6562   -5.0277   23.3677 C.ar    1  UNL1        0.0588
     18 C           7.7726   -4.6793   21.9133 C.ar    1  UNL1        0.0345
     19 C           6.8910   -3.6188   21.3233 C.ar    1  UNL1        0.1446
     20 F           7.0075   -3.2705   19.8690 F       1  UNL1       -0.2040
     21 C           2.6381   -0.9215   21.0857 C.3     1  UNL1        0.0775
     22 C           2.6000   -0.2167   22.4092 C.3     1  UNL1        0.0243
     23 C           2.6761   -1.6263   19.7622 C.3     1  UNL1        0.0243
     24 C          -0.0067    2.2599   19.3155 C.ar    1  UNL1        0.1318
     25 C           1.2130    1.8002   18.5734 C.ar    1  UNL1        0.0341
     26 C           2.0947    0.7396   19.1634 C.ar    1  UNL1        0.0017
     27 C           1.7565    0.1390   20.4956 C.ar    1  UNL1        0.0130
     28 C           0.5367    0.5988   21.2378 C.ar    1  UNL1        0.0975
     29 N          -0.3448    1.6593   20.6478 N.ar    1  UNL1       -0.2294
     30 N          -2.6514    5.4414   17.5454 N.3     1  UNL1       -0.2698
     31 C          -2.9896    4.8407   18.8776 C.3     1  UNL1        0.0939
     32 C          -2.1081    3.7802   19.4676 C.3     1  UNL1        0.1095
     33 N          -0.8883    3.3205   18.7255 N.pl3   1  UNL1       -0.2904
     34 C          -0.5501    3.9212   17.3933 C.3     1  UNL1        0.1095
     35 C          -1.4317    4.9817   16.8032 C.3     1  UNL1        0.0939
     36 C          -4.9111    6.1514   16.4777 C.3     1  UNL1        0.0188
     37 C          -3.5331    6.5019   16.9553 C.3     1  UNL1        0.0722
@<TRIPOS>BOND
     1    36    37    1
     2    37    30    1
     3    30    31    1
     4    31    32    1
     5    32    33    1
     6    33    24    1
     7    24    25   ar
     8    25    26   ar
     9    26    27   ar
    10    27    21    1
    11    21    22    1
    12    21    23    1
    13    21     1    1
    14     1     2   am
    15     2     3    2
    16     2     5    1
    17     5     6   ar
    18     6     7   ar
    19     7     8    1
    20     8     9    2
    21     9    10    1
    22    10    11    1
    23    11    12    2
    24    12    13    1
    25    13    14    2
    26    14    15    1
    27    15    16    2
    28    15    17    1
    29    17    18   ar
    30    18    19   ar
    31    19    20    1
    32    27    28   ar
    33    28    29   ar
    34    33    34    1
    35    34    35    1
    36    35    30    1
    37    29    24   ar
    38    19     5   ar
    39    17     7   ar
    40    14     9    1
    41     1     4    1
@<TRIPOS>MOLECULE
*****
 37 41 0 0 0
SMALL
GASTEIGER

@<TRIPOS>ATOM
      1 N           2.5007    0.0024   26.8003 N.am    1  UNL1       -0.3004
      2 C           2.6579    1.1442   25.8402 C.2     1  UNL1        0.2482
      3 O           2.9932    2.5137   26.3520 O.2     1  UNL1       -0.2701
      4 H           2.2806   -0.8964   26.4644 H       1  UNL1        0.1499
      5 C           2.4798    0.9164   24.3684 C.ar    1  UNL1        0.0823
      6 C           3.6687    0.6055   23.5083 C.ar    1  UNL1        0.0260
      7 C           3.4907    0.3776   22.0364 C.ar    1  UNL1        0.0843
      8 N           4.6796    0.0667   21.1764 N.2     1  UNL1       -0.2491
      9 C           4.5015   -0.1611   19.7045 C.2     1  UNL1        0.0664
     10 C           5.6905   -0.4721   18.8445 C.3     1  UNL1        0.0718
     11 C           5.5124   -0.6999   17.3726 C.2     1  UNL1       -0.0198
     12 C           4.1453   -0.6167   16.7608 C.2     1  UNL1       -0.0040
     13 C           2.9564   -0.3058   17.6208 C.2     1  UNL1        0.0041
     14 C           3.1345   -0.0780   19.0927 C.2     1  UNL1        0.0528
     15 C           1.9455    0.2330   19.9528 C.2     1  UNL1        0.1982
     16 O           0.5785    0.3162   19.3410 O.2     1  UNL1       -0.2865
     17 C           2.1236    0.4608   21.4246 C.ar    1  UNL1        0.0588
     18 C           0.9346    0.7718   22.2847 C.ar    1  UNL1        0.0345
     19 C           1.1127    0.9996   23.7566 C.ar    1  UNL1        0.1446
     20 F          -0.0762    1.3105   24.6166 F       1  UNL1       -0.2040
     21 C           2.6788    0.2302   28.2721 C.3     1  UNL1        0.0775
     22 C           4.1519   -0.0150   28.1318 C.3     1  UNL1        0.0243
     23 C           1.2056    0.4755   28.4124 C.3     1  UNL1        0.0243
     24 C           3.2130    0.9137   32.6877 C.ar    1  UNL1        0.1318
     25 C           4.3181    0.2927   31.8858 C.ar    1  UNL1        0.0341
     26 C           4.1400    0.0648   30.4139 C.ar    1  UNL1        0.0017
     27 C           2.8569    0.4580   29.7440 C.ar    1  UNL1        0.0130
     28 C           1.7517    1.0791   30.5460 C.ar    1  UNL1        0.0975
     29 N           1.9298    1.3069   32.0178 N.ar    1  UNL1       -0.2294
     30 N           3.7472    1.5970   37.1033 N.3     1  UNL1       -0.2698
     31 C           2.7862    2.4450   36.3240 C.3     1  UNL1        0.0939
     32 C           2.6081    2.2172   34.8522 C.3     1  UNL1        0.1095
     33 N           3.3911    1.1415   34.1596 N.pl3   1  UNL1       -0.2904
     34 C           4.3522    0.2936   34.9389 C.3     1  UNL1        0.1095
     35 C           4.5303    0.5213   36.4108 C.3     1  UNL1        0.0939
     36 C           3.2561    2.9911   39.2400 C.3     1  UNL1        0.0188
     37 C           3.9253    1.8249   38.5752 C.3     1  UNL1        0.0722
@<TRIPOS>BOND
     1    36    37    1
     2    37    30    1
     3    30    31    1
     4    31    32    1
     5    32    33    1
     6    33    24    1
     7    24    25   ar
     8    25    26   ar
     9    26    27   ar
    10    27    21    1
    11    21    22    1
    12    21    23    1
    13    21     1    1
    14     1     2   am
    15     2     3    2
    16     2     5    1
    17     5     6   ar
    18     6     7   ar
    19     7     8    1
    20     8     9    2
    21     9    10    1
    22    10    11    1
    23    11    12    2
    24    12    13    1
    25    13    14    2
    26    14    15    1
    27    15    16    2
    28    15    17    1
    29    17    18   ar
    30    18    19   ar
    31    19    20    1
    32    27    28   ar
    33    28    29   ar
    34    33    34    1
    35    34    35    1
    36    35    30    1
    37    29    24   ar
    38    19     5   ar
    39    17     7   ar
    40    14     9    1
    41     1     4    1
