@<TRIPOS>MOLECULE
*****
 34 38 0 0 0
SMALL
GASTEIGER

@<TRIPOS>ATOM
      1 N          -2.1991  -17.5430   21.8307 N.3     1  UNL1       -0.2752
      2 C          -1.5896  -18.9094   21.7245 C.3     1  UNL1        0.0578
      3 C          -0.5444  -18.8685   20.6494 C.3     1  UNL1        0.0173
      4 C          -0.5079  -17.4767   20.0911 C.3     1  UNL1        0.0173
      5 C          -1.5306  -16.6575   20.8212 C.3     1  UNL1        0.0578
      6 C          -2.6136  -16.0897   21.7066 C.3     1  UNL1        0.0203
      7 C          -3.1888  -17.0905   22.6646 C.3     1  UNL1        0.0250
      8 C          -2.6767  -18.5003   22.6735 C.3     1  UNL1        0.0203
      9 C          -4.2760  -16.6813   23.6136 C.ar    1  UNL1       -0.0224
     10 C          -4.1439  -16.9777   25.0781 C.ar    1  UNL1       -0.0046
     11 C          -5.2310  -16.5685   26.0271 C.ar    1  UNL1       -0.0046
     12 C          -6.4502  -15.8630   25.5117 C.ar    1  UNL1       -0.0228
     13 C          -6.5823  -15.5667   24.0472 C.ar    1  UNL1       -0.0046
     14 C          -5.4952  -15.9758   23.0982 C.ar    1  UNL1       -0.0046
     15 C          -7.5374  -15.4539   26.4608 C.3     1  UNL1        0.0189
     16 C          -8.7606  -15.3692   25.5968 C.3     1  UNL1        0.0044
     17 C          -6.5478  -15.4391   27.5879 C.3     1  UNL1        0.0044
     18 C          -8.3527  -15.0533   27.6545 C.3     1  UNL1        0.0044
     19 C          -3.2863  -17.1339   22.7797 C.3     1  UNL1        0.0729
     20 C          -4.5390  -17.9526   22.8831 C.3     1  UNL1        0.0294
     21 C          -4.9563  -18.8321   21.7420 C.3     1  UNL1        0.0666
     22 S          -6.2550  -19.5798   21.8075 S.3     1  UNL1       -0.0756
     23 C          -9.8116  -18.2009   22.5246 C.ar    1  UNL1        0.2029
     24 N          -9.2689  -17.1419   21.6116 N.ar    1  UNL1       -0.1250
     25 N          -7.8705  -17.5295   21.2318 N.ar    1  UNL1       -0.1220
     26 C          -7.5490  -18.8281   21.9101 C.ar    1  UNL1        0.1933
     27 N          -8.7487  -19.2431   22.7092 N.ar    1  UNL1       -0.2860
     28 C          -9.1999  -20.3520   23.6129 C.3     1  UNL1        0.1341
     29 C         -12.5881  -17.2945   21.0690 C.3     1  UNL1        0.0556
     30 C         -12.4537  -17.7987   22.4753 C.ar    1  UNL1        0.1001
     31 N         -13.5720  -17.9747   23.4594 N.ar    1  UNL1       -0.2085
     32 C         -12.9869  -18.5002   24.7368 C.ar    1  UNL1        0.2849
     33 O         -11.5070  -18.6489   24.5420 O.2     1  UNL1       -0.4283
     34 C         -11.1775  -18.2153   23.1444 C.ar    1  UNL1        0.1964
@<TRIPOS>BOND
     1    29    30    1
     2    30    31   ar
     3    31    32   ar
     4    32    33   ar
     5    33    34   ar
     6    34    23    1
     7    23    24   ar
     8    24    25   ar
     9    25    26   ar
    10    26    22    1
    11    22    21    1
    12    21    20    1
    13    20    19    1
    14    19     1    1
    15     1     2    1
    16     2     3    1
    17     3     4    1
    18     5     4    1
    19     5     6    1
    20     6     7    1
    21     7     9    1
    22     9    10   ar
    23    10    11   ar
    24    11    12   ar
    25    12    15    1
    26    15    16    1
    27    15    17    1
    28    15    18    1
    29    12    13   ar
    30    13    14   ar
    31     7     8    1
    32    26    27   ar
    33    27    28    1
    34    34    30   ar
    35    27    23   ar
    36     5     1    1
    37    14     9   ar
    38     8     2    1
@<TRIPOS>MOLECULE
*****
 34 38 0 0 0
SMALL
GASTEIGER

@<TRIPOS>ATOM
      1 N          -2.2069  -17.5241   21.8249 N.3     1  UNL1       -0.2752
      2 C          -1.5933  -18.8870   21.6982 C.3     1  UNL1        0.0578
      3 C          -0.6288  -18.8562   20.5498 C.3     1  UNL1        0.0173
      4 C          -0.6462  -17.4743   19.9668 C.3     1  UNL1        0.0173
      5 C          -1.6215  -16.6510   20.7548 C.3     1  UNL1        0.0578
      6 C          -2.6433  -16.0768   21.7063 C.3     1  UNL1        0.0203
      7 C          -3.1382  -17.0652   22.7203 C.3     1  UNL1        0.0250
      8 C          -2.6132  -18.4703   22.7162 C.3     1  UNL1        0.0203
      9 C          -4.1580  -16.6485   23.7383 C.ar    1  UNL1       -0.0224
     10 C          -4.0707  -17.1671   25.1431 C.ar    1  UNL1       -0.0046
     11 C          -5.0905  -16.7504   26.1611 C.ar    1  UNL1       -0.0046
     12 C          -6.1976  -15.8152   25.7743 C.ar    1  UNL1       -0.0228
     13 C          -6.2850  -15.2967   24.3694 C.ar    1  UNL1       -0.0046
     14 C          -5.2652  -15.7134   23.3515 C.ar    1  UNL1       -0.0046
     15 C          -7.2174  -15.3986   26.7923 C.3     1  UNL1        0.0189
     16 C          -6.4697  -14.4598   27.6921 C.3     1  UNL1        0.0044
     17 C          -8.2425  -16.2621   26.1189 C.3     1  UNL1        0.0044
     18 C          -8.4551  -15.2033   27.6171 C.3     1  UNL1        0.0044
     19 C          -3.2267  -17.1074   22.8429 C.3     1  UNL1        0.0729
     20 C          -4.5699  -17.7745   22.8755 C.3     1  UNL1        0.0294
     21 C          -4.9592  -18.7301   21.7869 C.3     1  UNL1        0.0666
     22 S          -6.1900  -19.5746   21.9350 S.3     1  UNL1       -0.0756
     23 C          -9.4843  -18.2885   20.3354 C.ar    1  UNL1        0.2029
     24 N          -9.0790  -19.3468   19.3528 N.ar    1  UNL1       -0.1250
     25 N          -7.7955  -19.9574   19.8324 N.ar    1  UNL1       -0.1220
     26 C          -7.4078  -19.2765   21.1114 C.ar    1  UNL1        0.1933
     27 N          -8.4516  -18.2450   21.4223 N.ar    1  UNL1       -0.2860
     28 C          -8.7711  -17.2100   22.4600 C.3     1  UNL1        0.1341
     29 C         -12.1455  -18.5346   22.2083 C.3     1  UNL1        0.0556
     30 C         -11.9310  -17.5384   21.1076 C.ar    1  UNL1        0.1001
     31 N         -12.9021  -16.4803   20.6745 N.ar    1  UNL1       -0.2085
     32 C         -12.2791  -15.7133   19.5460 C.ar    1  UNL1        0.2849
     33 O         -10.9230  -16.2973   19.2816 O.2     1  UNL1       -0.4283
     34 C         -10.7078  -17.4253   20.2467 C.ar    1  UNL1        0.1964
@<TRIPOS>BOND
     1    29    30    1
     2    30    31   ar
     3    31    32   ar
     4    32    33   ar
     5    33    34   ar
     6    34    23    1
     7    23    24   ar
     8    24    25   ar
     9    25    26   ar
    10    26    22    1
    11    22    21    1
    12    21    20    1
    13    20    19    1
    14    19     1    1
    15     1     2    1
    16     2     3    1
    17     3     4    1
    18     5     4    1
    19     5     6    1
    20     6     7    1
    21     7     9    1
    22     9    10   ar
    23    10    11   ar
    24    11    12   ar
    25    12    15    1
    26    15    16    1
    27    15    17    1
    28    15    18    1
    29    12    13   ar
    30    13    14   ar
    31     7     8    1
    32    26    27   ar
    33    27    28    1
    34    34    30   ar
    35    27    23   ar
    36     5     1    1
    37    14     9   ar
    38     8     2    1
@<TRIPOS>MOLECULE
*****
 34 38 0 0 0
SMALL
GASTEIGER

@<TRIPOS>ATOM
      1 N          -7.1518  -15.9162   24.5421 N.3     1  UNL1       -0.2752
      2 C          -6.1849  -15.4994   23.4737 C.3     1  UNL1        0.0578
      3 C          -4.9020  -15.0993   24.1401 C.3     1  UNL1        0.0173
      4 C          -5.0761  -15.2689   25.6203 C.3     1  UNL1        0.0173
      5 C          -6.4666  -15.7737   25.8687 C.3     1  UNL1        0.0578
      6 C          -7.8918  -16.2688   25.8177 C.3     1  UNL1        0.0203
      7 C          -8.4438  -16.3599   24.4259 C.3     1  UNL1        0.0250
      8 C          -7.5903  -15.9752   23.2539 C.3     1  UNL1        0.0203
      9 C          -9.8494  -16.8356   24.2062 C.ar    1  UNL1       -0.0224
     10 C         -10.3271  -18.0944   24.8675 C.ar    1  UNL1       -0.0046
     11 C         -11.7325  -18.5701   24.6478 C.ar    1  UNL1       -0.0046
     12 C         -12.6602  -17.7872   23.7667 C.ar    1  UNL1       -0.0228
     13 C         -12.1825  -16.5284   23.1053 C.ar    1  UNL1       -0.0046
     14 C         -10.7771  -16.0527   23.3251 C.ar    1  UNL1       -0.0046
     15 C         -14.0657  -18.2630   23.5470 C.3     1  UNL1        0.0189
     16 C         -14.1994  -18.3231   22.0542 C.3     1  UNL1        0.0044
     17 C         -14.2784  -18.3197   25.0307 C.3     1  UNL1        0.0044
     18 C         -15.4809  -18.7384   23.6929 C.3     1  UNL1        0.0044
     19 C          -8.5573  -16.3920   24.3222 C.3     1  UNL1        0.0729
     20 C          -8.8130  -17.8124   23.9135 C.3     1  UNL1        0.0294
     21 C          -8.4194  -18.2811   22.5441 C.3     1  UNL1        0.0666
     22 S          -7.2839  -19.2473   22.3796 S.3     1  UNL1       -0.0756
     23 C          -3.9849  -18.4799   20.4841 C.ar    1  UNL1        0.2029
     24 N          -4.9715  -18.4951   19.3544 N.ar    1  UNL1       -0.1250
     25 N          -6.3274  -18.7844   19.9269 N.ar    1  UNL1       -0.1220
     26 C          -6.1788  -18.9480   21.4105 C.ar    1  UNL1        0.1933
     27 N          -4.7310  -18.7598   21.7549 N.ar    1  UNL1       -0.2860
     28 C          -3.8239  -18.7655   22.9495 C.3     1  UNL1        0.1341
     29 C          -2.3432  -16.0086   21.8430 C.3     1  UNL1        0.0556
     30 C          -1.7563  -17.0930   20.9887 C.ar    1  UNL1        0.1001
     31 N          -0.3118  -17.2317   20.6092 N.ar    1  UNL1       -0.2085
     32 C          -0.1736  -18.4535   19.7499 C.ar    1  UNL1        0.2849
     33 O          -1.5328  -19.0697   19.5985 O.2     1  UNL1       -0.4283
     34 C          -2.5110  -18.2289   20.3641 C.ar    1  UNL1        0.1964
@<TRIPOS>BOND
     1    29    30    1
     2    30    31   ar
     3    31    32   ar
     4    32    33   ar
     5    33    34   ar
     6    34    23    1
     7    23    24   ar
     8    24    25   ar
     9    25    26   ar
    10    26    22    1
    11    22    21    1
    12    21    20    1
    13    20    19    1
    14    19     1    1
    15     1     2    1
    16     2     3    1
    17     3     4    1
    18     5     4    1
    19     5     6    1
    20     6     7    1
    21     7     9    1
    22     9    10   ar
    23    10    11   ar
    24    11    12   ar
    25    12    15    1
    26    15    16    1
    27    15    17    1
    28    15    18    1
    29    12    13   ar
    30    13    14   ar
    31     7     8    1
    32    26    27   ar
    33    27    28    1
    34    34    30   ar
    35    27    23   ar
    36     5     1    1
    37    14     9   ar
    38     8     2    1
@<TRIPOS>MOLECULE
*****
 34 38 0 0 0
SMALL
GASTEIGER

@<TRIPOS>ATOM
      1 N          -0.1568    2.4976   19.5754 N.3     1  UNL1       -0.2752
      2 C          -0.9511    2.8421   20.8004 C.3     1  UNL1        0.0578
      3 C          -1.7540    4.0733   20.5012 C.3     1  UNL1        0.0173
      4 C          -1.4558    4.4898   19.0914 C.3     1  UNL1        0.0173
      5 C          -0.4687    3.5160   18.5192 C.3     1  UNL1        0.0578
      6 C           0.5062    2.4043   18.2150 C.3     1  UNL1        0.0203
      7 C           0.7186    1.4639   19.3642 C.3     1  UNL1        0.0250
      8 C          -0.0101    1.6828   20.6569 C.3     1  UNL1        0.0203
      9 C           1.6596    0.3046   19.2207 C.ar    1  UNL1       -0.0224
     10 C           2.6141    0.2521   18.0648 C.ar    1  UNL1       -0.0046
     11 C           3.5551   -0.9071   17.9213 C.ar    1  UNL1       -0.0046
     12 C           3.5416   -2.0138   18.9336 C.ar    1  UNL1       -0.0228
     13 C           2.5871   -1.9614   20.0896 C.ar    1  UNL1       -0.0046
     14 C           1.6461   -0.8021   20.2331 C.ar    1  UNL1       -0.0046
     15 C           4.4827   -3.1731   18.7901 C.3     1  UNL1        0.0189
     16 C           5.7904   -2.5359   18.4241 C.3     1  UNL1        0.0044
     17 C           3.3696   -4.1189   19.1314 C.3     1  UNL1        0.0044
     18 C           5.1264   -4.5268   18.7334 C.3     1  UNL1        0.0044
     19 C           0.7842    1.3384   19.4320 C.3     1  UNL1        0.0729
     20 C           2.2511    1.5277   19.6820 C.3     1  UNL1        0.0294
     21 C           2.7202    2.6076   20.6112 C.3     1  UNL1        0.0666
     22 S           3.8463    2.3393   21.5651 S.3     1  UNL1       -0.0756
     23 C           4.4158   -0.7940   23.7839 C.ar    1  UNL1        0.2029
     24 N           2.9587   -0.5304   24.0231 N.ar    1  UNL1       -0.1250
     25 N           2.5680    0.6754   23.2211 N.ar    1  UNL1       -0.1220
     26 C           3.7836    1.1571   22.4862 C.ar    1  UNL1        0.1933
     27 N           4.9257    0.2489   22.8340 N.ar    1  UNL1       -0.2860
     28 C           6.3837    0.0684   22.5311 C.3     1  UNL1        0.1341
     29 C           4.9331   -3.7299   22.4563 C.3     1  UNL1        0.0556
     30 C           5.4594   -3.2549   23.7782 C.ar    1  UNL1        0.1001
     31 N           6.3159   -4.0460   24.7219 N.ar    1  UNL1       -0.2085
     32 C           6.6074   -3.1854   25.9154 C.ar    1  UNL1        0.2849
     33 O           5.9311   -1.8625   25.7092 O.2     1  UNL1       -0.4283
     34 C           5.2216   -1.9054   24.3884 C.ar    1  UNL1        0.1964
@<TRIPOS>BOND
     1    29    30    1
     2    30    31   ar
     3    31    32   ar
     4    32    33   ar
     5    33    34   ar
     6    34    23    1
     7    23    24   ar
     8    24    25   ar
     9    25    26   ar
    10    26    22    1
    11    22    21    1
    12    21    20    1
    13    20    19    1
    14    19     1    1
    15     1     2    1
    16     2     3    1
    17     3     4    1
    18     5     4    1
    19     5     6    1
    20     6     7    1
    21     7     9    1
    22     9    10   ar
    23    10    11   ar
    24    11    12   ar
    25    12    15    1
    26    15    16    1
    27    15    17    1
    28    15    18    1
    29    12    13   ar
    30    13    14   ar
    31     7     8    1
    32    26    27   ar
    33    27    28    1
    34    34    30   ar
    35    27    23   ar
    36     5     1    1
    37    14     9   ar
    38     8     2    1
@<TRIPOS>MOLECULE
*****
 34 38 0 0 0
SMALL
GASTEIGER

@<TRIPOS>ATOM
      1 N           0.0276    2.5083   19.3664 N.3     1  UNL1       -0.2752
      2 C          -0.1406    3.6166   18.3697 C.3     1  UNL1        0.0578
      3 C          -1.1493    4.5827   18.9165 C.3     1  UNL1        0.0173
      4 C          -1.6045    4.0716   20.2512 C.3     1  UNL1        0.0173
      5 C          -0.8772    2.7895   20.5293 C.3     1  UNL1        0.0578
      6 C          -0.0164    1.5493   20.5401 C.3     1  UNL1        0.0203
      7 C           0.8342    1.4010   19.3135 C.3     1  UNL1        0.0250
      8 C           0.7721    2.4347   18.2283 C.3     1  UNL1        0.0203
      9 C           1.7470    0.2190   19.1721 C.ar    1  UNL1       -0.0224
     10 C           1.8117   -0.8127   20.2590 C.ar    1  UNL1       -0.0046
     11 C           2.7244   -1.9946   20.1177 C.ar    1  UNL1       -0.0046
     12 C           3.5723   -2.1448   18.8895 C.ar    1  UNL1       -0.0228
     13 C           3.5076   -1.1130   17.8026 C.ar    1  UNL1       -0.0046
     14 C           2.5949    0.0688   17.9440 C.ar    1  UNL1       -0.0046
     15 C           4.4850   -3.3268   18.7482 C.3     1  UNL1        0.0189
     16 C           5.8000   -2.7245   18.3506 C.3     1  UNL1        0.0044
     17 C           3.3574   -4.2423   19.1227 C.3     1  UNL1        0.0044
     18 C           5.0976   -4.6952   18.7018 C.3     1  UNL1        0.0044
     19 C           0.9403    1.3264   19.2250 C.3     1  UNL1        0.0729
     20 C           2.3145    1.3639   19.8251 C.3     1  UNL1        0.0294
     21 C           2.8754    2.6585   20.3343 C.3     1  UNL1        0.0666
     22 S           3.8023    2.6622   21.5136 S.3     1  UNL1       -0.0756
     23 C           5.5028   -0.7356   22.3061 C.ar    1  UNL1        0.2029
     24 N           4.6924   -0.5201   23.5497 N.ar    1  UNL1       -0.1250
     25 N           3.9567    0.7789   23.4043 N.ar    1  UNL1       -0.1220
     26 C           4.3125    1.3663   22.0707 C.ar    1  UNL1        0.1933
     27 N           5.2681    0.4302   21.3920 N.ar    1  UNL1       -0.2860
     28 C           6.0411    0.3057   20.1125 C.3     1  UNL1        0.1341
     29 C           4.6367   -3.8778   22.4663 C.3     1  UNL1        0.0556
     30 C           5.9939   -3.3550   22.0994 C.ar    1  UNL1        0.1001
     31 N           7.1913   -4.1847   21.7418 N.ar    1  UNL1       -0.2085
     32 C           8.3294   -3.2531   21.4471 C.ar    1  UNL1        0.2849
     33 O           7.8354   -1.8477   21.6226 O.2     1  UNL1       -0.4283
     34 C           6.3920   -1.9106   22.0258 C.ar    1  UNL1        0.1964
@<TRIPOS>BOND
     1    29    30    1
     2    30    31   ar
     3    31    32   ar
     4    32    33   ar
     5    33    34   ar
     6    34    23    1
     7    23    24   ar
     8    24    25   ar
     9    25    26   ar
    10    26    22    1
    11    22    21    1
    12    21    20    1
    13    20    19    1
    14    19     1    1
    15     1     2    1
    16     2     3    1
    17     3     4    1
    18     5     4    1
    19     5     6    1
    20     6     7    1
    21     7     9    1
    22     9    10   ar
    23    10    11   ar
    24    11    12   ar
    25    12    15    1
    26    15    16    1
    27    15    17    1
    28    15    18    1
    29    12    13   ar
    30    13    14   ar
    31     7     8    1
    32    26    27   ar
    33    27    28    1
    34    34    30   ar
    35    27    23   ar
    36     5     1    1
    37    14     9   ar
    38     8     2    1
@<TRIPOS>MOLECULE
*****
 34 38 0 0 0
SMALL
GASTEIGER

@<TRIPOS>ATOM
      1 N           7.5107   -1.3809   20.3522 N.3     1  UNL1       -0.2752
      2 C           8.2459   -1.3511   19.0451 C.3     1  UNL1        0.0578
      3 C           7.9027   -0.0673   18.3493 C.3     1  UNL1        0.0173
      4 C           6.9554    0.6964   19.2265 C.3     1  UNL1        0.0173
      5 C           6.7131   -0.1155   20.4644 C.3     1  UNL1        0.0578
      6 C           6.6582   -1.1301   21.5809 C.3     1  UNL1        0.0203
      7 C           7.5051   -2.3424   21.3295 C.3     1  UNL1        0.0250
      8 C           8.2989   -2.4529   20.0616 C.3     1  UNL1        0.0203
      9 C           7.5581   -3.4442   22.3461 C.ar    1  UNL1       -0.0224
     10 C           6.7414   -3.3471   23.6005 C.ar    1  UNL1       -0.0046
     11 C           6.7945   -4.4488   24.6170 C.ar    1  UNL1       -0.0046
     12 C           7.6642   -5.6476   24.3791 C.ar    1  UNL1       -0.0228
     13 C           8.4808   -5.7446   23.1247 C.ar    1  UNL1       -0.0046
     14 C           8.4278   -4.6429   22.1082 C.ar    1  UNL1       -0.0046
     15 C           7.7171   -6.7493   25.3957 C.3     1  UNL1        0.0189
     16 C           6.8535   -6.2510   26.5163 C.3     1  UNL1        0.0044
     17 C           8.6205   -7.5376   24.4943 C.3     1  UNL1        0.0044
     18 C           7.9872   -8.0091   26.1639 C.3     1  UNL1        0.0044
     19 C           7.5638   -2.4827   21.3687 C.3     1  UNL1        0.0729
     20 C           6.8390   -3.7715   21.1164 C.3     1  UNL1        0.0294
     21 C           5.3795   -3.7560   20.7711 C.3     1  UNL1        0.0666
     22 S           4.9479   -3.7977   19.3351 S.3     1  UNL1       -0.0756
     23 C           3.3597   -0.4648   18.1377 C.ar    1  UNL1        0.2029
     24 N           4.3340   -0.7360   17.0299 N.ar    1  UNL1       -0.1250
     25 N           5.0475   -2.0175   17.3436 N.ar    1  UNL1       -0.1220
     26 C           4.5142   -2.5383   18.6453 C.ar    1  UNL1        0.1933
     27 N           3.4711   -1.5786   19.1360 N.ar    1  UNL1       -0.2860
     28 C           2.5294   -1.3959   20.2892 C.3     1  UNL1        0.1341
     29 C           4.2552    2.6471   18.5429 C.3     1  UNL1        0.0556
     30 C           2.8478    2.1438   18.4170 C.ar    1  UNL1        0.1001
     31 N           1.6048    2.9827   18.4552 N.ar    1  UNL1       -0.2085
     32 C           0.4250    2.0708   18.2926 C.ar    1  UNL1        0.2849
     33 O           0.9388    0.6684   18.1539 O.2     1  UNL1       -0.4283
     34 C           2.4361    0.7135   18.2307 C.ar    1  UNL1        0.1964
@<TRIPOS>BOND
     1    29    30    1
     2    30    31   ar
     3    31    32   ar
     4    32    33   ar
     5    33    34   ar
     6    34    23    1
     7    23    24   ar
     8    24    25   ar
     9    25    26   ar
    10    26    22    1
    11    22    21    1
    12    21    20    1
    13    20    19    1
    14    19     1    1
    15     1     2    1
    16     2     3    1
    17     3     4    1
    18     5     4    1
    19     5     6    1
    20     6     7    1
    21     7     9    1
    22     9    10   ar
    23    10    11   ar
    24    11    12   ar
    25    12    15    1
    26    15    16    1
    27    15    17    1
    28    15    18    1
    29    12    13   ar
    30    13    14   ar
    31     7     8    1
    32    26    27   ar
    33    27    28    1
    34    34    30   ar
    35    27    23   ar
    36     5     1    1
    37    14     9   ar
    38     8     2    1
@<TRIPOS>MOLECULE
*****
 34 38 0 0 0
SMALL
GASTEIGER

@<TRIPOS>ATOM
      1 N          -6.1149  -15.8033   25.2627 N.3     1  UNL1       -0.2752
      2 C          -7.4516  -15.2018   24.9442 C.3     1  UNL1        0.0578
      3 C          -8.1743  -14.9670   26.2375 C.3     1  UNL1        0.0173
      4 C          -7.2841  -15.4234   27.3553 C.3     1  UNL1        0.0173
      5 C          -6.0114  -15.9402   26.7528 C.3     1  UNL1        0.0578
      6 C          -4.8609  -16.3874   25.8836 C.3     1  UNL1        0.0203
      7 C          -5.1073  -16.1898   24.4172 C.3     1  UNL1        0.0250
      8 C          -6.4027  -15.5970   23.9475 C.3     1  UNL1        0.0203
      9 C          -4.0582  -16.5850   23.4204 C.ar    1  UNL1       -0.0224
     10 C          -3.5615  -17.9997   23.3754 C.ar    1  UNL1       -0.0046
     11 C          -2.5126  -18.3948   22.3788 C.ar    1  UNL1       -0.0046
     12 C          -1.9602  -17.3754   21.4271 C.ar    1  UNL1       -0.0228
     13 C          -2.4569  -15.9607   21.4722 C.ar    1  UNL1       -0.0046
     14 C          -3.5059  -15.5656   22.4688 C.ar    1  UNL1       -0.0046
     15 C          -0.9112  -17.7706   20.4305 C.3     1  UNL1        0.0189
     16 C           0.0262  -16.5999   20.4065 C.3     1  UNL1        0.0044
     17 C          -1.6157  -19.0759   20.2066 C.3     1  UNL1        0.0044
     18 C          -0.0638  -18.4701   19.4092 C.3     1  UNL1        0.0044
     19 C          -5.0659  -16.1985   24.2659 C.3     1  UNL1        0.0729
     20 C          -5.1791  -17.5038   23.5356 C.3     1  UNL1        0.0294
     21 C          -6.1471  -17.6454   22.3986 C.3     1  UNL1        0.0666
     22 S          -6.7814  -18.9747   22.1147 S.3     1  UNL1       -0.0756
     23 C         -10.6328  -18.9322   22.5943 C.ar    1  UNL1        0.2029
     24 N         -10.5138  -19.6175   21.2654 N.ar    1  UNL1       -0.1250
     25 N          -9.0565  -19.7169   20.9239 N.ar    1  UNL1       -0.1220
     26 C          -8.2749  -19.0930   22.0419 C.ar    1  UNL1        0.1933
     27 N          -9.2492  -18.6080   23.0742 N.ar    1  UNL1       -0.2860
     28 C          -9.2637  -17.9160   24.4050 C.3     1  UNL1        0.1341
     29 C         -13.0379  -17.0140   21.5054 C.3     1  UNL1        0.0556
     30 C         -13.0165  -17.7433   22.8160 C.ar    1  UNL1        0.1001
     31 N         -14.0970  -17.7188   23.8562 N.ar    1  UNL1       -0.2085
     32 C         -13.6593  -18.5854   24.9996 C.ar    1  UNL1        0.2849
     33 O         -12.3083  -19.1454   24.6661 O.2     1  UNL1       -0.4283
     34 C         -11.9110  -18.6249   23.3165 C.ar    1  UNL1        0.1964
@<TRIPOS>BOND
     1    29    30    1
     2    30    31   ar
     3    31    32   ar
     4    32    33   ar
     5    33    34   ar
     6    34    23    1
     7    23    24   ar
     8    24    25   ar
     9    25    26   ar
    10    26    22    1
    11    22    21    1
    12    21    20    1
    13    20    19    1
    14    19     1    1
    15     1     2    1
    16     2     3    1
    17     3     4    1
    18     5     4    1
    19     5     6    1
    20     6     7    1
    21     7     9    1
    22     9    10   ar
    23    10    11   ar
    24    11    12   ar
    25    12    15    1
    26    15    16    1
    27    15    17    1
    28    15    18    1
    29    12    13   ar
    30    13    14   ar
    31     7     8    1
    32    26    27   ar
    33    27    28    1
    34    34    30   ar
    35    27    23   ar
    36     5     1    1
    37    14     9   ar
    38     8     2    1
@<TRIPOS>MOLECULE
*****
 34 38 0 0 0
SMALL
GASTEIGER

@<TRIPOS>ATOM
      1 N           5.2286    0.7545   36.6915 N.3     1  UNL1       -0.2752
      2 C           4.0236    0.7023   37.5833 C.3     1  UNL1        0.0578
      3 C           4.1848    1.7523   38.6423 C.3     1  UNL1        0.0173
      4 C           5.4894    2.4534   38.4050 C.3     1  UNL1        0.0173
      5 C           6.1346    1.8367   37.1994 C.3     1  UNL1        0.0578
      6 C           6.5377    1.0404   35.9818 C.3     1  UNL1        0.0203
      7 C           5.5350   -0.0049   35.5920 C.3     1  UNL1        0.0250
      8 C           4.2780   -0.1740   36.3928 C.3     1  UNL1        0.0203
      9 C           5.7894   -0.8812   34.4014 C.ar    1  UNL1       -0.0224
     10 C           7.0792   -0.7624   33.6447 C.ar    1  UNL1       -0.0046
     11 C           7.3336   -1.6387   32.4542 C.ar    1  UNL1       -0.0046
     12 C           6.2983   -2.6336   32.0203 C.ar    1  UNL1       -0.0228
     13 C           5.0086   -2.7524   32.7770 C.ar    1  UNL1       -0.0046
     14 C           4.7542   -1.8762   33.9675 C.ar    1  UNL1       -0.0046
     15 C           6.5528   -3.5098   30.8297 C.3     1  UNL1        0.0189
     16 C           6.2971   -2.6111   29.6563 C.3     1  UNL1        0.0044
     17 C           6.8797   -4.6546   31.7421 C.3     1  UNL1        0.0044
     18 C           6.8788   -4.6372   29.8953 C.3     1  UNL1        0.0044
     19 C           5.4830   -0.1218   35.5010 C.3     1  UNL1        0.0729
     20 C           4.7154    0.0970   34.2310 C.3     1  UNL1        0.0294
     21 C           4.2916    1.4817   33.8400 C.3     1  UNL1        0.0666
     22 S           2.8935    1.7297   33.3564 S.3     1  UNL1       -0.0756
     23 C           1.5100    0.9246   29.8205 C.ar    1  UNL1        0.2029
     24 N           1.9523   -0.4347   30.2750 N.ar    1  UNL1       -0.1250
     25 N           2.5244   -0.2986   31.6550 N.ar    1  UNL1       -0.1220
     26 C           2.4357    1.1449   32.0532 C.ar    1  UNL1        0.1933
     27 N           1.8087    1.9008   30.9194 N.ar    1  UNL1       -0.2860
     28 C           1.3994    3.2976   30.5569 C.3     1  UNL1        0.1341
     29 C          -1.4193   -0.0813   28.7925 C.3     1  UNL1        0.0556
     30 C          -0.4668    0.7881   28.0265 C.ar    1  UNL1        0.1001
     31 N          -0.6936    1.3478   26.6534 N.ar    1  UNL1       -0.2085
     32 C           0.5127    2.1561   26.2773 C.ar    1  UNL1        0.2849
     33 O           1.4850    2.0959   27.4179 O.2     1  UNL1       -0.4283
     34 C           0.8796    1.2505   28.4990 C.ar    1  UNL1        0.1964
@<TRIPOS>BOND
     1    29    30    1
     2    30    31   ar
     3    31    32   ar
     4    32    33   ar
     5    33    34   ar
     6    34    23    1
     7    23    24   ar
     8    24    25   ar
     9    25    26   ar
    10    26    22    1
    11    22    21    1
    12    21    20    1
    13    20    19    1
    14    19     1    1
    15     1     2    1
    16     2     3    1
    17     3     4    1
    18     5     4    1
    19     5     6    1
    20     6     7    1
    21     7     9    1
    22     9    10   ar
    23    10    11   ar
    24    11    12   ar
    25    12    15    1
    26    15    16    1
    27    15    17    1
    28    15    18    1
    29    12    13   ar
    30    13    14   ar
    31     7     8    1
    32    26    27   ar
    33    27    28    1
    34    34    30   ar
    35    27    23   ar
    36     5     1    1
    37    14     9   ar
    38     8     2    1
@<TRIPOS>MOLECULE
*****
 34 38 0 0 0
SMALL
GASTEIGER

@<TRIPOS>ATOM
      1 N           0.1232    2.5700   19.2390 N.3     1  UNL1       -0.2752
      2 C           0.1505    3.7866   18.3619 C.3     1  UNL1        0.0578
      3 C          -0.9270    4.7195   18.8294 C.3     1  UNL1        0.0173
      4 C          -1.6203    4.0795   19.9955 C.3     1  UNL1        0.0173
      5 C          -0.9713    2.7510   20.2486 C.3     1  UNL1        0.0578
      6 C          -0.1426    1.4893   20.2688 C.3     1  UNL1        0.0203
      7 C           0.9117    1.4491   19.2026 C.3     1  UNL1        0.0250
      8 C           1.0583    2.5978   18.2491 C.3     1  UNL1        0.0203
      9 C           1.8195    0.2602   19.0898 C.ar    1  UNL1       -0.0224
     10 C           2.7662    0.1466   17.9319 C.ar    1  UNL1       -0.0046
     11 C           3.6738   -1.0422   17.8192 C.ar    1  UNL1       -0.0046
     12 C           3.6349   -2.1174   18.8644 C.ar    1  UNL1       -0.0228
     13 C           2.6882   -2.0037   20.0223 C.ar    1  UNL1       -0.0046
     14 C           1.7805   -0.8149   20.1350 C.ar    1  UNL1       -0.0046
     15 C           4.5426   -3.3062   18.7516 C.3     1  UNL1        0.0189
     16 C           5.8194   -2.7376   18.2071 C.3     1  UNL1        0.0044
     17 C           3.4531   -4.1887   19.2846 C.3     1  UNL1        0.0044
     18 C           5.1597   -4.6733   18.7712 C.3     1  UNL1        0.0044
     19 C           1.0309    1.3812   19.1262 C.3     1  UNL1        0.0729
     20 C           2.2201    1.2569   20.0320 C.3     1  UNL1        0.0294
     21 C           2.8439    2.4860   20.6236 C.3     1  UNL1        0.0666
     22 S           3.0278    2.5934   22.1084 S.3     1  UNL1       -0.0756
     23 C          -0.1174    2.4323   24.3770 C.ar    1  UNL1        0.2029
     24 N           0.4178    1.0388   24.5244 N.ar    1  UNL1       -0.1250
     25 N           1.6612    0.9295   23.6924 N.ar    1  UNL1       -0.1220
     26 C           1.8943    2.2555   23.0310 C.ar    1  UNL1        0.1933
     27 N           0.7951    3.1842   23.4542 N.ar    1  UNL1       -0.2860
     28 C           0.3402    4.5979   23.2429 C.3     1  UNL1        0.1341
     29 C          -0.4983    2.9836   27.5709 C.3     1  UNL1        0.0556
     30 C          -1.5241    3.2314   26.5049 C.ar    1  UNL1        0.1001
     31 N          -2.9051    3.7761   26.7198 N.ar    1  UNL1       -0.2085
     32 C          -3.5835    3.8594   25.3846 C.ar    1  UNL1        0.2849
     33 O          -2.6218    3.3661   24.3445 O.2     1  UNL1       -0.4283
     34 C          -1.3490    2.9780   25.0369 C.ar    1  UNL1        0.1964
@<TRIPOS>BOND
     1    29    30    1
     2    30    31   ar
     3    31    32   ar
     4    32    33   ar
     5    33    34   ar
     6    34    23    1
     7    23    24   ar
     8    24    25   ar
     9    25    26   ar
    10    26    22    1
    11    22    21    1
    12    21    20    1
    13    20    19    1
    14    19     1    1
    15     1     2    1
    16     2     3    1
    17     3     4    1
    18     5     4    1
    19     5     6    1
    20     6     7    1
    21     7     9    1
    22     9    10   ar
    23    10    11   ar
    24    11    12   ar
    25    12    15    1
    26    15    16    1
    27    15    17    1
    28    15    18    1
    29    12    13   ar
    30    13    14   ar
    31     7     8    1
    32    26    27   ar
    33    27    28    1
    34    34    30   ar
    35    27    23   ar
    36     5     1    1
    37    14     9   ar
    38     8     2    1
