@<TRIPOS>MOLECULE
*****
 32 34 0 0 0
SMALL
GASTEIGER

@<TRIPOS>ATOM
      1 S          -8.8637  -19.7911   22.6190 S.O2    1  UNL1        0.0736
      2 O          -8.5006  -19.3513   21.2316 O.2     1  UNL1       -0.1499
      3 O          -9.2268  -20.2309   24.0063 O.2     1  UNL1       -0.1499
      4 C         -10.1430  -19.0129   22.5308 C.ar    1  UNL1        0.1251
      5 C         -10.3980  -18.1198   21.3530 C.ar    1  UNL1        0.0240
      6 C         -11.6772  -17.3415   21.2649 C.ar    1  UNL1        0.0727
      7 C         -12.7016  -17.4564   22.3546 C.ar    1  UNL1        0.0078
      8 C         -12.4466  -18.3495   23.5324 C.ar    1  UNL1        0.0727
      9 C         -11.1673  -19.1278   23.6205 C.ar    1  UNL1        0.0240
     10 C         -11.9322  -16.4484   20.0870 C.3     1  UNL1        0.4186
     11 F         -12.1870  -15.5553   18.9091 F       1  UNL1       -0.1659
     12 F         -13.0907  -15.8267   20.8090 F       1  UNL1       -0.1659
     13 F         -10.7737  -17.0700   19.3650 F       1  UNL1       -0.1659
     14 C         -13.4710  -18.4644   24.6222 C.3     1  UNL1        0.4186
     15 F         -14.4953  -18.5794   25.7119 F       1  UNL1       -0.1659
     16 F         -12.4132  -18.9574   25.5645 F       1  UNL1       -0.1659
     17 F         -14.5288  -17.9715   23.6799 F       1  UNL1       -0.1659
     18 N          -7.5844  -20.5694   22.7071 N.pl3   1  UNL1       -0.2150
     19 H          -7.5505  -21.4032   23.2293 H       1  UNL1        0.1737
     20 C          -3.9016  -19.0926   20.5844 C.ar    1  UNL1        0.0002
     21 C          -4.6589  -20.2685   20.0424 C.ar    1  UNL1        0.0013
     22 C          -5.8865  -20.7608   20.7499 C.ar    1  UNL1        0.0159
     23 C          -6.3568  -20.0771   21.9995 C.ar    1  UNL1        0.0648
     24 C          -5.5996  -18.9012   22.5415 C.ar    1  UNL1        0.0159
     25 C          -4.3719  -18.4089   21.8339 C.ar    1  UNL1        0.0013
     26 C           1.1373  -17.8268   20.6677 C.3     1  UNL1        0.0521
     27 C          -0.1545  -17.9675   19.9185 C.ar    1  UNL1        0.0594
     28 C          -1.3821  -18.4597   20.6260 C.ar    1  UNL1        0.0147
     29 C          -2.6739  -18.6003   19.8768 C.ar    1  UNL1        0.0027
     30 C          -2.7382  -18.2488   18.4200 C.ar    1  UNL1        0.0207
     31 C          -1.5106  -17.7566   17.7125 C.ar    1  UNL1        0.0984
     32 N          -0.2187  -17.6159   18.4617 N.ar    1  UNL1       -0.2481
@<TRIPOS>BOND
     1    26    27    1
     2    27    28   ar
     3    28    29   ar
     4    29    20    1
     5    20    21   ar
     6    21    22   ar
     7    22    23   ar
     8    23    18    1
     9    18     1    1
    10     1     2    2
    11     1     3    2
    12     1     4    1
    13     4     5   ar
    14     5     6   ar
    15     6    10    1
    16    10    11    1
    17    10    12    1
    18    10    13    1
    19     6     7   ar
    20     7     8   ar
    21     8    14    1
    22    14    15    1
    23    14    16    1
    24    14    17    1
    25     8     9   ar
    26    23    24   ar
    27    24    25   ar
    28    29    30   ar
    29    30    31   ar
    30    31    32   ar
    31    32    27   ar
    32    25    20   ar
    33     9     4   ar
    34    18    19    1
@<TRIPOS>MOLECULE
*****
 32 34 0 0 0
SMALL
GASTEIGER

@<TRIPOS>ATOM
      1 S          -8.8546  -19.7978   22.6195 S.O2    1  UNL1        0.0736
      2 O          -8.4953  -19.3554   21.2320 O.2     1  UNL1       -0.1499
      3 O          -9.2140  -20.2401   24.0070 O.2     1  UNL1       -0.1499
      4 C         -10.1340  -19.0191   22.5364 C.ar    1  UNL1        0.1251
      5 C         -11.1563  -19.1376   23.6276 C.ar    1  UNL1        0.0240
      6 C         -12.4357  -18.3590   23.5445 C.ar    1  UNL1        0.0727
      7 C         -12.6927  -17.4618   22.3703 C.ar    1  UNL1        0.0078
      8 C         -11.6704  -17.3433   21.2791 C.ar    1  UNL1        0.0727
      9 C         -10.3910  -18.1219   21.3621 C.ar    1  UNL1        0.0240
     10 C         -13.4581  -18.4775   24.6358 C.3     1  UNL1        0.4186
     11 F         -14.4803  -18.5961   25.7271 F       1  UNL1       -0.1659
     12 F         -14.5164  -17.9755   23.6989 F       1  UNL1       -0.1659
     13 F         -12.3997  -18.9795   25.5727 F       1  UNL1       -0.1659
     14 C         -11.9274  -16.4461   20.1047 C.3     1  UNL1        0.4186
     15 F         -12.1845  -15.5489   18.9304 F       1  UNL1       -0.1659
     16 F         -13.0704  -15.8113   20.8399 F       1  UNL1       -0.1659
     17 F         -10.7844  -17.0808   19.3695 F       1  UNL1       -0.1659
     18 N          -7.5753  -20.5764   22.7026 N.pl3   1  UNL1       -0.2150
     19 H          -7.5403  -21.4117   23.2225 H       1  UNL1        0.1737
     20 C          -3.8972  -19.0946   20.5752 C.ar    1  UNL1        0.0002
     21 C          -4.3660  -18.4125   21.8262 C.ar    1  UNL1        0.0013
     22 C          -5.5920  -18.9064   22.5353 C.ar    1  UNL1        0.0159
     23 C          -6.3493  -20.0825   21.9935 C.ar    1  UNL1        0.0648
     24 C          -5.8804  -20.7646   20.7425 C.ar    1  UNL1        0.0159
     25 C          -4.6543  -20.2706   20.0334 C.ar    1  UNL1        0.0013
     26 C           1.1371  -17.8103   20.6552 C.3     1  UNL1        0.0521
     27 C          -0.1540  -17.9584   19.9062 C.ar    1  UNL1        0.0594
     28 C          -1.3800  -18.4524   20.6152 C.ar    1  UNL1        0.0147
     29 C          -2.6711  -18.6006   19.8661 C.ar    1  UNL1        0.0027
     30 C          -2.7361  -18.2548   18.4080 C.ar    1  UNL1        0.0207
     31 C          -1.5101  -17.7609   17.6989 C.ar    1  UNL1        0.0984
     32 N          -0.2190  -17.6127   18.4480 N.ar    1  UNL1       -0.2481
@<TRIPOS>BOND
     1    26    27    1
     2    27    28   ar
     3    28    29   ar
     4    29    20    1
     5    20    21   ar
     6    21    22   ar
     7    22    23   ar
     8    23    18    1
     9    18     1    1
    10     1     2    2
    11     1     3    2
    12     1     4    1
    13     4     5   ar
    14     5     6   ar
    15     6    10    1
    16    10    11    1
    17    10    12    1
    18    10    13    1
    19     6     7   ar
    20     7     8   ar
    21     8    14    1
    22    14    15    1
    23    14    16    1
    24    14    17    1
    25     8     9   ar
    26    23    24   ar
    27    24    25   ar
    28    29    30   ar
    29    30    31   ar
    30    31    32   ar
    31    32    27   ar
    32    25    20   ar
    33     9     4   ar
    34    18    19    1
@<TRIPOS>MOLECULE
*****
 32 34 0 0 0
SMALL
GASTEIGER

@<TRIPOS>ATOM
      1 S          -1.1733    3.3322   20.6105 S.O2    1  UNL1        0.0736
      2 O          -1.6289    3.4989   19.1911 O.2     1  UNL1       -0.1499
      3 O          -0.7176    3.1655   22.0298 O.2     1  UNL1       -0.1499
      4 C          -2.5954    3.4257   21.0781 C.ar    1  UNL1        0.1251
      5 C          -2.9024    3.4476   22.5461 C.ar    1  UNL1        0.0240
      6 C          -4.3246    3.5411   23.0137 C.ar    1  UNL1        0.0727
      7 C          -5.4398    3.6129   22.0132 C.ar    1  UNL1        0.0078
      8 C          -5.1329    3.5910   20.5451 C.ar    1  UNL1        0.0727
      9 C          -3.7107    3.4975   20.0776 C.ar    1  UNL1        0.0240
     10 C          -4.6315    3.5630   24.4818 C.3     1  UNL1        0.4186
     11 F          -4.9383    3.5848   25.9499 F       1  UNL1       -0.1659
     12 F          -6.0504    3.9441   24.1796 F       1  UNL1       -0.1659
     13 F          -3.2126    3.1819   24.7841 F       1  UNL1       -0.1659
     14 C          -6.2482    3.6628   19.5445 C.3     1  UNL1        0.4186
     15 F          -7.3633    3.7345   18.5440 F       1  UNL1       -0.1659
     16 F          -5.3546    3.0538   18.5050 F       1  UNL1       -0.1659
     17 F          -7.1417    4.2717   20.5841 F       1  UNL1       -0.1659
     18 N           0.2489    3.2386   20.1429 N.pl3   1  UNL1       -0.2150
     19 H           0.6752    4.0109   19.7059 H       1  UNL1        0.1737
     20 C           2.5669   -0.5723   20.7377 C.ar    1  UNL1        0.0002
     21 C           3.1666    0.7414   21.1434 C.ar    1  UNL1        0.0013
     22 C           2.3940    2.0117   20.9452 C.ar    1  UNL1        0.0159
     23 C           1.0216    1.9683   20.3412 C.ar    1  UNL1        0.0648
     24 C           0.4219    0.6546   19.9355 C.ar    1  UNL1        0.0159
     25 C           1.1946   -0.6157   20.1338 C.ar    1  UNL1        0.0013
     26 C           4.5213   -4.9945   18.8337 C.3     1  UNL1        0.0521
     27 C           4.3168   -4.0537   19.9840 C.ar    1  UNL1        0.0594
     28 C           3.5441   -2.7834   19.7858 C.ar    1  UNL1        0.0147
     29 C           3.3397   -1.8426   20.9360 C.ar    1  UNL1        0.0027
     30 C           3.9079   -2.1721   22.2845 C.ar    1  UNL1        0.0207
     31 C           4.6806   -3.4424   22.4828 C.ar    1  UNL1        0.0984
     32 N           4.8850   -4.3832   21.3325 N.ar    1  UNL1       -0.2481
@<TRIPOS>BOND
     1    26    27    1
     2    27    28   ar
     3    28    29   ar
     4    29    20    1
     5    20    21   ar
     6    21    22   ar
     7    22    23   ar
     8    23    18    1
     9    18     1    1
    10     1     2    2
    11     1     3    2
    12     1     4    1
    13     4     5   ar
    14     5     6   ar
    15     6    10    1
    16    10    11    1
    17    10    12    1
    18    10    13    1
    19     6     7   ar
    20     7     8   ar
    21     8    14    1
    22    14    15    1
    23    14    16    1
    24    14    17    1
    25     8     9   ar
    26    23    24   ar
    27    24    25   ar
    28    29    30   ar
    29    30    31   ar
    30    31    32   ar
    31    32    27   ar
    32    25    20   ar
    33     9     4   ar
    34    18    19    1
@<TRIPOS>MOLECULE
*****
 32 34 0 0 0
SMALL
GASTEIGER

@<TRIPOS>ATOM
      1 S          -1.1889    3.3450   20.6265 S.O2    1  UNL1        0.0736
      2 O          -1.6470    3.5299   19.2102 O.2     1  UNL1       -0.1499
      3 O          -0.7309    3.1601   22.0429 O.2     1  UNL1       -0.1499
      4 C          -2.6098    3.4383   21.0982 C.ar    1  UNL1        0.1251
      5 C          -3.7277    3.5133   20.1009 C.ar    1  UNL1        0.0240
      6 C          -5.1486    3.6067   20.5726 C.ar    1  UNL1        0.0727
      7 C          -5.4515    3.6250   22.0415 C.ar    1  UNL1        0.0078
      8 C          -4.3336    3.5500   23.0388 C.ar    1  UNL1        0.0727
      9 C          -2.9128    3.4567   22.5671 C.ar    1  UNL1        0.0240
     10 C          -6.2665    3.6816   19.5752 C.3     1  UNL1        0.4186
     11 F          -7.3844    3.7566   18.5779 F       1  UNL1       -0.1659
     12 F          -5.3881    3.0402   18.5423 F       1  UNL1       -0.1659
     13 F          -7.1449    4.3230   20.6081 F       1  UNL1       -0.1659
     14 C          -4.6365    3.5684   24.5078 C.3     1  UNL1        0.4186
     15 F          -4.9394    3.5867   25.9768 F       1  UNL1       -0.1659
     16 F          -3.2122    3.2046   24.8060 F       1  UNL1       -0.1659
     17 F          -6.0608    3.9322   24.2096 F       1  UNL1       -0.1659
     18 N           0.2319    3.2517   20.1549 N.pl3   1  UNL1       -0.2150
     19 H           0.6557    4.0229   19.7135 H       1  UNL1        0.1737
     20 C           2.5573   -0.5535   20.7574 C.ar    1  UNL1        0.0002
     21 C           3.1445    0.7596   21.1827 C.ar    1  UNL1        0.0013
     22 C           2.3694    2.0280   20.9819 C.ar    1  UNL1        0.0159
     23 C           1.0070    1.9833   20.3557 C.ar    1  UNL1        0.0648
     24 C           0.4199    0.6702   19.9304 C.ar    1  UNL1        0.0159
     25 C           1.1951   -0.5983   20.1312 C.ar    1  UNL1        0.0013
     26 C           4.4898   -4.9929   18.8712 C.3     1  UNL1        0.0521
     27 C           4.2988   -4.0416   20.0151 C.ar    1  UNL1        0.0594
     28 C           3.5236   -2.7732   19.8143 C.ar    1  UNL1        0.0147
     29 C           3.3325   -1.8219   20.9582 C.ar    1  UNL1        0.0027
     30 C           3.9166   -2.1390   22.3029 C.ar    1  UNL1        0.0207
     31 C           4.6918   -3.4073   22.5037 C.ar    1  UNL1        0.0984
     32 N           4.8828   -4.3586   21.3598 N.ar    1  UNL1       -0.2481
@<TRIPOS>BOND
     1    26    27    1
     2    27    28   ar
     3    28    29   ar
     4    29    20    1
     5    20    21   ar
     6    21    22   ar
     7    22    23   ar
     8    23    18    1
     9    18     1    1
    10     1     2    2
    11     1     3    2
    12     1     4    1
    13     4     5   ar
    14     5     6   ar
    15     6    10    1
    16    10    11    1
    17    10    12    1
    18    10    13    1
    19     6     7   ar
    20     7     8   ar
    21     8    14    1
    22    14    15    1
    23    14    16    1
    24    14    17    1
    25     8     9   ar
    26    23    24   ar
    27    24    25   ar
    28    29    30   ar
    29    30    31   ar
    30    31    32   ar
    31    32    27   ar
    32    25    20   ar
    33     9     4   ar
    34    18    19    1
@<TRIPOS>MOLECULE
*****
 32 34 0 0 0
SMALL
GASTEIGER

@<TRIPOS>ATOM
      1 S          -1.1620    3.3531   20.6840 S.O2    1  UNL1        0.0736
      2 O          -1.6010    3.5737   19.2668 O.2     1  UNL1       -0.1499
      3 O          -0.7231    3.1325   22.1013 O.2     1  UNL1       -0.1499
      4 C          -2.5893    3.4329   21.1385 C.ar    1  UNL1        0.1251
      5 C          -3.6962    3.4885   20.1278 C.ar    1  UNL1        0.0240
      6 C          -5.1235    3.5683   20.5823 C.ar    1  UNL1        0.0727
      7 C          -5.4438    3.5926   22.0475 C.ar    1  UNL1        0.0078
      8 C          -4.3368    3.5371   23.0582 C.ar    1  UNL1        0.0727
      9 C          -2.9096    3.4573   22.6037 C.ar    1  UNL1        0.0240
     10 C          -6.2305    3.6238   19.5716 C.3     1  UNL1        0.4186
     11 F          -7.3374    3.6793   18.5608 F       1  UNL1       -0.1659
     12 F          -7.1642    4.1464   20.6228 F       1  UNL1       -0.1659
     13 F          -5.2968    3.1012   18.5204 F       1  UNL1       -0.1659
     14 C          -4.6571    3.5614   24.5234 C.3     1  UNL1        0.4186
     15 F          -4.9774    3.5858   25.9886 F       1  UNL1       -0.1659
     16 F          -6.0792    3.9180   24.2066 F       1  UNL1       -0.1659
     17 F          -3.2350    3.2049   24.8402 F       1  UNL1       -0.1659
     18 N           0.2652    3.2733   20.2295 N.pl3   1  UNL1       -0.2150
     19 H           0.7020    4.0638   19.8378 H       1  UNL1        0.1737
     20 C           2.5505   -0.5796   20.6568 C.ar    1  UNL1        0.0002
     21 C           3.1891    0.7189   21.0519 C.ar    1  UNL1        0.0013
     22 C           2.4273    2.0032   20.9095 C.ar    1  UNL1        0.0159
     23 C           1.0270    1.9890   20.3720 C.ar    1  UNL1        0.0648
     24 C           0.3884    0.6904   19.9769 C.ar    1  UNL1        0.0159
     25 C           1.1502   -0.5939   20.1194 C.ar    1  UNL1        0.0013
     26 C           5.6163   -3.7067   23.4537 C.3     1  UNL1        0.0521
     27 C           4.8452   -3.4275   22.1977 C.ar    1  UNL1        0.0594
     28 C           4.0834   -2.1432   22.0552 C.ar    1  UNL1        0.0147
     29 C           3.3123   -1.8640   20.7993 C.ar    1  UNL1        0.0027
     30 C           3.3030   -2.8690   19.6858 C.ar    1  UNL1        0.0207
     31 C           4.0648   -4.1532   19.8283 C.ar    1  UNL1        0.0984
     32 N           4.8359   -4.4325   21.0843 N.ar    1  UNL1       -0.2481
@<TRIPOS>BOND
     1    26    27    1
     2    27    28   ar
     3    28    29   ar
     4    29    20    1
     5    20    21   ar
     6    21    22   ar
     7    22    23   ar
     8    23    18    1
     9    18     1    1
    10     1     2    2
    11     1     3    2
    12     1     4    1
    13     4     5   ar
    14     5     6   ar
    15     6    10    1
    16    10    11    1
    17    10    12    1
    18    10    13    1
    19     6     7   ar
    20     7     8   ar
    21     8    14    1
    22    14    15    1
    23    14    16    1
    24    14    17    1
    25     8     9   ar
    26    23    24   ar
    27    24    25   ar
    28    29    30   ar
    29    30    31   ar
    30    31    32   ar
    31    32    27   ar
    32    25    20   ar
    33     9     4   ar
    34    18    19    1
@<TRIPOS>MOLECULE
*****
 32 34 0 0 0
SMALL
GASTEIGER

@<TRIPOS>ATOM
      1 S          -1.3810    3.3289   21.1643 S.O2    1  UNL1        0.0736
      2 O          -0.1671    3.8797   21.8520 O.2     1  UNL1       -0.1499
      3 O          -2.5950    2.7781   20.4766 O.2     1  UNL1       -0.1499
      4 C          -2.1446    3.4023   22.4533 C.ar    1  UNL1        0.1251
      5 C          -1.4286    3.2291   23.7600 C.ar    1  UNL1        0.0240
      6 C          -2.1922    3.3025   25.0490 C.ar    1  UNL1        0.0727
      7 C          -3.6717    3.5490   25.0314 C.ar    1  UNL1        0.0078
      8 C          -4.3876    3.7221   23.7248 C.ar    1  UNL1        0.0727
      9 C          -3.6240    3.6488   22.4357 C.ar    1  UNL1        0.0240
     10 C          -1.4762    3.1293   26.3558 C.3     1  UNL1        0.4186
     11 F          -0.7602    2.9562   27.6624 F       1  UNL1       -0.1659
     12 F          -0.9290    1.8156   25.8819 F       1  UNL1       -0.1659
     13 F          -2.0234    4.4431   26.8296 F       1  UNL1       -0.1659
     14 C          -5.8671    3.9687   23.7071 C.3     1  UNL1        0.4186
     15 F          -7.3466    4.2152   23.6894 F       1  UNL1       -0.1659
     16 F          -5.8802    3.7831   22.2187 F       1  UNL1       -0.1659
     17 F          -5.8541    4.1542   25.1955 F       1  UNL1       -0.1659
     18 N          -0.6175    3.2555   19.8753 N.pl3   1  UNL1       -0.2150
     19 H          -0.7664    3.9321   19.1758 H       1  UNL1        0.1737
     20 C           2.3537   -0.0570   19.2054 C.ar    1  UNL1        0.0002
     21 C           2.5506    1.2729   18.5402 C.ar    1  UNL1        0.0013
     22 C           1.5602    2.3771   18.7635 C.ar    1  UNL1        0.0159
     23 C           0.3729    2.1513   19.6520 C.ar    1  UNL1        0.0648
     24 C           0.1760    0.8214   20.3172 C.ar    1  UNL1        0.0159
     25 C           1.1665   -0.2828   20.0939 C.ar    1  UNL1        0.0013
     26 C           3.6878   -5.0605   19.6359 C.3     1  UNL1        0.0521
     27 C           4.0112   -3.6630   19.1974 C.ar    1  UNL1        0.0594
     28 C           3.0208   -2.5588   19.4206 C.ar    1  UNL1        0.0147
     29 C           3.3442   -1.1613   18.9821 C.ar    1  UNL1        0.0027
     30 C           4.6579   -0.8679   18.3203 C.ar    1  UNL1        0.0207
     31 C           5.6483   -1.9721   18.0970 C.ar    1  UNL1        0.0984
     32 N           5.3249   -3.3696   18.5356 N.ar    1  UNL1       -0.2481
@<TRIPOS>BOND
     1    26    27    1
     2    27    28   ar
     3    28    29   ar
     4    29    20    1
     5    20    21   ar
     6    21    22   ar
     7    22    23   ar
     8    23    18    1
     9    18     1    1
    10     1     2    2
    11     1     3    2
    12     1     4    1
    13     4     5   ar
    14     5     6   ar
    15     6    10    1
    16    10    11    1
    17    10    12    1
    18    10    13    1
    19     6     7   ar
    20     7     8   ar
    21     8    14    1
    22    14    15    1
    23    14    16    1
    24    14    17    1
    25     8     9   ar
    26    23    24   ar
    27    24    25   ar
    28    29    30   ar
    29    30    31   ar
    30    31    32   ar
    31    32    27   ar
    32    25    20   ar
    33     9     4   ar
    34    18    19    1
@<TRIPOS>MOLECULE
*****
 32 34 0 0 0
SMALL
GASTEIGER

@<TRIPOS>ATOM
      1 S          -1.4170    3.2512   21.2161 S.O2    1  UNL1        0.0736
      2 O          -0.1383    3.7099   21.8522 O.2     1  UNL1       -0.1499
      3 O          -2.6957    2.7925   20.5800 O.2     1  UNL1       -0.1499
      4 C          -2.1129    3.3538   22.5409 C.ar    1  UNL1        0.1251
      5 C          -3.5853    3.6348   22.5949 C.ar    1  UNL1        0.0240
      6 C          -4.2812    3.7373   23.9198 C.ar    1  UNL1        0.0727
      7 C          -3.5046    3.5589   25.1906 C.ar    1  UNL1        0.0078
      8 C          -2.0322    3.2779   25.1366 C.ar    1  UNL1        0.0727
      9 C          -1.3363    3.1754   23.8118 C.ar    1  UNL1        0.0240
     10 C          -5.7537    4.0184   23.9738 C.3     1  UNL1        0.4186
     11 F          -7.2261    4.2994   24.0278 F       1  UNL1       -0.1659
     12 F          -5.8902    3.5772   22.5467 F       1  UNL1       -0.1659
     13 F          -5.6171    4.4595   25.4009 F       1  UNL1       -0.1659
     14 C          -1.2555    3.0995   26.4075 C.3     1  UNL1        0.4186
     15 F          -0.4790    2.9211   27.6783 F       1  UNL1       -0.1659
     16 F          -1.7657    4.4196   26.9045 F       1  UNL1       -0.1659
     17 F          -0.7454    1.7794   25.9105 F       1  UNL1       -0.1659
     18 N          -0.7211    3.1486   19.8912 N.pl3   1  UNL1       -0.2150
     19 H          -0.9366    3.7848   19.1715 H       1  UNL1        0.1737
     20 C           2.3513   -0.0672   19.2065 C.ar    1  UNL1        0.0002
     21 C           1.1742   -0.3321   20.0977 C.ar    1  UNL1        0.0013
     22 C           0.1500    0.7398   20.3259 C.ar    1  UNL1        0.0159
     23 C           0.3030    2.0767   19.6630 C.ar    1  UNL1        0.0648
     24 C           1.4801    2.3416   18.7718 C.ar    1  UNL1        0.0159
     25 C           2.5043    1.2696   18.5435 C.ar    1  UNL1        0.0013
     26 C           3.7972   -5.0485   19.5160 C.3     1  UNL1        0.0521
     27 C           4.0984   -3.6298   19.1330 C.ar    1  UNL1        0.0594
     28 C           3.0743   -2.5578   19.3612 C.ar    1  UNL1        0.0147
     29 C           3.3754   -1.1392   18.9783 C.ar    1  UNL1        0.0027
     30 C           4.7006   -0.7924   18.3671 C.ar    1  UNL1        0.0207
     31 C           5.7247   -1.8644   18.1389 C.ar    1  UNL1        0.0984
     32 N           5.4236   -3.2831   18.5219 N.ar    1  UNL1       -0.2481
@<TRIPOS>BOND
     1    26    27    1
     2    27    28   ar
     3    28    29   ar
     4    29    20    1
     5    20    21   ar
     6    21    22   ar
     7    22    23   ar
     8    23    18    1
     9    18     1    1
    10     1     2    2
    11     1     3    2
    12     1     4    1
    13     4     5   ar
    14     5     6   ar
    15     6    10    1
    16    10    11    1
    17    10    12    1
    18    10    13    1
    19     6     7   ar
    20     7     8   ar
    21     8    14    1
    22    14    15    1
    23    14    16    1
    24    14    17    1
    25     8     9   ar
    26    23    24   ar
    27    24    25   ar
    28    29    30   ar
    29    30    31   ar
    30    31    32   ar
    31    32    27   ar
    32    25    20   ar
    33     9     4   ar
    34    18    19    1
@<TRIPOS>MOLECULE
*****
 32 34 0 0 0
SMALL
GASTEIGER

@<TRIPOS>ATOM
      1 S          -8.9632  -16.7369   23.8028 S.O2    1  UNL1        0.0736
      2 O          -8.5687  -15.6918   22.8018 O.2     1  UNL1       -0.1499
      3 O          -9.3576  -17.7821   24.8038 O.2     1  UNL1       -0.1499
      4 C         -10.3100  -16.8515   23.1525 C.ar    1  UNL1        0.1251
      5 C         -10.5185  -16.3285   21.7622 C.ar    1  UNL1        0.0240
      6 C         -11.8654  -16.4430   21.1120 C.ar    1  UNL1        0.0727
      7 C         -13.0037  -17.0805   21.8520 C.ar    1  UNL1        0.0078
      8 C         -12.7953  -17.6034   23.2423 C.ar    1  UNL1        0.0727
      9 C         -11.4484  -17.4889   23.8926 C.ar    1  UNL1        0.0240
     10 C         -12.0738  -15.9200   19.7216 C.3     1  UNL1        0.4186
     11 F         -12.2823  -15.3971   18.3313 F       1  UNL1       -0.1659
     12 F         -10.6323  -16.1877   19.4047 F       1  UNL1       -0.1659
     13 F         -13.5153  -15.6523   20.0384 F       1  UNL1       -0.1659
     14 C         -13.9337  -18.2409   23.9824 C.3     1  UNL1        0.4186
     15 F         -15.0720  -18.8783   24.7226 F       1  UNL1       -0.1659
     16 F         -13.1268  -18.2139   25.2466 F       1  UNL1       -0.1659
     17 F         -14.7405  -18.2679   22.7182 F       1  UNL1       -0.1659
     18 N          -7.6163  -16.6224   24.4531 N.pl3   1  UNL1       -0.2150
     19 H          -7.5425  -16.2915   25.3774 H       1  UNL1        0.1737
     20 C          -3.9132  -17.7914   22.1792 C.ar    1  UNL1        0.0002
     21 C          -3.8700  -16.6433   23.1436 C.ar    1  UNL1        0.0013
     22 C          -5.1043  -16.2537   23.9016 C.ar    1  UNL1        0.0159
     23 C          -6.3820  -17.0121   23.6951 C.ar    1  UNL1        0.0648
     24 C          -6.4251  -18.1601   22.7307 C.ar    1  UNL1        0.0159
     25 C          -5.1907  -18.5498   21.9727 C.ar    1  UNL1        0.0013
     26 C           0.5516  -16.4764   19.8691 C.3     1  UNL1        0.0521
     27 C          -0.4464  -17.5235   20.2662 C.ar    1  UNL1        0.0594
     28 C          -1.6807  -17.1339   21.0241 C.ar    1  UNL1        0.0147
     29 C          -2.6787  -18.1810   21.4212 C.ar    1  UNL1        0.0027
     30 C          -2.4424  -19.6176   21.0604 C.ar    1  UNL1        0.0207
     31 C          -1.2080  -20.0071   20.3025 C.ar    1  UNL1        0.0984
     32 N          -0.2100  -18.9601   19.9054 N.ar    1  UNL1       -0.2481
@<TRIPOS>BOND
     1    26    27    1
     2    27    28   ar
     3    28    29   ar
     4    29    20    1
     5    20    21   ar
     6    21    22   ar
     7    22    23   ar
     8    23    18    1
     9    18     1    1
    10     1     2    2
    11     1     3    2
    12     1     4    1
    13     4     5   ar
    14     5     6   ar
    15     6    10    1
    16    10    11    1
    17    10    12    1
    18    10    13    1
    19     6     7   ar
    20     7     8   ar
    21     8    14    1
    22    14    15    1
    23    14    16    1
    24    14    17    1
    25     8     9   ar
    26    23    24   ar
    27    24    25   ar
    28    29    30   ar
    29    30    31   ar
    30    31    32   ar
    31    32    27   ar
    32    25    20   ar
    33     9     4   ar
    34    18    19    1
@<TRIPOS>MOLECULE
*****
 32 34 0 0 0
SMALL
GASTEIGER

@<TRIPOS>ATOM
      1 S           5.6853   -3.1486   22.0890 S.O2    1  UNL1        0.0736
      2 O           6.7552   -2.1242   21.8521 O.2     1  UNL1       -0.1499
      3 O           4.6154   -4.1729   22.3258 O.2     1  UNL1       -0.1499
      4 C           4.6889   -2.2684   21.3943 C.ar    1  UNL1        0.1251
      5 C           3.6645   -1.5190   22.1937 C.ar    1  UNL1        0.0240
      6 C           2.6681   -0.6389   21.4991 C.ar    1  UNL1        0.0727
      7 C           2.6960   -0.5082   20.0051 C.ar    1  UNL1        0.0078
      8 C           3.7204   -1.2576   19.2057 C.ar    1  UNL1        0.0727
      9 C           4.7168   -2.1377   19.9003 C.ar    1  UNL1        0.0240
     10 C           1.6437    0.1105   22.2985 C.3     1  UNL1        0.4186
     11 F           0.6194    0.8599   23.0980 F       1  UNL1       -0.1659
     12 F           0.7758    0.2238   21.0804 F       1  UNL1       -0.1659
     13 F           2.5116   -0.0027   23.5167 F       1  UNL1       -0.1659
     14 C           3.7483   -1.1270   17.7116 C.3     1  UNL1        0.4186
     15 F           3.7763   -0.9963   16.2176 F       1  UNL1       -0.1659
     16 F           4.7562   -2.2351   17.6336 F       1  UNL1       -0.1659
     17 F           2.7405   -0.0188   17.7896 F       1  UNL1       -0.1659
     18 N           6.6817   -4.0287   22.7836 N.pl3   1  UNL1       -0.2150
     19 H           7.3243   -4.5563   22.2563 H       1  UNL1        0.1737
     20 C           6.7340   -4.2575   27.2775 C.ar    1  UNL1        0.0002
     21 C           6.3364   -2.9817   26.5960 C.ar    1  UNL1        0.0013
     22 C           6.3190   -2.9054   25.0981 C.ar    1  UNL1        0.0159
     23 C           6.6991   -4.1050   24.2815 C.ar    1  UNL1        0.0648
     24 C           7.0967   -5.3807   24.9630 C.ar    1  UNL1        0.0159
     25 C           7.1141   -5.4570   26.4610 C.ar    1  UNL1        0.0013
     26 C           6.2619   -1.9451   31.9067 C.3     1  UNL1        0.0521
     27 C           6.5153   -3.1775   31.0901 C.ar    1  UNL1        0.0594
     28 C           6.4980   -3.1013   29.5921 C.ar    1  UNL1        0.0147
     29 C           6.7514   -4.3337   28.7755 C.ar    1  UNL1        0.0027
     30 C           7.0222   -5.6423   29.4567 C.ar    1  UNL1        0.0207
     31 C           7.0395   -5.7185   30.9547 C.ar    1  UNL1        0.0984
     32 N           6.7861   -4.4861   31.7713 N.ar    1  UNL1       -0.2481
@<TRIPOS>BOND
     1    26    27    1
     2    27    28   ar
     3    28    29   ar
     4    29    20    1
     5    20    21   ar
     6    21    22   ar
     7    22    23   ar
     8    23    18    1
     9    18     1    1
    10     1     2    2
    11     1     3    2
    12     1     4    1
    13     4     5   ar
    14     5     6   ar
    15     6    10    1
    16    10    11    1
    17    10    12    1
    18    10    13    1
    19     6     7   ar
    20     7     8   ar
    21     8    14    1
    22    14    15    1
    23    14    16    1
    24    14    17    1
    25     8     9   ar
    26    23    24   ar
    27    24    25   ar
    28    29    30   ar
    29    30    31   ar
    30    31    32   ar
    31    32    27   ar
    32    25    20   ar
    33     9     4   ar
    34    18    19    1
