@<TRIPOS>MOLECULE
*****
 39 43 0 0 0
SMALL
GASTEIGER

@<TRIPOS>ATOM
      1 C           7.9602   -5.6165   23.7142 C.ar    1  UNL1        0.0830
      2 C           8.8144   -6.0859   22.5741 C.ar    1  UNL1        0.0208
      3 C           8.7709   -5.3664   21.2586 C.ar    1  UNL1        0.0238
      4 C           7.8732   -4.1775   21.0834 C.ar    1  UNL1        0.1173
      5 N           7.6204   -3.2747   19.9124 N.ar    1  UNL1       -0.2248
      6 C           6.6099   -2.2474   20.3289 C.ar    1  UNL1        0.1515
      7 N           6.2383   -2.5152   21.7572 N.ar    1  UNL1       -0.2754
      8 C           7.0190   -3.7081   22.2235 C.ar    1  UNL1        0.1665
      9 N           7.0625   -4.4276   23.5389 N.ar    1  UNL1       -0.2264
     10 C           6.0665   -1.1455   19.4682 C.ar    1  UNL1        0.0657
     11 C           6.3848    0.2844   19.7906 C.ar    1  UNL1        0.0074
     12 C           5.8414    1.3861   18.9299 C.ar    1  UNL1        0.0209
     13 C           4.9796    1.0579   17.7468 C.ar    1  UNL1        0.1003
     14 N           4.6613   -0.3720   17.4244 N.ar    1  UNL1       -0.2295
     15 C           5.2047   -1.4737   18.2851 C.ar    1  UNL1        0.1282
     16 N           4.8864   -2.9037   17.9627 N.pl3   1  UNL1       -0.3425
     17 H           4.3208   -3.1191   17.1862 H       1  UNL1        0.1437
     18 H           5.2431   -3.6268   18.5276 H       1  UNL1        0.1437
     19 C           7.3745   -6.4616   27.5473 C.ar    1  UNL1        0.0503
     20 C           8.0906   -7.7748   27.6608 C.ar    1  UNL1        0.0147
     21 C           8.7633   -8.3685   26.4587 C.ar    1  UNL1        0.0013
     22 C           8.7198   -7.6490   25.1431 C.ar    1  UNL1        0.0016
     23 C           8.0037   -6.3359   25.0298 C.ar    1  UNL1        0.0189
     24 C           7.3310   -5.7422   26.2319 C.ar    1  UNL1        0.0162
     25 C           6.8477   -4.5998   31.0123 C.3     1  UNL1        0.0949
     26 C           7.5203   -5.1935   29.8102 C.2     1  UNL1        0.2266
     27 O           9.0115   -5.1128   29.6689 O.2     1  UNL1       -0.2748
     28 N           6.7018   -5.8679   28.7494 N.am    1  UNL1       -0.2839
     29 H           5.7231   -5.9209   28.8422 H       1  UNL1        0.1549
     30 C           5.2580   -1.7283   22.5756 C.ar    1  UNL1        0.0667
     31 C           5.7104   -1.0370   23.8276 C.ar    1  UNL1        0.0173
     32 C           4.7301   -0.2501   24.6460 C.ar    1  UNL1       -0.0014
     33 C           3.2973   -0.1546   24.2125 C.ar    1  UNL1       -0.0065
     34 C           2.8448   -0.8459   22.9606 C.ar    1  UNL1       -0.0014
     35 C           3.8251   -1.6328   22.1422 C.ar    1  UNL1        0.0173
     36 C           2.3170    0.6323   25.0309 C.3     1  UNL1        0.0922
     37 N           2.1243    0.3112   26.4834 N.3     1  UNL1       -0.3175
     38 H           1.7152   -0.6187   26.5746 H       1  UNL1        0.1192
     39 H           1.5004    0.9999   26.9040 H       1  UNL1        0.1192
@<TRIPOS>BOND
     1    25    26    1
     2    26    27    2
     3    26    28   am
     4    28    19    1
     5    19    20   ar
     6    20    21   ar
     7    21    22   ar
     8    22    23   ar
     9    23     1    1
    10     1     2   ar
    11     2     3   ar
    12     3     4   ar
    13     4     5   ar
    14     5     6   ar
    15     6    10    1
    16    10    11   ar
    17    11    12   ar
    18    12    13   ar
    19    13    14   ar
    20    14    15   ar
    21    15    16    1
    22     6     7   ar
    23     7    30    1
    24    30    31   ar
    25    31    32   ar
    26    32    33   ar
    27    33    36    1
    28    36    37    1
    29    33    34   ar
    30    34    35   ar
    31     7     8   ar
    32     8     9   ar
    33    23    24   ar
    34    24    19   ar
    35     9     1   ar
    36     8     4   ar
    37    15    10   ar
    38    35    30   ar
    39    28    29    1
    40    16    17    1
    41    16    18    1
    42    37    38    1
    43    37    39    1
@<TRIPOS>MOLECULE
*****
 39 43 0 0 0
SMALL
GASTEIGER

@<TRIPOS>ATOM
      1 C           8.5609   -6.3400   26.0111 C.ar    1  UNL1        0.0830
      2 C           9.3405   -7.3023   25.1648 C.ar    1  UNL1        0.0208
      3 C           9.3503   -7.1511   23.6725 C.ar    1  UNL1        0.0238
      4 C           8.5806   -6.0374   23.0265 C.ar    1  UNL1        0.1173
      5 N           8.4043   -5.6403   21.5907 N.ar    1  UNL1       -0.2248
      6 C           7.5157   -4.4325   21.5497 C.ar    1  UNL1        0.1515
      7 N           7.1429   -4.0832   22.9600 N.ar    1  UNL1       -0.2754
      8 C           7.8010   -5.0751   23.8727 C.ar    1  UNL1        0.1665
      9 N           7.7912   -5.2263   25.3650 N.ar    1  UNL1       -0.2264
     10 C           7.0770   -3.7022   20.3151 C.ar    1  UNL1        0.0657
     11 C           5.6704   -3.8509   19.8158 C.ar    1  UNL1        0.0074
     12 C           5.2317   -3.1206   18.5812 C.ar    1  UNL1        0.0209
     13 C           6.1996   -2.2416   17.8459 C.ar    1  UNL1        0.1003
     14 N           7.6062   -2.0930   18.3453 N.ar    1  UNL1       -0.2295
     15 C           8.0449   -2.8233   19.5798 C.ar    1  UNL1        0.1282
     16 N           9.4515   -2.6746   20.0792 N.pl3   1  UNL1       -0.3425
     17 H          10.0868   -2.0977   19.5966 H       1  UNL1        0.1437
     18 H           9.7395   -3.1539   20.8895 H       1  UNL1        0.1437
     19 C           7.5464   -5.8804   29.8202 C.ar    1  UNL1        0.0503
     20 C           8.5313   -6.7936   30.4881 C.ar    1  UNL1        0.0147
     21 C           9.5261   -7.5556   29.6636 C.ar    1  UNL1        0.0013
     22 C           9.5360   -7.4044   28.1713 C.ar    1  UNL1        0.0016
     23 C           8.5511   -6.4912   27.5034 C.ar    1  UNL1        0.0189
     24 C           7.5563   -5.7292   28.3279 C.ar    1  UNL1        0.0162
     25 C           5.9755   -3.1050   32.1823 C.3     1  UNL1        0.0949
     26 C           6.9703   -3.8670   31.3578 C.2     1  UNL1        0.2266
     27 O           8.3838   -3.3775   31.2465 O.2     1  UNL1       -0.2748
     28 N           6.5516   -5.1184   30.6447 N.am    1  UNL1       -0.2839
     29 H           5.6238   -5.4397   30.7178 H       1  UNL1        0.1549
     30 C           6.2660   -2.9423   23.3834 C.ar    1  UNL1        0.0667
     31 C           6.8800   -1.6829   23.9188 C.ar    1  UNL1        0.0173
     32 C           6.0031   -0.5419   24.3421 C.ar    1  UNL1       -0.0014
     33 C           4.5120   -0.6604   24.2300 C.ar    1  UNL1       -0.0065
     34 C           3.8979   -1.9198   23.6946 C.ar    1  UNL1       -0.0014
     35 C           4.7749   -3.0608   23.2713 C.ar    1  UNL1        0.0173
     36 C           3.6350    0.4805   24.6534 C.3     1  UNL1        0.0922
     37 N           2.1685    0.2568   24.8757 N.3     1  UNL1       -0.3175
     38 H           1.7228    0.0186   23.9897 H       1  UNL1        0.1192
     39 H           1.7478    1.1073   25.2501 H       1  UNL1        0.1192
@<TRIPOS>BOND
     1    25    26    1
     2    26    27    2
     3    26    28   am
     4    28    19    1
     5    19    20   ar
     6    20    21   ar
     7    21    22   ar
     8    22    23   ar
     9    23     1    1
    10     1     2   ar
    11     2     3   ar
    12     3     4   ar
    13     4     5   ar
    14     5     6   ar
    15     6    10    1
    16    10    11   ar
    17    11    12   ar
    18    12    13   ar
    19    13    14   ar
    20    14    15   ar
    21    15    16    1
    22     6     7   ar
    23     7    30    1
    24    30    31   ar
    25    31    32   ar
    26    32    33   ar
    27    33    36    1
    28    36    37    1
    29    33    34   ar
    30    34    35   ar
    31     7     8   ar
    32     8     9   ar
    33    23    24   ar
    34    24    19   ar
    35     9     1   ar
    36     8     4   ar
    37    15    10   ar
    38    35    30   ar
    39    28    29    1
    40    16    17    1
    41    16    18    1
    42    37    38    1
    43    37    39    1
@<TRIPOS>MOLECULE
*****
 39 43 0 0 0
SMALL
GASTEIGER

@<TRIPOS>ATOM
      1 C           1.6325    1.2018   22.1104 C.ar    1  UNL1        0.0830
      2 C           0.8548    1.6720   20.9171 C.ar    1  UNL1        0.0208
      3 C          -0.3868    2.4919   21.1067 C.ar    1  UNL1        0.0238
      4 C          -0.8507    2.8417   22.4897 C.ar    1  UNL1        0.1173
      5 N          -2.0276    3.6293   22.9843 N.ar    1  UNL1       -0.2248
      6 C          -1.9772    3.6458   24.4834 C.ar    1  UNL1        0.1515
      7 N          -0.7692    2.8684   24.9151 N.ar    1  UNL1       -0.2754
      8 C          -0.0730    2.3714   23.6830 C.ar    1  UNL1        0.1665
      9 N           1.1686    1.5515   23.4933 N.ar    1  UNL1       -0.2264
     10 C          -2.9619    4.3211   25.3913 C.ar    1  UNL1        0.0657
     11 C          -2.4833    5.3032   26.4191 C.ar    1  UNL1        0.0074
     12 C          -3.4680    5.9785   27.3270 C.ar    1  UNL1        0.0209
     13 C          -4.9314    5.6717   27.2071 C.ar    1  UNL1        0.1003
     14 N          -5.4100    4.6896   26.1794 N.ar    1  UNL1       -0.2295
     15 C          -4.4253    4.0143   25.2715 C.ar    1  UNL1        0.1282
     16 N          -4.9040    3.0322   24.2437 N.pl3   1  UNL1       -0.3425
     17 H          -5.8645    2.8308   24.1650 H       1  UNL1        0.1437
     18 H          -4.2577    2.5890   23.6478 H       1  UNL1        0.1437
     19 C           4.1635   -1.4913   20.6641 C.ar    1  UNL1        0.0503
     20 C           5.3575   -1.2582   21.5416 C.ar    1  UNL1        0.0147
     21 C           5.3099   -0.2052   22.6088 C.ar    1  UNL1        0.0013
     22 C           4.0682    0.6148   22.7984 C.ar    1  UNL1        0.0016
     23 C           2.8742    0.3817   21.9208 C.ar    1  UNL1        0.0189
     24 C           2.9219   -0.6713   20.8537 C.ar    1  UNL1        0.0162
     25 C           4.3773   -5.0440   18.9084 C.3     1  UNL1        0.0949
     26 C           4.3296   -3.9910   19.9755 C.2     1  UNL1        0.2266
     27 O           4.4004   -4.3845   21.4212 O.2     1  UNL1       -0.2748
     28 N           4.2112   -2.5443   19.5969 N.am    1  UNL1       -0.2839
     29 H           4.1647   -2.2860   18.6480 H       1  UNL1        0.1549
     30 C          -0.3338    2.6299   26.3306 C.ar    1  UNL1        0.0667
     31 C           0.6480    3.5595   26.9801 C.ar    1  UNL1        0.0173
     32 C           1.0834    3.3209   28.3956 C.ar    1  UNL1       -0.0014
     33 C           0.5370    2.1527   29.1616 C.ar    1  UNL1       -0.0065
     34 C          -0.4448    1.2232   28.5121 C.ar    1  UNL1       -0.0014
     35 C          -0.8802    1.4617   27.0966 C.ar    1  UNL1        0.0173
     36 C           0.9723    1.9142   30.5770 C.3     1  UNL1        0.0922
     37 N          -0.0429    1.8966   31.6811 N.3     1  UNL1       -0.3175
     38 H          -0.4512    2.8258   31.7824 H       1  UNL1        0.1192
     39 H           0.4095    1.6269   32.5546 H       1  UNL1        0.1192
@<TRIPOS>BOND
     1    25    26    1
     2    26    27    2
     3    26    28   am
     4    28    19    1
     5    19    20   ar
     6    20    21   ar
     7    21    22   ar
     8    22    23   ar
     9    23     1    1
    10     1     2   ar
    11     2     3   ar
    12     3     4   ar
    13     4     5   ar
    14     5     6   ar
    15     6    10    1
    16    10    11   ar
    17    11    12   ar
    18    12    13   ar
    19    13    14   ar
    20    14    15   ar
    21    15    16    1
    22     6     7   ar
    23     7    30    1
    24    30    31   ar
    25    31    32   ar
    26    32    33   ar
    27    33    36    1
    28    36    37    1
    29    33    34   ar
    30    34    35   ar
    31     7     8   ar
    32     8     9   ar
    33    23    24   ar
    34    24    19   ar
    35     9     1   ar
    36     8     4   ar
    37    15    10   ar
    38    35    30   ar
    39    28    29    1
    40    16    17    1
    41    16    18    1
    42    37    38    1
    43    37    39    1
@<TRIPOS>MOLECULE
*****
 39 43 0 0 0
SMALL
GASTEIGER

@<TRIPOS>ATOM
      1 C           1.1928    2.0641   19.7652 C.ar    1  UNL1        0.0830
      2 C           0.1290    2.6524   18.8865 C.ar    1  UNL1        0.0208
      3 C          -1.0962    3.2638   19.4989 C.ar    1  UNL1        0.0238
      4 C          -1.2576    3.2869   20.9900 C.ar    1  UNL1        0.1173
      5 N          -2.3478    3.8171   21.8735 N.ar    1  UNL1       -0.2248
      6 C          -1.9576    3.5565   23.2982 C.ar    1  UNL1        0.1515
      7 N          -0.6264    2.8653   23.2953 N.ar    1  UNL1       -0.2754
      8 C          -0.1938    2.6986   21.8687 C.ar    1  UNL1        0.1665
      9 N           1.0314    2.0873   21.2563 N.ar    1  UNL1       -0.2264
     10 C          -2.7582    3.9229   24.5128 C.ar    1  UNL1        0.0657
     11 C          -2.1211    4.7043   25.6233 C.ar    1  UNL1        0.0074
     12 C          -2.9216    5.0706   26.8378 C.ar    1  UNL1        0.0209
     13 C          -4.3593    4.6555   26.9416 C.ar    1  UNL1        0.1003
     14 N          -4.9964    3.8741   25.8310 N.ar    1  UNL1       -0.2295
     15 C          -4.1959    3.5078   24.6166 C.ar    1  UNL1        0.1282
     16 N          -4.8330    2.7264   23.5059 N.pl3   1  UNL1       -0.3425
     17 H          -5.7766    2.4539   23.5741 H       1  UNL1        0.1437
     18 H          -4.3075    2.4859   22.7088 H       1  UNL1        0.1437
     19 C           3.7050   -0.6388   18.3047 C.ar    1  UNL1        0.0503
     20 C           4.8685    0.2299   17.9281 C.ar    1  UNL1        0.0147
     21 C           4.8068    1.7099   18.1639 C.ar    1  UNL1        0.0013
     22 C           3.5815    2.3214   18.7763 C.ar    1  UNL1        0.0016
     23 C           2.4181    1.4527   19.1528 C.ar    1  UNL1        0.0189
     24 C           2.4798   -0.0273   18.9170 C.ar    1  UNL1        0.0162
     25 C           4.0746   -4.5317   18.9817 C.3     1  UNL1        0.0949
     26 C           4.0129   -3.0517   19.2175 C.2     1  UNL1        0.2266
     27 O           4.1972   -2.5044   20.6019 O.2     1  UNL1       -0.2748
     28 N           3.7667   -2.1188   18.0689 N.am    1  UNL1       -0.2839
     29 H           3.6457   -2.4780   17.1602 H       1  UNL1        0.1549
     30 C           0.1380    2.4190   24.5063 C.ar    1  UNL1        0.0667
     31 C          -0.4833    1.4539   25.4719 C.ar    1  UNL1        0.0173
     32 C           0.2811    1.0076   26.6829 C.ar    1  UNL1       -0.0014
     33 C           1.6669    1.5265   26.9283 C.ar    1  UNL1       -0.0065
     34 C           2.2883    2.4915   25.9626 C.ar    1  UNL1       -0.0014
     35 C           1.5239    2.9378   24.7517 C.ar    1  UNL1        0.0173
     36 C           2.4313    1.0802   28.1392 C.3     1  UNL1        0.0922
     37 N           2.4792   -0.3745   28.5019 N.3     1  UNL1       -0.3175
     38 H           1.5454   -0.6906   28.7634 H       1  UNL1        0.1192
     39 H           3.1159   -0.5083   29.2875 H       1  UNL1        0.1192
@<TRIPOS>BOND
     1    25    26    1
     2    26    27    2
     3    26    28   am
     4    28    19    1
     5    19    20   ar
     6    20    21   ar
     7    21    22   ar
     8    22    23   ar
     9    23     1    1
    10     1     2   ar
    11     2     3   ar
    12     3     4   ar
    13     4     5   ar
    14     5     6   ar
    15     6    10    1
    16    10    11   ar
    17    11    12   ar
    18    12    13   ar
    19    13    14   ar
    20    14    15   ar
    21    15    16    1
    22     6     7   ar
    23     7    30    1
    24    30    31   ar
    25    31    32   ar
    26    32    33   ar
    27    33    36    1
    28    36    37    1
    29    33    34   ar
    30    34    35   ar
    31     7     8   ar
    32     8     9   ar
    33    23    24   ar
    34    24    19   ar
    35     9     1   ar
    36     8     4   ar
    37    15    10   ar
    38    35    30   ar
    39    28    29    1
    40    16    17    1
    41    16    18    1
    42    37    38    1
    43    37    39    1
@<TRIPOS>MOLECULE
*****
 39 43 0 0 0
SMALL
GASTEIGER

@<TRIPOS>ATOM
      1 C          -0.5490    2.1325   25.8646 C.ar    1  UNL1        0.0830
      2 C          -1.5882    3.1950   26.0677 C.ar    1  UNL1        0.0208
      3 C          -2.1192    3.9591   24.8913 C.ar    1  UNL1        0.0238
      4 C          -1.6112    3.6608   23.5118 C.ar    1  UNL1        0.1173
      5 N          -1.9450    4.2450   22.1711 N.ar    1  UNL1       -0.2248
      6 C          -1.1121    3.5436   21.1395 C.ar    1  UNL1        0.1515
      7 N          -0.2635    2.5259   21.8426 N.ar    1  UNL1       -0.2754
      8 C          -0.5720    2.5984   23.3088 C.ar    1  UNL1        0.1665
      9 N          -0.0409    1.8342   24.4852 N.ar    1  UNL1       -0.2264
     10 C          -1.1253    3.8125   19.6638 C.ar    1  UNL1        0.0657
     11 C           0.1610    4.0712   18.9370 C.ar    1  UNL1        0.0074
     12 C           0.1477    4.3401   17.4614 C.ar    1  UNL1        0.0209
     13 C          -1.1520    4.3504   16.7126 C.ar    1  UNL1        0.1003
     14 N          -2.4383    4.0918   17.4394 N.ar    1  UNL1       -0.2295
     15 C          -2.4250    3.8229   18.9150 C.ar    1  UNL1        0.1282
     16 N          -3.7115    3.5642   19.6419 N.pl3   1  UNL1       -0.3425
     17 H          -4.5645    3.5710   19.1505 H       1  UNL1        0.1437
     18 H          -3.7027    3.3877   20.6104 H       1  UNL1        0.1437
     19 C           1.9932    0.5060   28.4418 C.ar    1  UNL1        0.0503
     20 C           1.0444   -0.1601   29.3939 C.ar    1  UNL1        0.0147
     21 C          -0.4354   -0.0620   29.1695 C.ar    1  UNL1        0.0013
     22 C          -0.9666    0.7023   27.9930 C.ar    1  UNL1        0.0016
     23 C          -0.0179    1.3683   27.0411 C.ar    1  UNL1        0.0189
     24 C           1.4620    1.2702   27.2654 C.ar    1  UNL1        0.0162
     25 C           5.7163   -0.8656   28.3557 C.3     1  UNL1        0.0949
     26 C           4.2364   -0.7675   28.1313 C.2     1  UNL1        0.2266
     27 O           3.5199   -1.8445   27.3721 O.2     1  UNL1       -0.2748
     28 N           3.4730    0.4079   28.6662 N.am    1  UNL1       -0.2839
     29 H           3.9433    1.1148   29.1645 H       1  UNL1        0.1549
     30 C           0.7207    1.5985   21.1936 C.ar    1  UNL1        0.0667
     31 C           2.1837    1.9294   21.2058 C.ar    1  UNL1        0.0173
     32 C           3.1679    1.0021   20.5568 C.ar    1  UNL1       -0.0014
     33 C           2.6891   -0.2563   19.8954 C.ar    1  UNL1       -0.0065
     34 C           1.2262   -0.5871   19.8831 C.ar    1  UNL1       -0.0014
     35 C           0.2420    0.3402   20.5322 C.ar    1  UNL1        0.0173
     36 C           3.6734   -1.1836   19.2463 C.3     1  UNL1        0.0922
     37 N           3.4925   -2.6683   19.3601 N.3     1  UNL1       -0.3175
     38 H           3.6076   -2.9512   20.3333 H       1  UNL1        0.1192
     39 H           4.1891   -3.1408   18.7840 H       1  UNL1        0.1192
@<TRIPOS>BOND
     1    25    26    1
     2    26    27    2
     3    26    28   am
     4    28    19    1
     5    19    20   ar
     6    20    21   ar
     7    21    22   ar
     8    22    23   ar
     9    23     1    1
    10     1     2   ar
    11     2     3   ar
    12     3     4   ar
    13     4     5   ar
    14     5     6   ar
    15     6    10    1
    16    10    11   ar
    17    11    12   ar
    18    12    13   ar
    19    13    14   ar
    20    14    15   ar
    21    15    16    1
    22     6     7   ar
    23     7    30    1
    24    30    31   ar
    25    31    32   ar
    26    32    33   ar
    27    33    36    1
    28    36    37    1
    29    33    34   ar
    30    34    35   ar
    31     7     8   ar
    32     8     9   ar
    33    23    24   ar
    34    24    19   ar
    35     9     1   ar
    36     8     4   ar
    37    15    10   ar
    38    35    30   ar
    39    28    29    1
    40    16    17    1
    41    16    18    1
    42    37    38    1
    43    37    39    1
@<TRIPOS>MOLECULE
*****
 39 43 0 0 0
SMALL
GASTEIGER

@<TRIPOS>ATOM
      1 C           4.1390   -1.9030   21.7688 C.ar    1  UNL1        0.0830
      2 C           4.9558   -3.0857   21.3400 C.ar    1  UNL1        0.0208
      3 C           5.7859   -3.8279   22.3450 C.ar    1  UNL1        0.0238
      4 C           5.7992   -3.3872   23.7788 C.ar    1  UNL1        0.1173
      5 N           6.5148   -3.9184   24.9854 N.ar    1  UNL1       -0.2248
      6 C           6.1402   -3.0638   26.1599 C.ar    1  UNL1        0.1515
      7 N           5.1932   -2.0046   25.6791 N.ar    1  UNL1       -0.2754
      8 C           4.9824   -2.2045   24.2075 C.ar    1  UNL1        0.1665
      9 N           4.1523   -1.4623   23.2025 N.ar    1  UNL1       -0.2264
     10 C           6.6272   -3.2379   27.5680 C.ar    1  UNL1        0.0657
     11 C           7.3595   -2.1216   28.2517 C.ar    1  UNL1        0.0074
     12 C           7.8465   -2.2957   29.6597 C.ar    1  UNL1        0.0209
     13 C           7.6010   -3.5861   30.3840 C.ar    1  UNL1        0.1003
     14 N           6.8687   -4.7024   29.7003 N.ar    1  UNL1       -0.2295
     15 C           6.3818   -4.5283   28.2923 C.ar    1  UNL1        0.1282
     16 N           5.6494   -5.6446   27.6085 N.pl3   1  UNL1       -0.3425
     17 H           5.4883   -6.4916   28.0839 H       1  UNL1        0.1437
     18 H           5.3298   -5.5304   26.6844 H       1  UNL1        0.1437
     19 C           1.1884    0.2215   20.1779 C.ar    1  UNL1        0.0503
     20 C           1.6485    0.3237   18.7538 C.ar    1  UNL1        0.0147
     21 C           2.9387   -0.3164   18.3347 C.ar    1  UNL1        0.0013
     22 C           3.7689   -1.0586   19.3397 C.ar    1  UNL1        0.0016
     23 C           3.3088   -1.1607   20.7637 C.ar    1  UNL1        0.0189
     24 C           2.0186   -0.5207   21.1828 C.ar    1  UNL1        0.0162
     25 C          -1.4428    2.9747   21.2943 C.3     1  UNL1        0.0949
     26 C          -0.1526    2.3347   20.8753 C.2     1  UNL1        0.2266
     27 O           1.0869    3.1677   20.7345 O.2     1  UNL1       -0.2748
     28 N          -0.1018    0.8616   20.5969 N.am    1  UNL1       -0.2839
     29 H          -0.9153    0.3148   20.6893 H       1  UNL1        0.1549
     30 C           4.5668   -0.9335   26.5220 C.ar    1  UNL1        0.0667
     31 C           5.0292    0.4877   26.3943 C.ar    1  UNL1        0.0173
     32 C           4.4029    1.5588   27.2372 C.ar    1  UNL1       -0.0014
     33 C           3.3141    1.2087   28.2078 C.ar    1  UNL1       -0.0065
     34 C           2.8517   -0.2124   28.3354 C.ar    1  UNL1       -0.0014
     35 C           3.4780   -1.2836   27.4925 C.ar    1  UNL1        0.0173
     36 C           2.6877    2.2799   29.0506 C.3     1  UNL1        0.0922
     37 N           1.3700    2.0308   29.7225 N.3     1  UNL1       -0.3175
     38 H           0.6428    1.9230   29.0154 H       1  UNL1        0.1192
     39 H           1.1420    2.8202   30.3270 H       1  UNL1        0.1192
@<TRIPOS>BOND
     1    25    26    1
     2    26    27    2
     3    26    28   am
     4    28    19    1
     5    19    20   ar
     6    20    21   ar
     7    21    22   ar
     8    22    23   ar
     9    23     1    1
    10     1     2   ar
    11     2     3   ar
    12     3     4   ar
    13     4     5   ar
    14     5     6   ar
    15     6    10    1
    16    10    11   ar
    17    11    12   ar
    18    12    13   ar
    19    13    14   ar
    20    14    15   ar
    21    15    16    1
    22     6     7   ar
    23     7    30    1
    24    30    31   ar
    25    31    32   ar
    26    32    33   ar
    27    33    36    1
    28    36    37    1
    29    33    34   ar
    30    34    35   ar
    31     7     8   ar
    32     8     9   ar
    33    23    24   ar
    34    24    19   ar
    35     9     1   ar
    36     8     4   ar
    37    15    10   ar
    38    35    30   ar
    39    28    29    1
    40    16    17    1
    41    16    18    1
    42    37    38    1
    43    37    39    1
@<TRIPOS>MOLECULE
*****
 39 43 0 0 0
SMALL
GASTEIGER

@<TRIPOS>ATOM
      1 C           2.1468    0.5733   25.4488 C.ar    1  UNL1        0.0830
      2 C           2.3822    0.5413   26.9299 C.ar    1  UNL1        0.0208
      3 C           3.4623   -0.3302   27.4990 C.ar    1  UNL1        0.0238
      4 C           4.3070   -1.1697   26.5870 C.ar    1  UNL1        0.1173
      5 N           5.4366   -2.1191   26.8564 N.ar    1  UNL1       -0.2248
      6 C           5.8994   -2.6738   25.5419 C.ar    1  UNL1        0.1515
      7 N           5.0558   -2.0673   24.4600 N.ar    1  UNL1       -0.2754
      8 C           4.0716   -1.1377   25.1059 C.ar    1  UNL1        0.1665
      9 N           2.9916   -0.2661   24.5369 N.ar    1  UNL1       -0.2264
     10 C           7.0107   -3.6617   25.3439 C.ar    1  UNL1        0.0657
     11 C           8.0861   -3.3885   24.3346 C.ar    1  UNL1        0.0074
     12 C           9.1974   -4.3763   24.1366 C.ar    1  UNL1        0.0209
     13 C           9.2332   -5.6374   24.9480 C.ar    1  UNL1        0.1003
     14 N           8.1578   -5.9107   25.9573 N.ar    1  UNL1       -0.2295
     15 C           7.0466   -4.9228   26.1553 C.ar    1  UNL1        0.1282
     16 N           5.9711   -5.1960   27.1647 N.pl3   1  UNL1       -0.3425
     17 H           5.9946   -6.0237   27.6972 H       1  UNL1        0.1437
     18 H           5.2417   -4.5476   27.2946 H       1  UNL1        0.1437
     19 C           0.0701    2.7806   22.8866 C.ar    1  UNL1        0.0503
     20 C          -1.0934    3.1879   23.7414 C.ar    1  UNL1        0.0147
     21 C          -1.1768    2.7237   25.1653 C.ar    1  UNL1        0.0013
     22 C          -0.0967    1.8521   25.7344 C.ar    1  UNL1        0.0016
     23 C           1.0667    1.4449   24.8797 C.ar    1  UNL1        0.0189
     24 C           1.1501    1.9091   23.4558 C.ar    1  UNL1        0.0162
     25 C           0.0360    2.7321   18.9184 C.3     1  UNL1        0.0949
     26 C          -0.0474    2.2679   20.3423 C.2     1  UNL1        0.2266
     27 O          -0.3315    0.8267   20.6459 O.2     1  UNL1       -0.2748
     28 N           0.1534    3.2449   21.4627 N.am    1  UNL1       -0.2839
     29 H           0.3399    4.1908   21.2635 H       1  UNL1        0.1549
     30 C           5.1753   -2.3421   22.9903 C.ar    1  UNL1        0.0667
     31 C           4.5327   -3.5624   22.4007 C.ar    1  UNL1        0.0173
     32 C           4.6522   -3.8372   20.9309 C.ar    1  UNL1       -0.0014
     33 C           5.4145   -2.8916   20.0507 C.ar    1  UNL1       -0.0065
     34 C           6.0572   -1.6713   20.6403 C.ar    1  UNL1       -0.0014
     35 C           5.9376   -1.3965   22.1100 C.ar    1  UNL1        0.0173
     36 C           5.5340   -3.1664   18.5809 C.3     1  UNL1        0.0922
     37 N           4.5354   -2.5838   17.6254 N.3     1  UNL1       -0.3175
     38 H           3.6177   -2.9927   17.8014 H       1  UNL1        0.1192
     39 H           4.8211   -2.7890   16.6679 H       1  UNL1        0.1192
@<TRIPOS>BOND
     1    25    26    1
     2    26    27    2
     3    26    28   am
     4    28    19    1
     5    19    20   ar
     6    20    21   ar
     7    21    22   ar
     8    22    23   ar
     9    23     1    1
    10     1     2   ar
    11     2     3   ar
    12     3     4   ar
    13     4     5   ar
    14     5     6   ar
    15     6    10    1
    16    10    11   ar
    17    11    12   ar
    18    12    13   ar
    19    13    14   ar
    20    14    15   ar
    21    15    16    1
    22     6     7   ar
    23     7    30    1
    24    30    31   ar
    25    31    32   ar
    26    32    33   ar
    27    33    36    1
    28    36    37    1
    29    33    34   ar
    30    34    35   ar
    31     7     8   ar
    32     8     9   ar
    33    23    24   ar
    34    24    19   ar
    35     9     1   ar
    36     8     4   ar
    37    15    10   ar
    38    35    30   ar
    39    28    29    1
    40    16    17    1
    41    16    18    1
    42    37    38    1
    43    37    39    1
@<TRIPOS>MOLECULE
*****
 39 43 0 0 0
SMALL
GASTEIGER

@<TRIPOS>ATOM
      1 C           1.6825    1.1467   25.3058 C.ar    1  UNL1        0.0830
      2 C           0.5735    1.8813   25.9988 C.ar    1  UNL1        0.0208
      3 C          -0.4342    2.6491   25.1957 C.ar    1  UNL1        0.0238
      4 C          -0.3328    2.6823   23.6995 C.ar    1  UNL1        0.1173
      5 N          -1.1732    3.3492   22.6511 N.ar    1  UNL1       -0.2248
      6 C          -0.5835    3.0267   21.3101 C.ar    1  UNL1        0.1515
      7 N           0.6213    2.1606   21.5297 N.ar    1  UNL1       -0.2754
      8 C           0.7763    1.9478   23.0064 C.ar    1  UNL1        0.1665
      9 N           1.7839    1.1800   23.8096 N.ar    1  UNL1       -0.2264
     10 C          -1.1068    3.4892   19.9826 C.ar    1  UNL1        0.0657
     11 C          -0.1659    4.0590   18.9628 C.ar    1  UNL1        0.0074
     12 C          -0.6892    4.5215   17.6353 C.ar    1  UNL1        0.0209
     13 C          -2.1533    4.4141   17.3276 C.ar    1  UNL1        0.1003
     14 N          -3.0942    3.8443   18.3473 N.ar    1  UNL1       -0.2295
     15 C          -2.5710    3.3818   19.6748 C.ar    1  UNL1        0.1282
     16 N          -3.5119    2.8120   20.6947 N.pl3   1  UNL1       -0.3425
     17 H          -4.4728    2.7415   20.4927 H       1  UNL1        0.1437
     18 H          -3.1684    2.5084   21.5660 H       1  UNL1        0.1437
     19 C           3.9190   -0.0525   28.3570 C.ar    1  UNL1        0.0503
     20 C           4.7057   -1.1567   27.7152 C.ar    1  UNL1        0.0147
     21 C           4.4847   -1.4931   26.2702 C.ar    1  UNL1        0.0013
     22 C           3.4769   -0.7252   25.4671 C.ar    1  UNL1        0.0016
     23 C           2.6903    0.3789   26.1089 C.ar    1  UNL1        0.0189
     24 C           2.9114    0.7153   27.5539 C.ar    1  UNL1        0.0162
     25 C           3.3164    0.2738   32.2661 C.3     1  UNL1        0.0949
     26 C           3.0953   -0.0626   30.8211 C.2     1  UNL1        0.2266
     27 O           1.8295   -0.7454   30.3951 O.2     1  UNL1       -0.2748
     28 N           4.1401    0.2839   29.8020 N.am    1  UNL1       -0.2839
     29 H           4.9709    0.7322   30.0816 H       1  UNL1        0.1549
     30 C           1.5144    1.6049   20.4604 C.ar    1  UNL1        0.0667
     31 C           2.9036    2.1440   20.2883 C.ar    1  UNL1        0.0173
     32 C           3.7967    1.5883   19.2190 C.ar    1  UNL1       -0.0014
     33 C           3.3006    0.4934   18.3216 C.ar    1  UNL1       -0.0065
     34 C           1.9115   -0.0457   18.4937 C.ar    1  UNL1       -0.0014
     35 C           1.0184    0.5100   19.5630 C.ar    1  UNL1        0.0173
     36 C           4.1938   -0.0623   17.2523 C.3     1  UNL1        0.0922
     37 N           3.7091   -1.1789   16.3758 N.3     1  UNL1       -0.3175
     38 H           3.5738   -2.0187   16.9386 H       1  UNL1        0.1192
     39 H           4.3998   -1.3646   15.6486 H       1  UNL1        0.1192
@<TRIPOS>BOND
     1    25    26    1
     2    26    27    2
     3    26    28   am
     4    28    19    1
     5    19    20   ar
     6    20    21   ar
     7    21    22   ar
     8    22    23   ar
     9    23     1    1
    10     1     2   ar
    11     2     3   ar
    12     3     4   ar
    13     4     5   ar
    14     5     6   ar
    15     6    10    1
    16    10    11   ar
    17    11    12   ar
    18    12    13   ar
    19    13    14   ar
    20    14    15   ar
    21    15    16    1
    22     6     7   ar
    23     7    30    1
    24    30    31   ar
    25    31    32   ar
    26    32    33   ar
    27    33    36    1
    28    36    37    1
    29    33    34   ar
    30    34    35   ar
    31     7     8   ar
    32     8     9   ar
    33    23    24   ar
    34    24    19   ar
    35     9     1   ar
    36     8     4   ar
    37    15    10   ar
    38    35    30   ar
    39    28    29    1
    40    16    17    1
    41    16    18    1
    42    37    38    1
    43    37    39    1
@<TRIPOS>MOLECULE
*****
 39 43 0 0 0
SMALL
GASTEIGER

@<TRIPOS>ATOM
      1 C           2.1878    0.5100   21.6309 C.ar    1  UNL1        0.0830
      2 C           0.8677    1.2205   21.5819 C.ar    1  UNL1        0.0208
      3 C           0.2097    1.6689   22.8531 C.ar    1  UNL1        0.0238
      4 C           0.8718    1.4068   24.1733 C.ar    1  UNL1        0.1173
      5 N           0.4660    1.7287   25.5811 N.ar    1  UNL1       -0.2248
      6 C           1.5354    1.2171   26.5001 C.ar    1  UNL1        0.1515
      7 N           2.6020    0.5791   25.6604 N.ar    1  UNL1       -0.2754
      8 C           2.1919    0.6963   24.2223 C.ar    1  UNL1        0.1665
      9 N           2.8499    0.2479   22.9511 N.ar    1  UNL1       -0.2264
     10 C           1.5378    1.3247   27.9963 C.ar    1  UNL1        0.0657
     11 C           2.5541    2.1867   28.6847 C.ar    1  UNL1        0.0074
     12 C           2.5564    2.2942   30.1808 C.ar    1  UNL1        0.0209
     13 C           1.5424    1.5397   30.9885 C.ar    1  UNL1        0.1003
     14 N           0.5261    0.6776   30.3002 N.ar    1  UNL1       -0.2295
     15 C           0.5238    0.5701   28.8041 C.ar    1  UNL1        0.1282
     16 N          -0.4926   -0.2920   28.1156 N.pl3   1  UNL1       -0.3425
     17 H          -1.1581   -0.7872   28.6458 H       1  UNL1        0.1437
     18 H          -0.4941   -0.3625   27.1337 H       1  UNL1        0.1437
     19 C           3.5944   -1.8491   18.7662 C.ar    1  UNL1        0.0503
     20 C           4.1620   -0.8353   17.8174 C.ar    1  UNL1        0.0147
     21 C           4.0716    0.6268   18.1397 C.ar    1  UNL1        0.0013
     22 C           3.4135    1.0753   19.4110 C.ar    1  UNL1        0.0016
     23 C           2.8459    0.0616   20.3597 C.ar    1  UNL1        0.0189
     24 C           2.9363   -1.4006   20.0374 C.ar    1  UNL1        0.0162
     25 C           4.8643   -5.6088   18.7267 C.3     1  UNL1        0.0949
     26 C           4.7738   -4.1467   19.0491 C.2     1  UNL1        0.2266
     27 O           5.7723   -3.5200   19.9765 O.2     1  UNL1       -0.2748
     28 N           3.6848   -3.3112   18.4439 N.am    1  UNL1       -0.2839
     29 H           3.0295   -3.7225   17.8351 H       1  UNL1        0.1549
     30 C           3.8583   -0.0634   26.1693 C.ar    1  UNL1        0.0667
     31 C           3.7835   -1.3407   26.9521 C.ar    1  UNL1        0.0173
     32 C           5.0397   -1.9832   27.4610 C.ar    1  UNL1       -0.0014
     33 C           6.3709   -1.3484   27.1871 C.ar    1  UNL1       -0.0065
     34 C           6.4457   -0.0711   26.4043 C.ar    1  UNL1       -0.0014
     35 C           5.1895    0.5714   25.8954 C.ar    1  UNL1        0.0173
     36 C           7.6271   -1.9909   27.6961 C.3     1  UNL1        0.0922
     37 N           7.7139   -3.4843   27.8070 N.3     1  UNL1       -0.3175
     38 H           7.0561   -3.8114   28.5146 H       1  UNL1        0.1192
     39 H           8.6614   -3.7508   28.0745 H       1  UNL1        0.1192
@<TRIPOS>BOND
     1    25    26    1
     2    26    27    2
     3    26    28   am
     4    28    19    1
     5    19    20   ar
     6    20    21   ar
     7    21    22   ar
     8    22    23   ar
     9    23     1    1
    10     1     2   ar
    11     2     3   ar
    12     3     4   ar
    13     4     5   ar
    14     5     6   ar
    15     6    10    1
    16    10    11   ar
    17    11    12   ar
    18    12    13   ar
    19    13    14   ar
    20    14    15   ar
    21    15    16    1
    22     6     7   ar
    23     7    30    1
    24    30    31   ar
    25    31    32   ar
    26    32    33   ar
    27    33    36    1
    28    36    37    1
    29    33    34   ar
    30    34    35   ar
    31     7     8   ar
    32     8     9   ar
    33    23    24   ar
    34    24    19   ar
    35     9     1   ar
    36     8     4   ar
    37    15    10   ar
    38    35    30   ar
    39    28    29    1
    40    16    17    1
    41    16    18    1
    42    37    38    1
    43    37    39    1
