@<TRIPOS>MOLECULE
*****
 35 39 0 0 0
SMALL
GASTEIGER

@<TRIPOS>ATOM
      1 C           8.2449   -6.1512   28.6019 C.2     1  UNL1        0.0036
      2 C           8.1312   -6.1014   27.1070 C.2     1  UNL1        0.0036
      3 C           7.6882   -5.6690   25.7407 C.3     1  UNL1        0.1686
      4 O           6.9693   -4.9062   24.6677 O.3     1  UNL1       -0.3442
      5 C           6.0611   -3.9050   24.0175 C.3     1  UNL1        0.1721
      6 C           5.0733   -2.7861   23.8685 C.ar    1  UNL1        0.0425
      7 C           4.1249   -1.6845   24.2386 C.ar    1  UNL1        0.0158
      8 C           3.3304   -0.7330   25.0833 C.ar    1  UNL1        0.0504
      9 C           3.0976   -0.5483   23.5705 C.ar    1  UNL1        0.0178
     10 C           3.6424   -1.2349   22.3532 C.ar    1  UNL1        0.0379
     11 C           4.6303   -2.3537   22.5023 C.ar    1  UNL1        0.1370
     12 N           2.7855   -0.0464   26.3007 N.pl3   1  UNL1       -0.2825
     13 C           2.6233    0.2342   28.0888 C.ar    1  UNL1        0.2207
     14 N           1.6749    1.3359   28.4590 N.ar    1  UNL1       -0.2120
     15 C           1.4455    1.6747   29.9021 C.ar    1  UNL1        0.1034
     16 C           2.1645    0.9119   30.9750 C.ar    1  UNL1        0.0400
     17 C           3.1128   -0.1897   30.6049 C.ar    1  UNL1        0.0888
     18 N           3.3422   -0.5286   29.1618 N.ar    1  UNL1       -0.2134
     19 C           3.8318   -0.9525   31.6779 C.ar    1  UNL1        0.0582
     20 C           3.9110   -0.9629   33.1757 C.ar    1  UNL1        0.1806
     21 O           4.8737   -2.0394   33.5815 O.2     1  UNL1       -0.4521
     22 C           5.7278   -3.0727   32.4771 C.ar    1  UNL1        0.1529
     23 C           4.7399   -1.9538   32.3280 C.ar    1  UNL1        0.0402
     24 C           6.6761   -4.1743   32.1069 C.3     1  UNL1        0.2064
     25 O           7.4707   -5.1258   31.2622 O.3     1  UNL1       -0.3409
     26 C           8.0155   -5.8124   30.0449 C.3     1  UNL1        0.1687
     27 H           2.1775    0.6267   25.9179 H       1  UNL1        0.1551
     28 O           5.1751   -3.0403   21.2849 O.3     1  UNL1       -0.4742
     29 C           4.3027   -3.9702   20.4947 C.3     1  UNL1        0.2226
     30 C           3.5360   -3.4559   19.3125 C.3     1  UNL1        0.1200
     31 N           3.9120   -2.1452   18.6873 N.3     1  UNL1       -0.2696
     32 C           5.1332   -1.8825   17.8569 C.3     1  UNL1        0.0722
     33 C           5.1086   -0.4421   17.4393 C.3     1  UNL1        0.0188
     34 C           3.8722    0.1855   18.0115 C.3     1  UNL1        0.0188
     35 C           3.1326   -0.8671   18.7829 C.3     1  UNL1        0.0722
@<TRIPOS>BOND
     1     1     2    2
     2     2     3    1
     3     3     4    1
     4     4     5    1
     5     5     6    1
     6     6     7   ar
     7     7     8   ar
     8     8     9   ar
     9     9    10   ar
    10    10    11   ar
    11    11    28    1
    12    28    29    1
    13    29    30    1
    14    30    31    1
    15    31    32    1
    16    32    33    1
    17    33    34    1
    18    34    35    1
    19     8    12    1
    20    12    13    1
    21    13    14   ar
    22    14    15   ar
    23    15    16   ar
    24    16    17   ar
    25    17    18   ar
    26    17    19    1
    27    19    20   ar
    28    20    21   ar
    29    21    22   ar
    30    22    23   ar
    31    22    24    1
    32    24    25    1
    33    25    26    1
    34    26     1    1
    35    11     6   ar
    36    35    31    1
    37    18    13   ar
    38    23    19   ar
    39    12    27    1
@<TRIPOS>MOLECULE
*****
 35 39 0 0 0
SMALL
GASTEIGER

@<TRIPOS>ATOM
      1 C           7.4174   -4.9068   29.0952 C.2     1  UNL1        0.0036
      2 C           7.4978   -5.1547   27.6180 C.2     1  UNL1        0.0036
      3 C           7.2280   -5.0169   26.1490 C.3     1  UNL1        0.1686
      4 O           6.6406   -4.5101   24.8652 O.3     1  UNL1       -0.3442
      5 C           5.8065   -3.6955   23.9215 C.3     1  UNL1        0.1721
      6 C           4.8262   -2.6712   23.4318 C.ar    1  UNL1        0.0425
      7 C           3.8180   -1.5608   23.4551 C.ar    1  UNL1        0.0158
      8 C           2.9035   -0.4982   23.9886 C.ar    1  UNL1        0.0504
      9 C           2.8656   -0.6225   22.4524 C.ar    1  UNL1        0.0178
     10 C           3.5761   -1.5091   21.4730 C.ar    1  UNL1        0.0379
     11 C           4.5564   -2.5334   21.9627 C.ar    1  UNL1        0.1370
     12 N           2.1929    0.3884   24.9680 N.pl3   1  UNL1       -0.2825
     13 C           1.7950    1.0053   26.6305 C.ar    1  UNL1        0.2207
     14 N           0.7868    2.1157   26.6538 N.ar    1  UNL1       -0.2120
     15 C           0.3660    2.7193   27.9609 C.ar    1  UNL1        0.1034
     16 C           0.9534    2.2125   29.2447 C.ar    1  UNL1        0.0400
     17 C           1.9616    1.1021   29.2214 C.ar    1  UNL1        0.0888
     18 N           2.3824    0.4985   27.9143 N.ar    1  UNL1       -0.2134
     19 C           2.5490    0.5953   30.5052 C.ar    1  UNL1        0.0582
     20 C           2.4334    0.8809   31.9732 C.ar    1  UNL1        0.1806
     21 O           3.3547   -0.0528   32.7010 O.2     1  UNL1       -0.4521
     22 C           4.3634   -1.2436   31.9386 C.ar    1  UNL1        0.1529
     23 C           3.3831   -0.2193   31.4489 C.ar    1  UNL1        0.0402
     24 C           5.3716   -2.3540   31.9153 C.3     1  UNL1        0.2064
     25 O           6.2862   -3.4166   31.3817 O.3     1  UNL1       -0.3409
     26 C           6.9967   -4.3032   30.4023 C.3     1  UNL1        0.1687
     27 H           1.6276    0.9468   24.3868 H       1  UNL1        0.1551
     28 O           5.2669   -3.4200   20.9833 O.3     1  UNL1       -0.4742
     29 C           4.4903   -4.1311   19.9149 C.3     1  UNL1        0.2226
     30 C           4.7774   -3.8541   18.4690 C.3     1  UNL1        0.1200
     31 N           5.1706   -2.4735   18.0336 N.3     1  UNL1       -0.2696
     32 C           4.2350   -1.3913   17.5827 C.3     1  UNL1        0.0722
     33 C           5.0546   -0.1818   17.2431 C.3     1  UNL1        0.0188
     34 C           6.4969   -0.5165   17.4841 C.3     1  UNL1        0.0188
     35 C           6.5685   -1.9330   17.9726 C.3     1  UNL1        0.0722
@<TRIPOS>BOND
     1     1     2    2
     2     2     3    1
     3     3     4    1
     4     4     5    1
     5     5     6    1
     6     6     7   ar
     7     7     8   ar
     8     8     9   ar
     9     9    10   ar
    10    10    11   ar
    11    11    28    1
    12    28    29    1
    13    29    30    1
    14    30    31    1
    15    31    32    1
    16    32    33    1
    17    33    34    1
    18    34    35    1
    19     8    12    1
    20    12    13    1
    21    13    14   ar
    22    14    15   ar
    23    15    16   ar
    24    16    17   ar
    25    17    18   ar
    26    17    19    1
    27    19    20   ar
    28    20    21   ar
    29    21    22   ar
    30    22    23   ar
    31    22    24    1
    32    24    25    1
    33    25    26    1
    34    26     1    1
    35    11     6   ar
    36    35    31    1
    37    18    13   ar
    38    23    19   ar
    39    12    27    1
@<TRIPOS>MOLECULE
*****
 35 39 0 0 0
SMALL
GASTEIGER

@<TRIPOS>ATOM
      1 C           2.1199    1.0681   29.9764 C.2     1  UNL1        0.0036
      2 C           1.6730    1.4087   28.5856 C.2     1  UNL1        0.0036
      3 C           1.5594    1.3628   27.0906 C.3     1  UNL1        0.1686
      4 O           1.7928    0.9359   25.6718 O.3     1  UNL1       -0.3442
      5 C           2.3452    0.1795   24.5001 C.3     1  UNL1        0.1721
      6 C           3.1498   -0.8151   23.7170 C.ar    1  UNL1        0.0425
      7 C           4.1097   -1.9280   23.4169 C.ar    1  UNL1        0.0158
      8 C           5.1090   -3.0250   23.6359 C.ar    1  UNL1        0.0504
      9 C           4.7591   -2.8044   22.1508 C.ar    1  UNL1        0.0178
     10 C           3.8408   -1.8557   21.4389 C.ar    1  UNL1        0.0379
     11 C           3.0362   -0.8611   22.2220 C.ar    1  UNL1        0.1370
     12 N           6.0273   -3.9738   24.3479 N.pl3   1  UNL1       -0.2825
     13 C           6.8213   -4.6954   25.8147 C.ar    1  UNL1        0.2207
     14 N           7.7811   -5.8083   25.5146 N.ar    1  UNL1       -0.2120
     15 C           8.5075   -6.4943   26.6334 C.ar    1  UNL1        0.1034
     16 C           8.2740   -6.0674   28.0523 C.ar    1  UNL1        0.0400
     17 C           7.3142   -4.9545   28.3524 C.ar    1  UNL1        0.0888
     18 N           6.5878   -4.2685   27.2336 N.ar    1  UNL1       -0.2134
     19 C           7.0807   -4.5276   29.7713 C.ar    1  UNL1        0.0582
     20 C           7.5587   -4.9053   31.1420 C.ar    1  UNL1        0.1806
     21 O           6.8697   -4.0163   32.1345 O.2     1  UNL1       -0.4521
     22 C           5.7238   -2.7766   31.7261 C.ar    1  UNL1        0.1529
     23 C           6.5284   -3.7712   30.9429 C.ar    1  UNL1        0.0402
     24 C           4.7639   -1.6637   32.0262 C.3     1  UNL1        0.2064
     25 O           3.7645   -0.5666   31.8071 O.3     1  UNL1       -0.3409
     26 C           2.8463    0.3821   31.0952 C.3     1  UNL1        0.1687
     27 H           6.4163   -4.4964   23.6097 H       1  UNL1        0.1551
     28 O           2.1179    0.0877   21.5101 O.3     1  UNL1       -0.4742
     29 C           1.2895   -0.3942   20.3562 C.3     1  UNL1        0.2226
     30 C           1.4800    0.2050   18.9943 C.3     1  UNL1        0.1200
     31 N           2.8568    0.3143   18.4091 N.3     1  UNL1       -0.2696
     32 C           3.4650   -0.6201   17.4056 C.3     1  UNL1        0.0722
     33 C           4.8512   -0.1347   17.1009 C.3     1  UNL1        0.0188
     34 C           5.0997    1.0998   17.9161 C.3     1  UNL1        0.0188
     35 C           3.8671    1.3772   18.7246 C.3     1  UNL1        0.0722
@<TRIPOS>BOND
     1     1     2    2
     2     2     3    1
     3     3     4    1
     4     4     5    1
     5     5     6    1
     6     6     7   ar
     7     7     8   ar
     8     8     9   ar
     9     9    10   ar
    10    10    11   ar
    11    11    28    1
    12    28    29    1
    13    29    30    1
    14    30    31    1
    15    31    32    1
    16    32    33    1
    17    33    34    1
    18    34    35    1
    19     8    12    1
    20    12    13    1
    21    13    14   ar
    22    14    15   ar
    23    15    16   ar
    24    16    17   ar
    25    17    18   ar
    26    17    19    1
    27    19    20   ar
    28    20    21   ar
    29    21    22   ar
    30    22    23   ar
    31    22    24    1
    32    24    25    1
    33    25    26    1
    34    26     1    1
    35    11     6   ar
    36    35    31    1
    37    18    13   ar
    38    23    19   ar
    39    12    27    1
@<TRIPOS>MOLECULE
*****
 35 39 0 0 0
SMALL
GASTEIGER

@<TRIPOS>ATOM
      1 C           1.9403    1.1272   27.6417 C.2     1  UNL1        0.0036
      2 C           2.9183    0.3599   28.4814 C.2     1  UNL1        0.0036
      3 C           3.9971   -0.6135   28.8533 C.3     1  UNL1        0.1686
      4 O           5.0469   -1.6756   28.7128 O.3     1  UNL1       -0.3442
      5 C           5.9410   -2.6984   28.0768 C.3     1  UNL1        0.1721
      6 C           6.5715   -3.5585   27.0219 C.ar    1  UNL1        0.0425
      7 C           6.8624   -4.1520   25.6754 C.ar    1  UNL1        0.0158
      8 C           6.7785   -4.4075   24.1997 C.ar    1  UNL1        0.0504
      9 C           7.8324   -5.2785   24.9121 C.ar    1  UNL1        0.0178
     10 C           8.2809   -5.3919   26.3391 C.ar    1  UNL1        0.0379
     11 C           7.6504   -4.5319   27.3939 C.ar    1  UNL1        0.1370
     12 N           6.3301   -4.2942   22.7728 N.pl3   1  UNL1       -0.2825
     13 C           5.3231   -3.6156   21.4206 C.ar    1  UNL1        0.2207
     14 N           5.6139   -4.2092   20.0742 N.ar    1  UNL1       -0.2120
     15 C           4.8550   -3.7406   18.8682 C.ar    1  UNL1        0.1034
     16 C           3.8052   -2.6784   19.0087 C.ar    1  UNL1        0.0400
     17 C           3.5143   -2.0849   20.3552 C.ar    1  UNL1        0.0888
     18 N           4.2733   -2.5535   21.5611 N.ar    1  UNL1       -0.2134
     19 C           2.4645   -1.0227   20.4957 C.ar    1  UNL1        0.0582
     20 C           1.5036   -0.2817   19.6140 C.ar    1  UNL1        0.1806
     21 O           0.7295    0.6743   20.4725 O.2     1  UNL1       -0.4521
     22 C           0.9400    0.8601   22.1866 C.ar    1  UNL1        0.1529
     23 C           1.5705    0.0001   21.1317 C.ar    1  UNL1        0.0402
     24 C           0.6491    1.4537   23.5331 C.3     1  UNL1        0.2064
     25 O           0.7330    1.7092   25.0089 O.3     1  UNL1       -0.3409
     26 C           1.1814    1.5958   26.4357 C.3     1  UNL1        0.1687
     27 H           6.8964   -4.9551   22.3127 H       1  UNL1        0.1551
     28 O           8.0988   -4.6453   28.8209 O.3     1  UNL1       -0.4742
     29 C           7.5995   -5.7715   29.6767 C.3     1  UNL1        0.2226
     30 C           7.0127   -5.4841   31.0269 C.3     1  UNL1        0.1200
     31 N           7.1799   -4.1270   31.6438 N.3     1  UNL1       -0.2696
     32 C           8.4821   -3.4812   32.0140 C.3     1  UNL1        0.0722
     33 C           8.1812   -2.1326   32.5978 C.3     1  UNL1        0.0188
     34 C           6.6929   -1.9450   32.5884 C.3     1  UNL1        0.0188
     35 C           6.0741   -3.1777   31.9988 C.3     1  UNL1        0.0722
@<TRIPOS>BOND
     1     1     2    2
     2     2     3    1
     3     3     4    1
     4     4     5    1
     5     5     6    1
     6     6     7   ar
     7     7     8   ar
     8     8     9   ar
     9     9    10   ar
    10    10    11   ar
    11    11    28    1
    12    28    29    1
    13    29    30    1
    14    30    31    1
    15    31    32    1
    16    32    33    1
    17    33    34    1
    18    34    35    1
    19     8    12    1
    20    12    13    1
    21    13    14   ar
    22    14    15   ar
    23    15    16   ar
    24    16    17   ar
    25    17    18   ar
    26    17    19    1
    27    19    20   ar
    28    20    21   ar
    29    21    22   ar
    30    22    23   ar
    31    22    24    1
    32    24    25    1
    33    25    26    1
    34    26     1    1
    35    11     6   ar
    36    35    31    1
    37    18    13   ar
    38    23    19   ar
    39    12    27    1
@<TRIPOS>MOLECULE
*****
 35 39 0 0 0
SMALL
GASTEIGER

@<TRIPOS>ATOM
      1 C           1.3073    1.1549   25.5660 C.2     1  UNL1        0.0036
      2 C           1.8555    0.4819   24.3425 C.2     1  UNL1        0.0036
      3 C           2.6906   -0.4235   23.4866 C.3     1  UNL1        0.1686
      4 O           3.7119   -1.4523   23.1012 O.3     1  UNL1       -0.3442
      5 C           4.7961   -2.4803   23.2330 C.3     1  UNL1        0.1721
      6 C           5.8127   -3.3837   23.8660 C.ar    1  UNL1        0.0425
      7 C           6.6388   -4.0533   24.9238 C.ar    1  UNL1        0.0158
      8 C           7.1750   -4.4085   26.2789 C.ar    1  UNL1        0.0504
      9 C           7.8458   -5.1903   25.1320 C.ar    1  UNL1        0.0178
     10 C           7.6643   -5.1925   23.6429 C.ar    1  UNL1        0.0379
     11 C           6.6478   -4.2891   23.0100 C.ar    1  UNL1        0.1370
     12 N           7.3564   -4.4063   27.7680 N.pl3   1  UNL1       -0.2825
     13 C           6.9944   -3.8568   29.4620 C.ar    1  UNL1        0.2207
     14 N           7.8205   -4.5264   30.5199 N.ar    1  UNL1       -0.2120
     15 C           7.6254   -4.1672   31.9631 C.ar    1  UNL1        0.1034
     16 C           6.6041   -3.1384   32.3484 C.ar    1  UNL1        0.0400
     17 C           5.7779   -2.4688   31.2906 C.ar    1  UNL1        0.0888
     18 N           5.9731   -2.8280   29.8474 N.ar    1  UNL1       -0.2134
     19 C           4.7566   -1.4400   31.6759 C.ar    1  UNL1        0.0582
     20 C           4.2414   -0.7954   32.9285 C.ar    1  UNL1        0.1806
     21 O           3.1748    0.1853   32.5403 O.2     1  UNL1       -0.4521
     22 C           2.6558    0.4914   30.9112 C.ar    1  UNL1        0.1529
     23 C           3.6723   -0.4119   31.5442 C.ar    1  UNL1        0.0402
     24 C           1.8296    1.1610   29.8534 C.3     1  UNL1        0.2064
     25 O           1.2935    1.5162   28.4981 O.3     1  UNL1       -0.3409
     26 C           1.1121    1.5140   27.0091 C.3     1  UNL1        0.1687
     27 H           8.0670   -5.0744   27.9023 H       1  UNL1        0.1551
     28 O           6.4664   -4.2913   21.5209 O.3     1  UNL1       -0.4742
     29 C           7.2330   -3.3221   20.6706 C.3     1  UNL1        0.2226
     30 C           6.5819   -2.6978   19.4722 C.3     1  UNL1        0.1200
     31 N           5.1981   -2.1291   19.5817 N.3     1  UNL1       -0.2696
     32 C           4.8478   -0.6736   19.6740 C.3     1  UNL1        0.0722
     33 C           3.3550   -0.5611   19.7674 C.3     1  UNL1        0.0188
     34 C           2.7826   -1.9472   19.7330 C.3     1  UNL1        0.0188
     35 C           3.9218   -2.9163   19.6182 C.3     1  UNL1        0.0722
@<TRIPOS>BOND
     1     1     2    2
     2     2     3    1
     3     3     4    1
     4     4     5    1
     5     5     6    1
     6     6     7   ar
     7     7     8   ar
     8     8     9   ar
     9     9    10   ar
    10    10    11   ar
    11    11    28    1
    12    28    29    1
    13    29    30    1
    14    30    31    1
    15    31    32    1
    16    32    33    1
    17    33    34    1
    18    34    35    1
    19     8    12    1
    20    12    13    1
    21    13    14   ar
    22    14    15   ar
    23    15    16   ar
    24    16    17   ar
    25    17    18   ar
    26    17    19    1
    27    19    20   ar
    28    20    21   ar
    29    21    22   ar
    30    22    23   ar
    31    22    24    1
    32    24    25    1
    33    25    26    1
    34    26     1    1
    35    11     6   ar
    36    35    31    1
    37    18    13   ar
    38    23    19   ar
    39    12    27    1
@<TRIPOS>MOLECULE
*****
 35 39 0 0 0
SMALL
GASTEIGER

@<TRIPOS>ATOM
      1 C           4.3243   -1.2988   31.8304 C.2     1  UNL1        0.0036
      2 C           3.5695   -0.3913   30.9048 C.2     1  UNL1        0.0036
      3 C           3.0437    0.2026   29.6318 C.3     1  UNL1        0.1686
      4 O           2.8101    0.4114   28.1648 O.3     1  UNL1       -0.3442
      5 C           2.8970    0.2098   26.6810 C.3     1  UNL1        0.1721
      6 C           3.2940   -0.3778   25.3592 C.ar    1  UNL1        0.0425
      7 C           3.9531   -1.2805   24.3588 C.ar    1  UNL1        0.0158
      8 C           4.7948   -2.3895   23.8006 C.ar    1  UNL1        0.0504
      9 C           4.0879   -1.5530   22.7156 C.ar    1  UNL1        0.0178
     10 C           3.1650   -0.3714   22.7643 C.ar    1  UNL1        0.0379
     11 C           2.7681    0.2161   24.0861 C.ar    1  UNL1        0.1370
     12 N           5.7176   -3.5711   23.7519 N.pl3   1  UNL1       -0.2825
     13 C           6.7647   -4.8637   24.4836 C.ar    1  UNL1        0.2207
     14 N           7.4238   -5.7664   23.4833 N.ar    1  UNL1       -0.2120
     15 C           8.3164   -6.8779   23.9499 C.ar    1  UNL1        0.1034
     16 C           8.5500   -7.0867   25.4168 C.ar    1  UNL1        0.0400
     17 C           7.8909   -6.1840   26.4172 C.ar    1  UNL1        0.0888
     18 N           6.9983   -5.0725   25.9506 N.ar    1  UNL1       -0.2134
     19 C           8.1245   -6.3928   27.8841 C.ar    1  UNL1        0.0582
     20 C           8.8975   -7.3261   28.7680 C.ar    1  UNL1        0.1806
     21 O           8.6519   -6.9254   30.1925 O.2     1  UNL1       -0.4521
     22 C           7.6406   -5.6036   30.6897 C.ar    1  UNL1        0.1529
     23 C           8.0376   -6.1912   29.3679 C.ar    1  UNL1        0.0402
     24 C           6.9816   -4.7009   31.6901 C.3     1  UNL1        0.2064
     25 O           6.1398   -3.5918   32.2483 O.3     1  UNL1       -0.3409
     26 C           5.2170   -2.4103   32.2970 C.3     1  UNL1        0.1687
     27 H           5.8043   -3.7407   22.7860 H       1  UNL1        0.1551
     28 O           1.8452    1.3977   24.1349 O.3     1  UNL1       -0.4742
     29 C           0.4947    1.3218   23.4865 C.3     1  UNL1        0.2226
     30 C           0.2138    2.1139   22.2440 C.3     1  UNL1        0.1200
     31 N           0.7381    1.6429   20.9198 N.3     1  UNL1       -0.2696
     32 C           0.4939    0.2976   20.3029 C.3     1  UNL1        0.0722
     33 C           1.2035    0.2578   18.9820 C.3     1  UNL1        0.0188
     34 C           1.8862    1.5785   18.7825 C.3     1  UNL1        0.0188
     35 C           1.5986    2.4345   19.9802 C.3     1  UNL1        0.0722
@<TRIPOS>BOND
     1     1     2    2
     2     2     3    1
     3     3     4    1
     4     4     5    1
     5     5     6    1
     6     6     7   ar
     7     7     8   ar
     8     8     9   ar
     9     9    10   ar
    10    10    11   ar
    11    11    28    1
    12    28    29    1
    13    29    30    1
    14    30    31    1
    15    31    32    1
    16    32    33    1
    17    33    34    1
    18    34    35    1
    19     8    12    1
    20    12    13    1
    21    13    14   ar
    22    14    15   ar
    23    15    16   ar
    24    16    17   ar
    25    17    18   ar
    26    17    19    1
    27    19    20   ar
    28    20    21   ar
    29    21    22   ar
    30    22    23   ar
    31    22    24    1
    32    24    25    1
    33    25    26    1
    34    26     1    1
    35    11     6   ar
    36    35    31    1
    37    18    13   ar
    38    23    19   ar
    39    12    27    1
@<TRIPOS>MOLECULE
*****
 35 39 0 0 0
SMALL
GASTEIGER

@<TRIPOS>ATOM
      1 C          -2.2628    3.6829   24.1553 C.2     1  UNL1        0.0036
      2 C          -2.0500    3.6039   25.6381 C.2     1  UNL1        0.0036
      3 C          -1.4682    3.1949   26.9587 C.3     1  UNL1        0.1686
      4 O          -0.5876    2.5050   27.9581 O.3     1  UNL1       -0.3442
      5 C           0.4855    1.6177   28.5156 C.3     1  UNL1        0.1721
      6 C           1.6219    0.6397   28.5639 C.ar    1  UNL1        0.0425
      7 C           2.6843   -0.3108   28.0974 C.ar    1  UNL1        0.0158
      8 C           3.5448   -1.1193   27.1722 C.ar    1  UNL1        0.0504
      9 C           3.8946   -1.3162   28.6606 C.ar    1  UNL1        0.0178
     10 C           3.3400   -0.7473   29.9330 C.ar    1  UNL1        0.0379
     11 C           2.2037    0.2307   29.8846 C.ar    1  UNL1        0.1370
     12 N           4.0994   -1.6882   25.8998 N.pl3   1  UNL1       -0.2825
     13 C           4.1854   -1.8900   24.0957 C.ar    1  UNL1        0.2207
     14 N           5.2478   -2.8406   23.6292 N.ar    1  UNL1       -0.2120
     15 C           5.4297   -3.1012   22.1633 C.ar    1  UNL1        0.1034
     16 C           4.5491   -2.4114   21.1639 C.ar    1  UNL1        0.0400
     17 C           3.4867   -1.4609   21.6304 C.ar    1  UNL1        0.0888
     18 N           3.3048   -1.2002   23.0964 N.ar    1  UNL1       -0.2134
     19 C           2.6061   -0.7711   20.6311 C.ar    1  UNL1        0.0582
     20 C           2.4324   -0.7264   19.1419 C.ar    1  UNL1        0.1806
     21 O           1.3105    0.2207   18.8342 O.2     1  UNL1       -0.4521
     22 C           0.3965    1.0943   20.0252 C.ar    1  UNL1        0.1529
     23 C           1.5329    0.1163   20.0736 C.ar    1  UNL1        0.0402
     24 C          -0.6659    2.0448   20.4918 C.3     1  UNL1        0.2064
     25 O          -1.5263    2.8533   21.4171 O.3     1  UNL1       -0.3409
     26 C          -2.0809    3.4222   22.6894 C.3     1  UNL1        0.1687
     27 H           4.8149   -2.2835   26.2204 H       1  UNL1        0.1551
     28 O           1.6491    0.7996   31.1570 O.3     1  UNL1       -0.4742
     29 C           2.3926    1.8827   31.8810 C.3     1  UNL1        0.2226
     30 C           2.5139    1.8391   33.3754 C.3     1  UNL1        0.1200
     31 N           3.4653    0.8769   34.0228 N.3     1  UNL1       -0.2696
     32 C           3.9534   -0.4125   33.4319 C.3     1  UNL1        0.0722
     33 C           4.8854   -1.0510   34.4187 C.3     1  UNL1        0.0188
     34 C           4.9733   -0.1562   35.6194 C.3     1  UNL1        0.0188
     35 C           4.0956    1.0354   35.3747 C.3     1  UNL1        0.0722
@<TRIPOS>BOND
     1     1     2    2
     2     2     3    1
     3     3     4    1
     4     4     5    1
     5     5     6    1
     6     6     7   ar
     7     7     8   ar
     8     8     9   ar
     9     9    10   ar
    10    10    11   ar
    11    11    28    1
    12    28    29    1
    13    29    30    1
    14    30    31    1
    15    31    32    1
    16    32    33    1
    17    33    34    1
    18    34    35    1
    19     8    12    1
    20    12    13    1
    21    13    14   ar
    22    14    15   ar
    23    15    16   ar
    24    16    17   ar
    25    17    18   ar
    26    17    19    1
    27    19    20   ar
    28    20    21   ar
    29    21    22   ar
    30    22    23   ar
    31    22    24    1
    32    24    25    1
    33    25    26    1
    34    26     1    1
    35    11     6   ar
    36    35    31    1
    37    18    13   ar
    38    23    19   ar
    39    12    27    1
@<TRIPOS>MOLECULE
*****
 35 39 0 0 0
SMALL
GASTEIGER

@<TRIPOS>ATOM
      1 C          -2.0621    3.5890   23.6723 C.2     1  UNL1        0.0036
      2 C          -1.9538    3.6298   25.1678 C.2     1  UNL1        0.0036
      3 C          -1.4702    3.3261   26.5548 C.3     1  UNL1        0.1686
      4 O          -0.6696    2.7144   27.6660 O.3     1  UNL1       -0.3442
      5 C           0.3515    1.8687   28.3674 C.3     1  UNL1        0.1721
      6 C           1.4700    0.8908   28.5744 C.ar    1  UNL1        0.0425
      7 C           2.5509   -0.1012   28.2620 C.ar    1  UNL1        0.0158
      8 C           3.4638   -0.9877   27.4679 C.ar    1  UNL1        0.0504
      9 C           3.7070   -1.0649   28.9883 C.ar    1  UNL1        0.0178
     10 C           3.0721   -0.3908   30.1684 C.ar    1  UNL1        0.0379
     11 C           1.9536    0.5871   29.9614 C.ar    1  UNL1        0.1370
     12 N           4.0987   -1.6619   26.2878 N.pl3   1  UNL1       -0.2825
     13 C           4.3075   -2.0105   24.5164 C.ar    1  UNL1        0.2207
     14 N           5.3884   -3.0025   24.2040 N.ar    1  UNL1       -0.2120
     15 C           5.6685   -3.3829   22.7804 C.ar    1  UNL1        0.1034
     16 C           4.8679   -2.7713   21.6692 C.ar    1  UNL1        0.0400
     17 C           3.7870   -1.7793   21.9816 C.ar    1  UNL1        0.0888
     18 N           3.5068   -1.3989   23.4052 N.ar    1  UNL1       -0.2134
     19 C           2.9864   -1.1676   20.8704 C.ar    1  UNL1        0.0582
     20 C           2.9172   -1.2433   19.3739 C.ar    1  UNL1        0.1806
     21 O           1.8308   -0.3174   18.9126 O.2     1  UNL1       -0.4521
     22 C           0.8468    0.6560   19.9620 C.ar    1  UNL1        0.1529
     23 C           1.9653   -0.3219   20.1690 C.ar    1  UNL1        0.0402
     24 C          -0.2341    1.6480   20.2744 C.3     1  UNL1        0.2064
     25 O          -1.1471    2.5346   21.0686 O.3     1  UNL1       -0.3409
     26 C          -1.7819    3.2087   22.2486 C.3     1  UNL1        0.1687
     27 H           4.7831   -2.2336   26.7050 H       1  UNL1        0.1551
     28 O           1.3188    1.2612   31.1415 O.3     1  UNL1       -0.4742
     29 C           2.0424    2.3657   31.8532 C.3     1  UNL1        0.2226
     30 C           1.6419    2.7484   33.2472 C.3     1  UNL1        0.1200
     31 N           0.8792    4.0177   33.4865 N.3     1  UNL1       -0.2696
     32 C           1.1421    5.0116   34.5787 C.3     1  UNL1        0.0722
     33 C           0.1451    6.1241   34.4428 C.3     1  UNL1        0.0188
     34 C          -0.7340    5.8176   33.2667 C.3     1  UNL1        0.0188
     35 C          -0.2803    4.5157   32.6756 C.3     1  UNL1        0.0722
@<TRIPOS>BOND
     1     1     2    2
     2     2     3    1
     3     3     4    1
     4     4     5    1
     5     5     6    1
     6     6     7   ar
     7     7     8   ar
     8     8     9   ar
     9     9    10   ar
    10    10    11   ar
    11    11    28    1
    12    28    29    1
    13    29    30    1
    14    30    31    1
    15    31    32    1
    16    32    33    1
    17    33    34    1
    18    34    35    1
    19     8    12    1
    20    12    13    1
    21    13    14   ar
    22    14    15   ar
    23    15    16   ar
    24    16    17   ar
    25    17    18   ar
    26    17    19    1
    27    19    20   ar
    28    20    21   ar
    29    21    22   ar
    30    22    23   ar
    31    22    24    1
    32    24    25    1
    33    25    26    1
    34    26     1    1
    35    11     6   ar
    36    35    31    1
    37    18    13   ar
    38    23    19   ar
    39    12    27    1
@<TRIPOS>MOLECULE
*****
 35 39 0 0 0
SMALL
GASTEIGER

@<TRIPOS>ATOM
      1 C           3.8048   -0.7559   31.3862 C.2     1  UNL1        0.0036
      2 C           3.0947    0.0071   30.3075 C.2     1  UNL1        0.0036
      3 C           2.6486    0.4275   28.9385 C.3     1  UNL1        0.1686
      4 O           2.5202    0.4545   27.4442 O.3     1  UNL1       -0.3442
      5 C           2.7251    0.0849   26.0050 C.3     1  UNL1        0.1721
      6 C           3.2385   -0.6367   24.7944 C.ar    1  UNL1        0.0425
      7 C           3.9985   -1.6233   23.9583 C.ar    1  UNL1        0.0158
      8 C           4.9134   -2.7560   23.5978 C.ar    1  UNL1        0.0504
      9 C           4.2653   -2.0800   22.3731 C.ar    1  UNL1        0.0178
     10 C           3.3057   -0.9379   22.2147 C.ar    1  UNL1        0.0379
     11 C           2.7924   -0.2163   23.4254 C.ar    1  UNL1        0.1370
     12 N           5.8730   -3.8981   23.7562 N.pl3   1  UNL1       -0.2825
     13 C           6.9008   -5.0545   24.7096 C.ar    1  UNL1        0.2207
     14 N           7.6608   -6.0411   23.8736 N.ar    1  UNL1       -0.2120
     15 C           8.5491   -7.0547   24.5319 C.ar    1  UNL1        0.1034
     16 C           8.6775   -7.0818   26.0261 C.ar    1  UNL1        0.0400
     17 C           7.9175   -6.0951   26.8621 C.ar    1  UNL1        0.0888
     18 N           7.0292   -5.0815   26.2039 N.ar    1  UNL1       -0.2134
     19 C           8.0459   -6.1222   28.3564 C.ar    1  UNL1        0.0582
     20 C           8.7781   -6.9150   29.3981 C.ar    1  UNL1        0.1806
     21 O           8.4134   -6.3610   30.7436 O.2     1  UNL1       -0.4521
     22 C           7.3276   -5.0309   31.0063 C.ar    1  UNL1        0.1529
     23 C           7.8410   -5.7526   29.7956 C.ar    1  UNL1        0.0402
     24 C           6.5676   -4.0443   31.8423 C.3     1  UNL1        0.2064
     25 O           5.6526   -2.9116   32.2029 O.3     1  UNL1       -0.3409
     26 C           4.6931   -1.7696   32.0444 C.3     1  UNL1        0.1687
     27 H           6.0375   -4.1756   22.8260 H       1  UNL1        0.1551
     28 O           1.8328    0.9258   23.2669 O.3     1  UNL1       -0.4742
     29 C           2.2683    2.3226   23.5976 C.3     1  UNL1        0.2226
     30 C           1.2934    3.2885   24.2031 C.3     1  UNL1        0.1200
     31 N           0.6065    2.9510   25.4932 N.3     1  UNL1       -0.2696
     32 C           0.9249    3.5305   26.8396 C.3     1  UNL1        0.0722
     33 C          -0.0043    2.9124   27.8418 C.3     1  UNL1        0.0188
     34 C          -0.8970    1.9507   27.1149 C.3     1  UNL1        0.0188
     35 C          -0.5195    1.9746   25.6633 C.3     1  UNL1        0.0722
@<TRIPOS>BOND
     1     1     2    2
     2     2     3    1
     3     3     4    1
     4     4     5    1
     5     5     6    1
     6     6     7   ar
     7     7     8   ar
     8     8     9   ar
     9     9    10   ar
    10    10    11   ar
    11    11    28    1
    12    28    29    1
    13    29    30    1
    14    30    31    1
    15    31    32    1
    16    32    33    1
    17    33    34    1
    18    34    35    1
    19     8    12    1
    20    12    13    1
    21    13    14   ar
    22    14    15   ar
    23    15    16   ar
    24    16    17   ar
    25    17    18   ar
    26    17    19    1
    27    19    20   ar
    28    20    21   ar
    29    21    22   ar
    30    22    23   ar
    31    22    24    1
    32    24    25    1
    33    25    26    1
    34    26     1    1
    35    11     6   ar
    36    35    31    1
    37    18    13   ar
    38    23    19   ar
    39    12    27    1
