@<TRIPOS>MOLECULE
*****
 40 46 0 0 0
SMALL
GASTEIGER

@<TRIPOS>ATOM
      1 N           2.9000    1.0936   20.6704 N.ar    1  UNL1       -0.2984
      2 C           2.9455    0.5420   19.2762 C.ar    1  UNL1        0.2013
      3 N           1.6334    0.8440   18.6152 N.ar    1  UNL1       -0.2135
      4 C           0.7768    1.5822   19.6007 C.ar    1  UNL1        0.1030
      5 C          -0.6148    2.1340   19.5058 C.ar    1  UNL1        0.0429
      6 C          -1.2236    2.8399   20.6809 C.ar    1  UNL1        0.1194
      7 N          -0.4408    2.9941   21.9511 N.ar    1  UNL1       -0.2406
      8 C           0.9508    2.4424   22.0461 C.ar    1  UNL1        0.1001
      9 C           1.5596    1.7365   20.8710 C.ar    1  UNL1        0.0977
     10 N           4.1005   -0.1841   18.6526 N.pl3   1  UNL1       -0.2762
     11 C           5.1411    0.5788   17.8877 C.3     1  UNL1        0.1256
     12 C           6.2961   -0.1473   17.2641 C.3     1  UNL1        0.1635
     13 O           6.4104   -1.6362   17.4054 O.3     1  UNL1       -0.3527
     14 C           5.3697   -2.3990   18.1704 C.3     1  UNL1        0.1333
     15 C           5.2179   -3.8599   18.4753 C.3     1  UNL1        0.0313
     16 C           3.9692   -4.0367   19.2873 C.3     1  UNL1        0.0043
     17 C           3.3492   -2.6850   19.4842 C.3     1  UNL1        0.0224
     18 C           4.2148   -1.6730   18.7939 C.3     1  UNL1        0.1026
     19 C          -2.6152    3.3916   20.5859 C.ar    1  UNL1        0.1937
     20 N          -3.8789    2.6602   20.9297 N.ar    1  UNL1       -0.1955
     21 O          -5.0322    3.5881   20.6866 O.2     1  UNL1       -0.3201
     22 C          -4.4813    4.8928   20.1926 C.ar    1  UNL1        0.4608
     23 O          -5.2833    6.1060   19.8253 O.2     1  UNL1       -0.2188
     24 N          -2.9875    4.7713   20.1303 N.ar    1  UNL1       -0.1516
     25 H          -3.9406    1.7339   21.2574 H       1  UNL1        0.2093
     26 C           1.7336    2.5966   23.3163 C.ar    1  UNL1        0.0391
     27 C           2.5112    3.8540   23.5701 C.ar    1  UNL1        0.1004
     28 N           3.2940    4.0083   24.8404 N.ar    1  UNL1       -0.2414
     29 C           3.2993    2.9052   25.8568 C.ar    1  UNL1        0.1102
     30 C           2.5217    1.6478   25.6030 C.ar    1  UNL1        0.0769
     31 CL          2.5269    0.5447   26.6194 Cl      1  UNL1       -0.0806
     32 C           1.7389    1.4935   24.3327 C.ar    1  UNL1        0.0161
     33 C           4.0014    1.0159   21.6857 C.3     1  UNL1        0.1087
     34 C           6.4069   -4.2952   23.1020 C.3     1  UNL1        0.0000
     35 C           5.8055   -2.9674   22.7479 C.3     1  UNL1        0.0000
     36 C           4.4013   -2.6447   23.1655 C.3     1  UNL1        0.0001
     37 C           3.8000   -1.3170   22.8114 C.3     1  UNL1        0.0019
     38 C           4.6027   -0.3118   22.0398 C.3     1  UNL1        0.0227
     39 C           6.0069   -0.6345   21.6222 C.3     1  UNL1        0.0019
     40 C           6.6082   -1.9623   21.9763 C.3     1  UNL1        0.0001
@<TRIPOS>BOND
     1    35    34    1
     2    35    36    1
     3    36    37    1
     4    37    38    1
     5    38    33    1
     6    33     1    1
     7     1     2   ar
     8     2    10    1
     9    10    11    1
    10    11    12    1
    11    12    13    1
    12    13    14    1
    13    14    15    1
    14    15    16    1
    15    16    17    1
    16    18    17    1
    17     2     3   ar
    18     3     4   ar
    19     4     5   ar
    20     5     6   ar
    21     6    19    1
    22    19    20   ar
    23    20    21   ar
    24    21    22   ar
    25    22    23    2
    26    22    24   ar
    27     6     7   ar
    28     7     8   ar
    29     8    26    1
    30    26    27   ar
    31    27    28   ar
    32    28    29   ar
    33    29    30   ar
    34    30    31    1
    35    30    32   ar
    36     8     9   ar
    37    38    39    1
    38    39    40    1
    39    40    35    1
    40     9     1   ar
    41    18    10    1
    42     9     4   ar
    43    18    14    1
    44    24    19   ar
    45    32    26   ar
    46    20    25    1
@<TRIPOS>MOLECULE
*****
 40 46 0 0 0
SMALL
GASTEIGER

@<TRIPOS>ATOM
      1 N          -0.9000    3.7844   22.5205 N.ar    1  UNL1       -0.2984
      2 C          -1.0372    3.4579   21.0629 C.ar    1  UNL1        0.2013
      3 N          -2.4941    3.5135   20.7106 N.ar    1  UNL1       -0.2135
      4 C          -3.2574    3.8744   21.9503 C.ar    1  UNL1        0.1030
      5 C          -4.7224    4.0722   22.2053 C.ar    1  UNL1        0.0429
      6 C          -5.2021    4.4375   23.5787 C.ar    1  UNL1        0.1194
      7 N          -4.2168    4.6049   24.6974 N.ar    1  UNL1       -0.2406
      8 C          -2.7519    4.4071   24.4424 C.ar    1  UNL1        0.1001
      9 C          -2.2722    4.0418   23.0689 C.ar    1  UNL1        0.0977
     10 N           0.0855    3.1328   20.1227 N.pl3   1  UNL1       -0.2762
     11 C           0.7039    4.2163   19.2899 C.3     1  UNL1        0.1256
     12 C           1.8266    3.8913   18.3498 C.3     1  UNL1        0.1635
     13 O           2.3310    2.4827   18.2425 O.3     1  UNL1       -0.3527
     14 C           1.7125    1.3992   19.0754 C.3     1  UNL1        0.1333
     15 C           1.9968   -0.0697   19.1833 C.3     1  UNL1        0.0313
     16 C           1.0499   -0.6524   20.1900 C.3     1  UNL1        0.0043
     17 C           0.1803    0.4564   20.7044 C.3     1  UNL1        0.0224
     18 C           0.5899    1.7243   20.0154 C.3     1  UNL1        0.1026
     19 C          -6.6669    4.6353   23.8336 C.ar    1  UNL1        0.1937
     20 N          -7.7803    3.8037   23.2687 N.ar    1  UNL1       -0.1955
     21 O          -9.0771    4.3538   23.7840 O.2     1  UNL1       -0.3201
     22 C          -8.7653    5.5253   24.6674 C.ar    1  UNL1        0.4608
     23 O          -9.7672    6.3739   25.3928 O.2     1  UNL1       -0.2188
     24 N          -7.2757    5.6993   24.6980 N.ar    1  UNL1       -0.1516
     25 H          -7.6778    3.0324   22.6656 H       1  UNL1        0.2093
     26 C          -1.7667    4.5745   25.5611 C.ar    1  UNL1        0.0391
     27 C          -1.1939    5.9283   25.8596 C.ar    1  UNL1        0.1004
     28 N          -0.2087    6.0958   26.9783 N.ar    1  UNL1       -0.2414
     29 C           0.2037    4.9094   27.7984 C.ar    1  UNL1        0.1102
     30 C          -0.3692    3.5556   27.4998 C.ar    1  UNL1        0.0769
     31 CL          0.0432    2.3692   28.3199 Cl      1  UNL1       -0.0806
     32 C          -1.3544    3.3882   26.3812 C.ar    1  UNL1        0.0161
     33 C           0.3839    3.8432   23.2938 C.3     1  UNL1        0.1087
     34 C           3.9325   -0.9859   23.5883 C.3     1  UNL1        0.0000
     35 C           3.0453    0.2214   23.5146 C.3     1  UNL1        0.0000
     36 C           1.7236    0.2252   24.2240 C.3     1  UNL1        0.0001
     37 C           0.8365    1.4325   24.1504 C.3     1  UNL1        0.0019
     38 C           1.2710    2.6360   23.3674 C.3     1  UNL1        0.0227
     39 C           2.5927    2.6321   22.6581 C.3     1  UNL1        0.0019
     40 C           3.4799    1.4248   22.7317 C.3     1  UNL1        0.0001
@<TRIPOS>BOND
     1    35    34    1
     2    35    36    1
     3    36    37    1
     4    37    38    1
     5    38    33    1
     6    33     1    1
     7     1     2   ar
     8     2    10    1
     9    10    11    1
    10    11    12    1
    11    12    13    1
    12    13    14    1
    13    14    15    1
    14    15    16    1
    15    16    17    1
    16    18    17    1
    17     2     3   ar
    18     3     4   ar
    19     4     5   ar
    20     5     6   ar
    21     6    19    1
    22    19    20   ar
    23    20    21   ar
    24    21    22   ar
    25    22    23    2
    26    22    24   ar
    27     6     7   ar
    28     7     8   ar
    29     8    26    1
    30    26    27   ar
    31    27    28   ar
    32    28    29   ar
    33    29    30   ar
    34    30    31    1
    35    30    32   ar
    36     8     9   ar
    37    38    39    1
    38    39    40    1
    39    40    35    1
    40     9     1   ar
    41    18    10    1
    42     9     4   ar
    43    18    14    1
    44    24    19   ar
    45    32    26   ar
    46    20    25    1
@<TRIPOS>MOLECULE
*****
 40 46 0 0 0
SMALL
GASTEIGER

@<TRIPOS>ATOM
      1 N           6.2067   -1.9278   23.5440 N.ar    1  UNL1       -0.2984
      2 C           6.7290   -2.9209   22.5484 C.ar    1  UNL1        0.2013
      3 N           7.2368   -4.1123   23.3050 N.ar    1  UNL1       -0.2135
      4 C           7.0284   -3.8558   24.7680 C.ar    1  UNL1        0.1030
      5 C           7.3360   -4.6771   25.9850 C.ar    1  UNL1        0.0429
      6 C           7.0070   -4.1483   27.3496 C.ar    1  UNL1        0.1194
      7 N           6.3704   -2.7982   27.4973 N.ar    1  UNL1       -0.2406
      8 C           6.0627   -1.9769   26.2804 C.ar    1  UNL1        0.1001
      9 C           6.3917   -2.5057   24.9158 C.ar    1  UNL1        0.0977
     10 N           6.7413   -2.7519   21.0580 N.pl3   1  UNL1       -0.2762
     11 C           7.9063   -2.0853   20.3884 C.3     1  UNL1        0.1256
     12 C           7.9186   -1.9164   18.8980 C.3     1  UNL1        0.1635
     13 O           6.7660   -2.4141   18.0772 O.3     1  UNL1       -0.3527
     14 C           5.6010   -3.0808   18.7470 C.3     1  UNL1        0.1333
     15 C           4.3322   -3.6680   18.2034 C.3     1  UNL1        0.0313
     16 C           3.5357   -4.1998   19.3578 C.3     1  UNL1        0.0043
     17 C           4.3124   -3.9413   20.6149 C.3     1  UNL1        0.0224
     18 C           5.5887   -3.2497   20.2373 C.3     1  UNL1        0.1026
     19 C           7.3147   -4.9697   28.5664 C.ar    1  UNL1        0.1937
     20 N           8.4552   -5.9326   28.7149 N.ar    1  UNL1       -0.1955
     21 O           8.3813   -6.5304   30.0886 O.2     1  UNL1       -0.3201
     22 C           7.1952   -5.9369   30.7892 C.ar    1  UNL1        0.4608
     23 O           6.7470   -6.2525   32.1855 O.2     1  UNL1       -0.2188
     24 N           6.5360   -4.9723   29.8484 N.ar    1  UNL1       -0.1516
     25 H           9.1331   -6.1366   28.0308 H       1  UNL1        0.2093
     26 C           5.4261   -0.6268   26.4282 C.ar    1  UNL1        0.0391
     27 C           6.2826    0.5890   26.6236 C.ar    1  UNL1        0.1004
     28 N           5.6460    1.9392   26.7714 N.ar    1  UNL1       -0.2414
     29 C           4.1528    2.0735   26.7237 C.ar    1  UNL1        0.1102
     30 C           3.2962    0.8577   26.5282 C.ar    1  UNL1        0.0769
     31 CL          1.8030    0.9920   26.4805 Cl      1  UNL1       -0.0806
     32 C           3.9329   -0.4924   26.3805 C.ar    1  UNL1        0.0161
     33 C           5.6050   -0.5916   23.2239 C.3     1  UNL1        0.1087
     34 C           1.6623   -0.0755   18.7308 C.3     1  UNL1        0.0000
     35 C           2.6480   -0.2046   19.8540 C.3     1  UNL1        0.0000
     36 C           2.2506   -0.8951   21.1250 C.3     1  UNL1        0.0001
     37 C           3.2362   -1.0241   22.2483 C.3     1  UNL1        0.0019
     38 C           4.6194   -0.4626   22.1007 C.3     1  UNL1        0.0227
     39 C           5.0168    0.2279   20.8297 C.3     1  UNL1        0.0019
     40 C           4.0311    0.3569   19.7064 C.3     1  UNL1        0.0001
@<TRIPOS>BOND
     1    35    34    1
     2    35    36    1
     3    36    37    1
     4    37    38    1
     5    38    33    1
     6    33     1    1
     7     1     2   ar
     8     2    10    1
     9    10    11    1
    10    11    12    1
    11    12    13    1
    12    13    14    1
    13    14    15    1
    14    15    16    1
    15    16    17    1
    16    18    17    1
    17     2     3   ar
    18     3     4   ar
    19     4     5   ar
    20     5     6   ar
    21     6    19    1
    22    19    20   ar
    23    20    21   ar
    24    21    22   ar
    25    22    23    2
    26    22    24   ar
    27     6     7   ar
    28     7     8   ar
    29     8    26    1
    30    26    27   ar
    31    27    28   ar
    32    28    29   ar
    33    29    30   ar
    34    30    31    1
    35    30    32   ar
    36     8     9   ar
    37    38    39    1
    38    39    40    1
    39    40    35    1
    40     9     1   ar
    41    18    10    1
    42     9     4   ar
    43    18    14    1
    44    24    19   ar
    45    32    26   ar
    46    20    25    1
@<TRIPOS>MOLECULE
*****
 40 46 0 0 0
SMALL
GASTEIGER

@<TRIPOS>ATOM
      1 N           2.6783    0.4437   31.3180 N.ar    1  UNL1       -0.2984
      2 C           1.5736    1.3804   30.9277 C.ar    1  UNL1        0.2013
      3 N           1.2981    2.2834   32.0932 N.ar    1  UNL1       -0.2135
      4 C           2.2324    1.9049   33.2039 C.ar    1  UNL1        0.1030
      5 C           2.4168    2.4486   34.5898 C.ar    1  UNL1        0.0429
      6 C           3.4541    1.8553   35.4964 C.ar    1  UNL1        0.1194
      7 N           4.3071    0.7183   35.0172 N.ar    1  UNL1       -0.2406
      8 C           4.1227    0.1746   33.6315 C.ar    1  UNL1        0.1001
      9 C           3.0855    0.7679   32.7248 C.ar    1  UNL1        0.0977
     10 N           0.8683    1.4090   29.6041 N.pl3   1  UNL1       -0.2762
     11 C          -0.3947    0.6234   29.4102 C.3     1  UNL1        0.1256
     12 C          -1.1000    0.6520   28.0867 C.3     1  UNL1        0.1635
     13 O          -0.5422    1.4661   26.9570 O.3     1  UNL1       -0.3527
     14 C           0.7209    2.2517   27.1510 C.3     1  UNL1        0.1333
     15 C           1.5028    3.1389   26.2282 C.3     1  UNL1        0.0313
     16 C           2.6913    3.6586   26.9814 C.3     1  UNL1        0.0043
     17 C           2.6439    3.0926   28.3698 C.3     1  UNL1        0.0224
     18 C           1.4261    2.2231   28.4745 C.3     1  UNL1        0.1026
     19 C           3.6384    2.3991   36.8822 C.ar    1  UNL1        0.1937
     20 N           2.8635    3.5267   37.4971 N.ar    1  UNL1       -0.1955
     21 O           3.3761    3.7352   38.8912 O.2     1  UNL1       -0.3201
     22 C           4.4677    2.7366   39.1380 C.ar    1  UNL1        0.4608
     23 O           5.2584    2.5895   40.4042 O.2     1  UNL1       -0.2188
     24 N           4.6298    1.9108   37.8963 N.ar    1  UNL1       -0.1516
     25 H           2.1447    4.0398   37.0620 H       1  UNL1        0.2093
     26 C           4.9758   -0.9624   33.1524 C.ar    1  UNL1        0.0391
     27 C           4.5270   -2.3779   33.3646 C.ar    1  UNL1        0.1004
     28 N           5.3800   -3.5150   32.8855 N.ar    1  UNL1       -0.2414
     29 C           6.6817   -3.2366   32.1942 C.ar    1  UNL1        0.1102
     30 C           7.1305   -1.8210   31.9819 C.ar    1  UNL1        0.0769
     31 CL          8.4322   -1.5426   31.2906 Cl      1  UNL1       -0.0806
     32 C           6.2775   -0.6840   32.4610 C.ar    1  UNL1        0.0161
     33 C           3.2715   -0.6288   30.4533 C.3     1  UNL1        0.1087
     34 C           5.6270    0.7798   25.1178 C.3     1  UNL1        0.0000
     35 C           5.0381    0.4277   26.4517 C.3     1  UNL1        0.0000
     36 C           5.6963    0.9059   27.7120 C.3     1  UNL1        0.0001
     37 C           5.1074    0.5538   29.0458 C.3     1  UNL1        0.0019
     38 C           3.8604   -0.2767   29.1195 C.3     1  UNL1        0.0227
     39 C           3.2022   -0.7549   27.8592 C.3     1  UNL1        0.0019
     40 C           3.7911   -0.4027   26.5254 C.3     1  UNL1        0.0001
@<TRIPOS>BOND
     1    35    34    1
     2    35    36    1
     3    36    37    1
     4    37    38    1
     5    38    33    1
     6    33     1    1
     7     1     2   ar
     8     2    10    1
     9    10    11    1
    10    11    12    1
    11    12    13    1
    12    13    14    1
    13    14    15    1
    14    15    16    1
    15    16    17    1
    16    18    17    1
    17     2     3   ar
    18     3     4   ar
    19     4     5   ar
    20     5     6   ar
    21     6    19    1
    22    19    20   ar
    23    20    21   ar
    24    21    22   ar
    25    22    23    2
    26    22    24   ar
    27     6     7   ar
    28     7     8   ar
    29     8    26    1
    30    26    27   ar
    31    27    28   ar
    32    28    29   ar
    33    29    30   ar
    34    30    31    1
    35    30    32   ar
    36     8     9   ar
    37    38    39    1
    38    39    40    1
    39    40    35    1
    40     9     1   ar
    41    18    10    1
    42     9     4   ar
    43    18    14    1
    44    24    19   ar
    45    32    26   ar
    46    20    25    1
@<TRIPOS>MOLECULE
*****
 40 46 0 0 0
SMALL
GASTEIGER

@<TRIPOS>ATOM
      1 N           2.9618   -0.1393   21.5314 N.ar    1  UNL1       -0.2984
      2 C           3.7756   -1.3875   21.7041 C.ar    1  UNL1        0.2013
      3 N           3.9063   -1.6559   23.1740 N.ar    1  UNL1       -0.2135
      4 C           3.1733   -0.5738   23.9099 C.ar    1  UNL1        0.1030
      5 C           2.9619   -0.3207   25.3733 C.ar    1  UNL1        0.0429
      6 C           2.1668    0.8697   25.8214 C.ar    1  UNL1        0.1194
      7 N           1.5830    1.8070   24.8061 N.ar    1  UNL1       -0.2406
      8 C           1.7944    1.5539   23.3428 C.ar    1  UNL1        0.1001
      9 C           2.5895    0.3636   22.8947 C.ar    1  UNL1        0.0977
     10 N           4.3567   -2.2208   20.6005 N.pl3   1  UNL1       -0.2762
     11 C           3.5660   -3.3569   20.0227 C.3     1  UNL1        0.1256
     12 C           4.1471   -4.1903   18.9191 C.3     1  UNL1        0.1635
     13 O           5.5189   -3.8875   18.3933 O.3     1  UNL1       -0.3527
     14 C           6.3096   -2.7513   18.9713 C.3     1  UNL1        0.1333
     15 C           7.6766   -2.2187   18.6589 C.3     1  UNL1        0.0313
     16 C           7.9405   -1.0562   19.5694 C.3     1  UNL1        0.0043
     17 C           6.7364   -0.8704   20.4445 C.3     1  UNL1        0.0224
     18 C           5.7285   -1.9180   20.0748 C.3     1  UNL1        0.1026
     19 C           1.9554    1.1227   27.2847 C.ar    1  UNL1        0.1937
     20 N           2.9970    1.5888   28.2583 N.ar    1  UNL1       -0.1955
     21 O           2.3507    1.7082   29.6066 O.2     1  UNL1       -0.3201
     22 C           0.9098    1.3158   29.4664 C.ar    1  UNL1        0.4608
     23 O          -0.1081    1.2899   30.5678 O.2     1  UNL1       -0.2188
     24 N           0.6655    0.9539   28.0314 N.ar    1  UNL1       -0.1516
     25 H           3.9393    1.7824   28.0490 H       1  UNL1        0.2093
     26 C           1.2107    2.4913   22.3277 C.ar    1  UNL1        0.0391
     27 C           2.0374    3.6195   21.7859 C.ar    1  UNL1        0.1004
     28 N           1.4537    4.5570   20.7707 N.ar    1  UNL1       -0.2414
     29 C           0.0432    4.3661   20.2973 C.ar    1  UNL1        0.1102
     30 C          -0.7836    3.2377   20.8391 C.ar    1  UNL1        0.0769
     31 CL         -2.1940    3.0468   20.3657 Cl      1  UNL1       -0.0806
     32 C          -0.1998    2.3004   21.8543 C.ar    1  UNL1        0.0161
     33 C           2.5862    0.4946   20.2249 C.3     1  UNL1        0.1087
     34 C           6.7486    1.3148   15.9821 C.3     1  UNL1        0.0000
     35 C           5.7079    1.1098   17.0428 C.3     1  UNL1        0.0000
     36 C           5.6628    2.0191   18.2349 C.3     1  UNL1        0.0001
     37 C           4.6222    1.8140   19.2956 C.3     1  UNL1        0.0019
     38 C           3.6268    0.6997   19.1643 C.3     1  UNL1        0.0227
     39 C           3.6719   -0.2097   17.9721 C.3     1  UNL1        0.0019
     40 C           4.7125   -0.0046   16.9114 C.3     1  UNL1        0.0001
@<TRIPOS>BOND
     1    35    34    1
     2    35    36    1
     3    36    37    1
     4    37    38    1
     5    38    33    1
     6    33     1    1
     7     1     2   ar
     8     2    10    1
     9    10    11    1
    10    11    12    1
    11    12    13    1
    12    13    14    1
    13    14    15    1
    14    15    16    1
    15    16    17    1
    16    18    17    1
    17     2     3   ar
    18     3     4   ar
    19     4     5   ar
    20     5     6   ar
    21     6    19    1
    22    19    20   ar
    23    20    21   ar
    24    21    22   ar
    25    22    23    2
    26    22    24   ar
    27     6     7   ar
    28     7     8   ar
    29     8    26    1
    30    26    27   ar
    31    27    28   ar
    32    28    29   ar
    33    29    30   ar
    34    30    31    1
    35    30    32   ar
    36     8     9   ar
    37    38    39    1
    38    39    40    1
    39    40    35    1
    40     9     1   ar
    41    18    10    1
    42     9     4   ar
    43    18    14    1
    44    24    19   ar
    45    32    26   ar
    46    20    25    1
@<TRIPOS>MOLECULE
*****
 40 46 0 0 0
SMALL
GASTEIGER

@<TRIPOS>ATOM
      1 N           5.6077   -0.6174   24.2026 N.ar    1  UNL1       -0.2984
      2 C           4.7073    0.4649   23.6851 C.ar    1  UNL1        0.2013
      3 N           3.9123    0.9981   24.8398 N.ar    1  UNL1       -0.2135
      4 C           4.3213    0.2454   26.0711 C.ar    1  UNL1        0.1030
      5 C           3.8749    0.3400   27.5001 C.ar    1  UNL1        0.0429
      6 C           4.4764   -0.5638   28.5352 C.ar    1  UNL1        0.1194
      7 N           5.5242   -1.5622   28.1413 N.ar    1  UNL1       -0.2406
      8 C           5.9705   -1.6569   26.7124 C.ar    1  UNL1        0.1001
      9 C           5.3691   -0.7531   25.6773 C.ar    1  UNL1        0.0977
     10 N           4.6178    0.9321   22.2625 N.pl3   1  UNL1       -0.2762
     11 C           5.4767    2.0676   21.7905 C.3     1  UNL1        0.1256
     12 C           5.3871    2.5347   20.3678 C.3     1  UNL1        0.1635
     13 O           4.4387    1.8663   19.4172 O.3     1  UNL1       -0.3527
     14 C           3.5799    0.7306   19.8893 C.3     1  UNL1        0.1333
     15 C           2.5598   -0.1156   19.1869 C.3     1  UNL1        0.0313
     16 C           2.0189   -1.1058   20.1753 C.3     1  UNL1        0.0043
     17 C           2.7047   -0.8714   21.4887 C.3     1  UNL1        0.0224
     18 C           3.6694    0.2636   21.3119 C.3     1  UNL1        0.1026
     19 C           4.0300   -0.4690   29.9641 C.ar    1  UNL1        0.1937
     20 N           3.0239    0.4998   30.5110 N.ar    1  UNL1       -0.1955
     21 O           2.8835    0.2411   31.9818 O.2     1  UNL1       -0.3201
     22 C           3.8027   -0.8875   32.3439 C.ar    1  UNL1        0.4608
     23 O           3.9819   -1.4743   33.7127 O.2     1  UNL1       -0.2188
     24 N           4.5113   -1.3264   31.0968 N.ar    1  UNL1       -0.1516
     25 H           2.5406    1.1851   29.9952 H       1  UNL1        0.2093
     26 C           7.0184   -2.6554   26.3186 C.ar    1  UNL1        0.0391
     27 C           8.4521   -2.2308   26.2002 C.ar    1  UNL1        0.1004
     28 N           9.5000   -3.2293   25.8064 N.ar    1  UNL1       -0.2414
     29 C           9.1141   -4.6523   25.5310 C.ar    1  UNL1        0.1102
     30 C           7.6803   -5.0770   25.6494 C.ar    1  UNL1        0.0769
     31 CL          7.2943   -6.5001   25.3740 Cl      1  UNL1       -0.0806
     32 C           6.6324   -4.0785   26.0432 C.ar    1  UNL1        0.0161
     33 C           6.5766   -1.4227   23.3884 C.3     1  UNL1        0.1087
     34 C           4.5930   -4.8082   18.8494 C.3     1  UNL1        0.0000
     35 C           5.0889   -3.9618   19.9842 C.3     1  UNL1        0.0000
     36 C           6.0541   -2.8442   19.7202 C.3     1  UNL1        0.0001
     37 C           6.5499   -1.9979   20.8550 C.3     1  UNL1        0.0019
     38 C           6.0807   -2.2690   22.2537 C.3     1  UNL1        0.0227
     39 C           5.1155   -3.3865   22.5176 C.3     1  UNL1        0.0019
     40 C           4.6196   -4.2329   21.3828 C.3     1  UNL1        0.0001
@<TRIPOS>BOND
     1    35    34    1
     2    35    36    1
     3    36    37    1
     4    37    38    1
     5    38    33    1
     6    33     1    1
     7     1     2   ar
     8     2    10    1
     9    10    11    1
    10    11    12    1
    11    12    13    1
    12    13    14    1
    13    14    15    1
    14    15    16    1
    15    16    17    1
    16    18    17    1
    17     2     3   ar
    18     3     4   ar
    19     4     5   ar
    20     5     6   ar
    21     6    19    1
    22    19    20   ar
    23    20    21   ar
    24    21    22   ar
    25    22    23    2
    26    22    24   ar
    27     6     7   ar
    28     7     8   ar
    29     8    26    1
    30    26    27   ar
    31    27    28   ar
    32    28    29   ar
    33    29    30   ar
    34    30    31    1
    35    30    32   ar
    36     8     9   ar
    37    38    39    1
    38    39    40    1
    39    40    35    1
    40     9     1   ar
    41    18    10    1
    42     9     4   ar
    43    18    14    1
    44    24    19   ar
    45    32    26   ar
    46    20    25    1
@<TRIPOS>MOLECULE
*****
 40 46 0 0 0
SMALL
GASTEIGER

@<TRIPOS>ATOM
      1 N           4.5144    1.4526   31.3733 N.ar    1  UNL1       -0.2984
      2 C           3.5298    2.4889   30.9187 C.ar    1  UNL1        0.2013
      3 N           2.7484    2.9425   32.1159 N.ar    1  UNL1       -0.2135
      4 C           3.2499    2.1867   33.3105 C.ar    1  UNL1        0.1030
      5 C           2.8538    2.2179   34.7569 C.ar    1  UNL1        0.0429
      6 C           3.5491    1.3283   35.7444 C.ar    1  UNL1        0.1194
      7 N           4.6407    0.4075   35.2854 N.ar    1  UNL1       -0.2406
      8 C           5.0368    0.3763   33.8390 C.ar    1  UNL1        0.1001
      9 C           4.3414    1.2658   32.8515 C.ar    1  UNL1        0.0977
     10 N           3.3571    2.9844   29.5135 N.pl3   1  UNL1       -0.2762
     11 C           4.2296    4.0890   28.9951 C.3     1  UNL1        0.1256
     12 C           4.0569    4.5846   27.5899 C.3     1  UNL1        0.1635
     13 O           3.0117    3.9755   26.7030 O.3     1  UNL1       -0.3527
     14 C           2.1392    2.8709   27.2214 C.3     1  UNL1        0.1333
     15 C           1.0328    2.0831   26.5848 C.3     1  UNL1        0.0313
     16 C           0.5217    1.1006   27.5965 C.3     1  UNL1        0.0043
     17 C           1.3123    1.2813   28.8584 C.3     1  UNL1        0.0224
     18 C           2.3119    2.3754   28.6265 C.3     1  UNL1        0.1026
     19 C           3.1530    1.3596   37.1908 C.ar    1  UNL1        0.1937
     20 N           3.8656    0.6684   38.3152 N.ar    1  UNL1       -0.1955
     21 O           3.1277    0.9692   39.5860 O.2     1  UNL1       -0.3201
     22 C           1.9590    1.8462   39.2471 C.ar    1  UNL1        0.4608
     23 O           0.9516    2.3870   40.2179 O.2     1  UNL1       -0.2188
     24 N           1.9746    2.0875   37.7667 N.ar    1  UNL1       -0.1516
     25 H           4.6755    0.1146   38.2335 H       1  UNL1        0.2093
     26 C           6.1283   -0.5446   33.3801 C.ar    1  UNL1        0.0391
     27 C           7.5583   -0.0939   33.4254 C.ar    1  UNL1        0.1004
     28 N           8.6499   -1.0147   32.9665 N.ar    1  UNL1       -0.2414
     29 C           8.3114   -2.3863   32.4623 C.ar    1  UNL1        0.1102
     30 C           6.8814   -2.8371   32.4170 C.ar    1  UNL1        0.0769
     31 CL          6.5429   -4.2086   31.9128 Cl      1  UNL1       -0.0806
     32 C           5.7899   -1.9162   32.8759 C.ar    1  UNL1        0.0161
     33 C           5.4991    0.7300   30.5026 C.3     1  UNL1        0.1087
     34 C           3.8461   -1.2009   25.0676 C.3     1  UNL1        0.0000
     35 C           4.2594   -0.7182   26.4264 C.3     1  UNL1        0.0000
     36 C           5.2449    0.4053   26.5555 C.3     1  UNL1        0.0001
     37 C           5.6581    0.8880   27.9142 C.3     1  UNL1        0.0019
     38 C           5.0859    0.2473   29.1439 C.3     1  UNL1        0.0227
     39 C           4.1004   -0.8763   29.0148 C.3     1  UNL1        0.0019
     40 C           3.6872   -1.3590   27.6560 C.3     1  UNL1        0.0001
@<TRIPOS>BOND
     1    35    34    1
     2    35    36    1
     3    36    37    1
     4    37    38    1
     5    38    33    1
     6    33     1    1
     7     1     2   ar
     8     2    10    1
     9    10    11    1
    10    11    12    1
    11    12    13    1
    12    13    14    1
    13    14    15    1
    14    15    16    1
    15    16    17    1
    16    18    17    1
    17     2     3   ar
    18     3     4   ar
    19     4     5   ar
    20     5     6   ar
    21     6    19    1
    22    19    20   ar
    23    20    21   ar
    24    21    22   ar
    25    22    23    2
    26    22    24   ar
    27     6     7   ar
    28     7     8   ar
    29     8    26    1
    30    26    27   ar
    31    27    28   ar
    32    28    29   ar
    33    29    30   ar
    34    30    31    1
    35    30    32   ar
    36     8     9   ar
    37    38    39    1
    38    39    40    1
    39    40    35    1
    40     9     1   ar
    41    18    10    1
    42     9     4   ar
    43    18    14    1
    44    24    19   ar
    45    32    26   ar
    46    20    25    1
@<TRIPOS>MOLECULE
*****
 40 46 0 0 0
SMALL
GASTEIGER

@<TRIPOS>ATOM
      1 N           3.5639    0.6842   31.3039 N.ar    1  UNL1       -0.2984
      2 C           2.5688    1.7343   30.9076 C.ar    1  UNL1        0.2013
      3 N           2.1368    2.4557   32.1498 N.ar    1  UNL1       -0.2135
      4 C           2.8648    1.8514   33.3137 C.ar    1  UNL1        0.1030
      5 C           2.8387    2.1566   34.7821 C.ar    1  UNL1        0.0429
      6 C           3.6945    1.3670   35.7277 C.ar    1  UNL1        0.1194
      7 N           4.5765    0.2721   35.2048 N.ar    1  UNL1       -0.2406
      8 C           4.6026   -0.0331   33.7365 C.ar    1  UNL1        0.1001
      9 C           3.7468    0.7565   32.7909 C.ar    1  UNL1        0.0977
     10 N           2.0898    2.0139   29.5139 N.pl3   1  UNL1       -0.2762
     11 C           2.8919    2.9018   28.6092 C.3     1  UNL1        0.1256
     12 C           2.4129    3.1814   27.2155 C.3     1  UNL1        0.1635
     13 O           1.1319    2.5732   26.7265 O.3     1  UNL1       -0.3527
     14 C           0.3299    1.6854   27.6313 C.3     1  UNL1        0.1333
     15 C          -0.9619    0.9503   27.4289 C.3     1  UNL1        0.0313
     16 C          -1.2814    0.2164   28.6974 C.3     1  UNL1        0.0043
     17 C          -0.1869    0.4979   29.6839 C.3     1  UNL1        0.0224
     18 C           0.8088    1.4058   29.0249 C.3     1  UNL1        0.1026
     19 C           3.6682    1.6723   37.1961 C.ar    1  UNL1        0.1937
     20 N           3.5646    0.6664   38.3040 N.ar    1  UNL1       -0.1955
     21 O           3.5734    1.4094   39.6069 O.2     1  UNL1       -0.3201
     22 C           3.6824    2.8745   39.3044 C.ar    1  UNL1        0.4608
     23 O           3.7253    3.9826   40.3144 O.2     1  UNL1       -0.2188
     24 N           3.7410    3.0370   37.8143 N.ar    1  UNL1       -0.1516
     25 H           3.5019   -0.3100   38.1950 H       1  UNL1        0.2093
     26 C           5.4846   -1.1280   33.2137 C.ar    1  UNL1        0.0391
     27 C           4.9424   -2.5178   33.0576 C.ar    1  UNL1        0.1004
     28 N           5.8243   -3.6127   32.5348 N.ar    1  UNL1       -0.2414
     29 C           7.2486   -3.3178   32.1681 C.ar    1  UNL1        0.1102
     30 C           7.7909   -1.9279   32.3242 C.ar    1  UNL1        0.0769
     31 CL          9.2152   -1.6330   31.9576 Cl      1  UNL1       -0.0806
     32 C           6.9089   -0.8331   32.8470 C.ar    1  UNL1        0.0161
     33 C           4.2547   -0.2707   30.3759 C.3     1  UNL1        0.1087
     34 C           9.5357    1.2046   27.9399 C.3     1  UNL1        0.0000
     35 C           8.2154    0.8358   28.5489 C.3     1  UNL1        0.0000
     36 C           7.6545   -0.5407   28.3467 C.3     1  UNL1        0.0001
     37 C           6.3343   -0.9095   28.9557 C.3     1  UNL1        0.0019
     38 C           5.5749    0.0981   29.7669 C.3     1  UNL1        0.0227
     39 C           6.1358    1.4746   29.9692 C.3     1  UNL1        0.0019
     40 C           7.4560    1.8434   29.3602 C.3     1  UNL1        0.0001
@<TRIPOS>BOND
     1    35    34    1
     2    35    36    1
     3    36    37    1
     4    37    38    1
     5    38    33    1
     6    33     1    1
     7     1     2   ar
     8     2    10    1
     9    10    11    1
    10    11    12    1
    11    12    13    1
    12    13    14    1
    13    14    15    1
    14    15    16    1
    15    16    17    1
    16    18    17    1
    17     2     3   ar
    18     3     4   ar
    19     4     5   ar
    20     5     6   ar
    21     6    19    1
    22    19    20   ar
    23    20    21   ar
    24    21    22   ar
    25    22    23    2
    26    22    24   ar
    27     6     7   ar
    28     7     8   ar
    29     8    26    1
    30    26    27   ar
    31    27    28   ar
    32    28    29   ar
    33    29    30   ar
    34    30    31    1
    35    30    32   ar
    36     8     9   ar
    37    38    39    1
    38    39    40    1
    39    40    35    1
    40     9     1   ar
    41    18    10    1
    42     9     4   ar
    43    18    14    1
    44    24    19   ar
    45    32    26   ar
    46    20    25    1
@<TRIPOS>MOLECULE
*****
 40 46 0 0 0
SMALL
GASTEIGER

@<TRIPOS>ATOM
      1 N           4.2246    1.7269   32.7076 N.ar    1  UNL1       -0.2984
      2 C           2.9786    1.6635   31.8749 C.ar    1  UNL1        0.2013
      3 N           2.9079    0.3020   31.2495 N.ar    1  UNL1       -0.2135
      4 C           4.1101   -0.4761   31.6956 C.ar    1  UNL1        0.1030
      5 C           4.5691   -1.8728   31.3977 C.ar    1  UNL1        0.0429
      6 C           5.8418   -2.3889   32.0009 C.ar    1  UNL1        0.1194
      7 N           6.6556   -1.5082   32.9022 N.ar    1  UNL1       -0.2406
      8 C           6.1967   -0.1115   33.2001 C.ar    1  UNL1        0.1001
      9 C           4.9240    0.4045   32.5968 C.ar    1  UNL1        0.0977
     10 N           1.9789    2.7678   31.6986 N.pl3   1  UNL1       -0.2762
     11 C           1.1815    3.2521   32.8732 C.3     1  UNL1        0.1256
     12 C           0.1817    4.3564   32.6969 C.3     1  UNL1        0.1635
     13 O          -0.0206    4.9764   31.3461 O.3     1  UNL1       -0.3527
     14 C           0.7769    4.4920   30.1715 C.3     1  UNL1        0.1333
     15 C           0.7948    4.9077   28.7304 C.3     1  UNL1        0.0313
     16 C           1.8055    4.0604   28.0160 C.3     1  UNL1        0.0043
     17 C           2.4123    3.1210   29.0157 C.3     1  UNL1        0.0224
     18 C           1.7766    3.3878   30.3478 C.3     1  UNL1        0.1026
     19 C           6.3007   -3.7855   31.7030 C.ar    1  UNL1        0.1937
     20 N           6.2213   -4.9575   32.6358 N.ar    1  UNL1       -0.1955
     21 O           6.7910   -6.1517   31.9293 O.2     1  UNL1       -0.3201
     22 C           7.2225   -5.7178   30.5598 C.ar    1  UNL1        0.4608
     23 O           7.8474   -6.5927   29.5138 O.2     1  UNL1       -0.2188
     24 N           6.9195   -4.2554   30.4199 N.ar    1  UNL1       -0.1516
     25 H           5.8589   -4.9450   33.5511 H       1  UNL1        0.2093
     26 C           7.0105    0.7691   34.1013 C.ar    1  UNL1        0.0391
     27 C           8.0322    1.6994   33.5179 C.ar    1  UNL1        0.1004
     28 N           8.8461    2.5801   34.4191 N.ar    1  UNL1       -0.2414
     29 C           8.6382    2.5304   35.9037 C.ar    1  UNL1        0.1102
     30 C           7.6164    1.5999   36.4872 C.ar    1  UNL1        0.0769
     31 CL          7.4084    1.5502   37.9719 Cl      1  UNL1       -0.0806
     32 C           6.8025    0.7193   35.5860 C.ar    1  UNL1        0.0161
     33 C           4.6896    2.9056   33.5103 C.3     1  UNL1        0.1087
     34 C           3.2281    3.3488   39.3126 C.3     1  UNL1        0.0000
     35 C           3.5935    3.2380   37.8620 C.3     1  UNL1        0.0000
     36 C           4.5760    4.1988   37.2605 C.3     1  UNL1        0.0001
     37 C           4.9413    4.0880   35.8100 C.3     1  UNL1        0.0019
     38 C           4.3243    3.0164   34.9608 C.3     1  UNL1        0.0227
     39 C           3.3418    2.0556   35.5623 C.3     1  UNL1        0.0019
     40 C           2.9765    2.1664   37.0129 C.3     1  UNL1        0.0001
@<TRIPOS>BOND
     1    35    34    1
     2    35    36    1
     3    36    37    1
     4    37    38    1
     5    38    33    1
     6    33     1    1
     7     1     2   ar
     8     2    10    1
     9    10    11    1
    10    11    12    1
    11    12    13    1
    12    13    14    1
    13    14    15    1
    14    15    16    1
    15    16    17    1
    16    18    17    1
    17     2     3   ar
    18     3     4   ar
    19     4     5   ar
    20     5     6   ar
    21     6    19    1
    22    19    20   ar
    23    20    21   ar
    24    21    22   ar
    25    22    23    2
    26    22    24   ar
    27     6     7   ar
    28     7     8   ar
    29     8    26    1
    30    26    27   ar
    31    27    28   ar
    32    28    29   ar
    33    29    30   ar
    34    30    31    1
    35    30    32   ar
    36     8     9   ar
    37    38    39    1
    38    39    40    1
    39    40    35    1
    40     9     1   ar
    41    18    10    1
    42     9     4   ar
    43    18    14    1
    44    24    19   ar
    45    32    26   ar
    46    20    25    1
