@<TRIPOS>MOLECULE
*****
 38 42 0 0 0
SMALL
GASTEIGER

@<TRIPOS>ATOM
      1 N          -1.1140  -18.4615   20.3769 N.3     1  UNL1       -0.2722
      2 C          -1.9426  -18.8338   19.1833 C.3     1  UNL1        0.0738
      3 C          -3.4397  -18.8101   19.2727 C.3     1  UNL1        0.0374
      4 C          -4.1083  -18.4142   20.5557 C.3     1  UNL1        0.0832
      5 C          -3.2798  -18.0420   21.7493 C.3     1  UNL1        0.1103
      6 C          -1.7826  -18.0656   21.6600 C.3     1  UNL1        0.0829
      7 N          -5.6055  -18.3906   20.6451 N.am    1  UNL1       -0.3006
      8 C          -6.3917  -19.6428   20.3929 C.2     1  UNL1        0.2669
      9 O          -5.6808  -20.9188   20.0512 O.2     1  UNL1       -0.2684
     10 H          -6.0720  -17.5532   20.8693 H       1  UNL1        0.1497
     11 C          -7.8889  -19.6192   20.4822 C.ar    1  UNL1        0.1761
     12 C          -8.6950  -19.1201   21.6447 C.ar    1  UNL1        0.0673
     13 C         -10.1471  -19.2830   21.3057 C.ar    1  UNL1        0.1792
     14 O         -10.2385  -19.8827   19.9338 O.2     1  UNL1       -0.3532
     15 N          -8.8428  -20.0905   19.4249 N.ar    1  UNL1       -0.0723
     16 C         -11.3046  -18.9114   22.1844 C.ar    1  UNL1        0.0648
     17 C         -12.4478  -18.1188   21.6234 C.ar    1  UNL1        0.0077
     18 C         -13.6053  -17.7472   22.5021 C.ar    1  UNL1        0.0299
     19 C         -13.6196  -18.1682   23.9418 C.ar    1  UNL1        0.1424
     20 F         -14.7771  -17.7965   24.8204 F       1  UNL1       -0.2041
     21 C         -12.4763  -18.9608   24.5028 C.ar    1  UNL1        0.0593
     22 C         -11.3188  -19.3324   23.6241 C.ar    1  UNL1        0.1453
     23 F         -10.1755  -20.1250   24.1850 F       1  UNL1       -0.2040
     24 C          -3.9483  -17.6460   23.0325 C.2     1  UNL1        0.2252
     25 O          -3.8238  -18.5213   24.2442 O.2     1  UNL1       -0.2750
     26 N          -4.7414  -16.3749   23.1038 N.am    1  UNL1       -0.3010
     27 H          -4.8232  -15.8004   22.3084 H       1  UNL1        0.1497
     28 C          -5.4100  -15.9789   24.3869 C.3     1  UNL1        0.1089
     29 C          -5.5809  -15.5854   25.8242 C.3     1  UNL1        0.0274
     30 C          -4.2094  -15.8482   25.2765 C.3     1  UNL1        0.0274
     31 C          -6.8427  -15.9722   23.9427 C.ar    1  UNL1        0.1549
     32 N          -7.1836  -15.6652   22.5146 N.ar    1  UNL1       -0.2276
     33 C          -8.6164  -15.6584   22.0704 C.ar    1  UNL1        0.1019
     34 C          -9.7081  -15.9586   23.0542 C.ar    1  UNL1        0.0413
     35 C          -9.3671  -16.2656   24.4823 C.ar    1  UNL1        0.1019
     36 N          -7.9344  -16.2723   24.9266 N.ar    1  UNL1       -0.2276
     37 C           1.1424  -17.2080   20.0821 C.3     1  UNL1        0.0188
     38 C           0.3831  -18.4851   20.2875 C.3     1  UNL1        0.0722
@<TRIPOS>BOND
     1    37    38    1
     2    38     1    1
     3     1     2    1
     4     2     3    1
     5     3     4    1
     6     4     7    1
     7     7     8   am
     8     8     9    2
     9     8    11    1
    10    11    12   ar
    11    12    13   ar
    12    13    16    1
    13    16    17   ar
    14    17    18   ar
    15    18    19   ar
    16    19    20    1
    17    19    21   ar
    18    21    22   ar
    19    22    23    1
    20    13    14   ar
    21    14    15   ar
    22     4     5    1
    23     5    24    1
    24    24    25    2
    25    24    26   am
    26    26    28    1
    27    28    31    1
    28    31    32   ar
    29    32    33   ar
    30    33    34   ar
    31    34    35   ar
    32    35    36   ar
    33    28    29    1
    34    29    30    1
    35     5     6    1
    36     6     1    1
    37    15    11   ar
    38    30    28    1
    39    22    16   ar
    40    36    31   ar
    41     7    10    1
    42    26    27    1
@<TRIPOS>MOLECULE
*****
 38 42 0 0 0
SMALL
GASTEIGER

@<TRIPOS>ATOM
      1 N           6.9700   -4.5807   30.1475 N.3     1  UNL1       -0.2722
      2 C           7.3536   -5.7810   29.3339 C.3     1  UNL1        0.0738
      3 C           7.1710   -5.7675   27.8451 C.3     1  UNL1        0.0374
      4 C           6.6049   -4.5536   27.1699 C.3     1  UNL1        0.0832
      5 C           6.2213   -3.3533   27.9835 C.3     1  UNL1        0.1103
      6 C           6.4038   -3.3668   29.4723 C.3     1  UNL1        0.0829
      7 N           6.4223   -4.5400   25.6811 N.am    1  UNL1       -0.3006
      8 C           7.6181   -4.4548   24.7796 C.2     1  UNL1        0.2669
      9 O           8.9966   -4.3831   25.3669 O.2     1  UNL1       -0.2684
     10 H           5.5176   -4.5871   25.2957 H       1  UNL1        0.1497
     11 C           7.4355   -4.4412   23.2909 C.ar    1  UNL1        0.1761
     12 C           6.6200   -3.4525   22.5115 C.ar    1  UNL1        0.0673
     13 C           6.7169   -3.8142   21.0590 C.ar    1  UNL1        0.1792
     14 O           7.5923   -5.0265   20.9406 O.2     1  UNL1       -0.3532
     15 N           8.0364   -5.4140   22.3200 N.ar    1  UNL1       -0.0723
     16 C           6.0547   -3.0907   19.9241 C.ar    1  UNL1        0.0648
     17 C           6.8738   -2.2477   18.9923 C.ar    1  UNL1        0.0077
     18 C           6.2116   -1.5242   17.8574 C.ar    1  UNL1        0.0299
     19 C           4.7302   -1.6436   17.6544 C.ar    1  UNL1        0.1424
     20 F           4.0680   -0.9200   16.5195 F       1  UNL1       -0.2041
     21 C           3.9110   -2.4866   18.5863 C.ar    1  UNL1        0.0593
     22 C           4.5732   -3.2101   19.7211 C.ar    1  UNL1        0.1453
     23 F           3.7541   -4.0531   20.6530 F       1  UNL1       -0.2040
     24 C           5.6550   -2.1393   27.3084 C.2     1  UNL1        0.2252
     25 O           6.5043   -0.9159   27.1296 O.2     1  UNL1       -0.2750
     26 N           4.2396   -2.1488   26.8120 N.am    1  UNL1       -0.3010
     27 H           3.6822   -2.9518   26.9294 H       1  UNL1        0.1497
     28 C           3.6734   -0.9348   26.1368 C.3     1  UNL1        0.1089
     29 C           3.2848    0.0191   25.0465 C.3     1  UNL1        0.0274
     30 C           3.9879   -1.2616   24.7071 C.3     1  UNL1        0.0274
     31 C           3.1623   -0.1866   27.3322 C.ar    1  UNL1        0.1549
     32 N           3.4028    1.2891   27.4523 N.ar    1  UNL1       -0.2276
     33 C           2.8917    2.0375   28.6476 C.ar    1  UNL1        0.1019
     34 C           2.1402    1.3101   29.7229 C.ar    1  UNL1        0.0413
     35 C           1.8998   -0.1656   29.6028 C.ar    1  UNL1        0.1019
     36 N           2.4109   -0.9140   28.4074 N.ar    1  UNL1       -0.2276
     37 C           6.4964   -3.5434   32.4820 C.3     1  UNL1        0.0188
     38 C           7.1525   -4.5942   31.6363 C.3     1  UNL1        0.0722
@<TRIPOS>BOND
     1    37    38    1
     2    38     1    1
     3     1     2    1
     4     2     3    1
     5     3     4    1
     6     4     7    1
     7     7     8   am
     8     8     9    2
     9     8    11    1
    10    11    12   ar
    11    12    13   ar
    12    13    16    1
    13    16    17   ar
    14    17    18   ar
    15    18    19   ar
    16    19    20    1
    17    19    21   ar
    18    21    22   ar
    19    22    23    1
    20    13    14   ar
    21    14    15   ar
    22     4     5    1
    23     5    24    1
    24    24    25    2
    25    24    26   am
    26    26    28    1
    27    28    31    1
    28    31    32   ar
    29    32    33   ar
    30    33    34   ar
    31    34    35   ar
    32    35    36   ar
    33    28    29    1
    34    29    30    1
    35     5     6    1
    36     6     1    1
    37    15    11   ar
    38    30    28    1
    39    22    16   ar
    40    36    31   ar
    41     7    10    1
    42    26    27    1
@<TRIPOS>MOLECULE
*****
 38 42 0 0 0
SMALL
GASTEIGER

@<TRIPOS>ATOM
      1 N           4.0135    1.7600   35.1422 N.3     1  UNL1       -0.2722
      2 C           4.8417    0.7110   35.8231 C.3     1  UNL1        0.0738
      3 C           5.1151   -0.5929   35.1339 C.3     1  UNL1        0.0374
      4 C           4.5604   -0.8478   33.7638 C.3     1  UNL1        0.0832
      5 C           3.7322    0.2012   33.0829 C.3     1  UNL1        0.1103
      6 C           3.4588    1.5051   33.7721 C.3     1  UNL1        0.0829
      7 N           4.8338   -2.1517   33.0745 N.am    1  UNL1       -0.3006
      8 C           6.1832   -2.4144   32.4746 C.2     1  UNL1        0.2669
      9 O           7.2593   -1.3731   32.5638 O.2     1  UNL1       -0.2684
     10 H           4.1276   -2.8351   33.0160 H       1  UNL1        0.1497
     11 C           6.4567   -3.7183   31.7853 C.ar    1  UNL1        0.1761
     12 C           6.7811   -3.8961   30.3316 C.ar    1  UNL1        0.0673
     13 C           6.9786   -5.3611   30.0767 C.ar    1  UNL1        0.1792
     14 O           6.7763   -6.0886   31.3727 O.2     1  UNL1       -0.3532
     15 N           6.4537   -5.0733   32.4287 N.ar    1  UNL1       -0.0723
     16 C           7.3188   -5.9883   28.7573 C.ar    1  UNL1        0.0648
     17 C           6.5775   -5.5792   27.5191 C.ar    1  UNL1        0.0077
     18 C           6.9176   -6.2064   26.1997 C.ar    1  UNL1        0.0299
     19 C           7.9990   -7.2428   26.1184 C.ar    1  UNL1        0.1424
     20 F           8.3391   -7.8699   24.7989 F       1  UNL1       -0.2041
     21 C           8.7403   -7.6519   27.3566 C.ar    1  UNL1        0.0593
     22 C           8.4002   -7.0246   28.6760 C.ar    1  UNL1        0.1453
     23 F           9.1415   -7.4337   29.9142 F       1  UNL1       -0.2040
     24 C           3.1774   -0.0536   31.7127 C.2     1  UNL1        0.2252
     25 O           2.6383   -1.4087   31.3620 O.2     1  UNL1       -0.2750
     26 N           3.1618    1.0466   30.6933 N.am    1  UNL1       -0.3010
     27 H           3.5157    1.9360   30.9235 H       1  UNL1        0.1497
     28 C           2.6070    0.7917   29.3231 C.3     1  UNL1        0.1089
     29 C           1.6513    0.7917   28.1670 C.3     1  UNL1        0.0274
     30 C           1.2601    1.4366   29.4635 C.3     1  UNL1        0.0274
     31 C           3.7614    0.0584   28.7070 C.ar    1  UNL1        0.1549
     32 N           5.1476    0.6228   28.8067 N.ar    1  UNL1       -0.2276
     33 C           6.3020   -0.1106   28.1906 C.ar    1  UNL1        0.1019
     34 C           6.0703   -1.4083   27.4749 C.ar    1  UNL1        0.0413
     35 C           4.6841   -1.9726   27.3753 C.ar    1  UNL1        0.1019
     36 N           3.5296   -1.2393   27.9913 N.ar    1  UNL1       -0.2276
     37 C           3.2760    4.2490   35.0377 C.3     1  UNL1        0.0188
     38 C           3.7401    3.0640   35.8315 C.3     1  UNL1        0.0722
@<TRIPOS>BOND
     1    37    38    1
     2    38     1    1
     3     1     2    1
     4     2     3    1
     5     3     4    1
     6     4     7    1
     7     7     8   am
     8     8     9    2
     9     8    11    1
    10    11    12   ar
    11    12    13   ar
    12    13    16    1
    13    16    17   ar
    14    17    18   ar
    15    18    19   ar
    16    19    20    1
    17    19    21   ar
    18    21    22   ar
    19    22    23    1
    20    13    14   ar
    21    14    15   ar
    22     4     5    1
    23     5    24    1
    24    24    25    2
    25    24    26   am
    26    26    28    1
    27    28    31    1
    28    31    32   ar
    29    32    33   ar
    30    33    34   ar
    31    34    35   ar
    32    35    36   ar
    33    28    29    1
    34    29    30    1
    35     5     6    1
    36     6     1    1
    37    15    11   ar
    38    30    28    1
    39    22    16   ar
    40    36    31   ar
    41     7    10    1
    42    26    27    1
@<TRIPOS>MOLECULE
*****
 38 42 0 0 0
SMALL
GASTEIGER

@<TRIPOS>ATOM
      1 N           1.6986    0.8078   22.0370 N.3     1  UNL1       -0.2722
      2 C           1.9716    1.1523   23.4712 C.3     1  UNL1        0.0738
      3 C           2.8477    0.2627   24.3025 C.3     1  UNL1        0.0374
      4 C           3.4508   -0.9713   23.6997 C.3     1  UNL1        0.0832
      5 C           3.1778   -1.3158   22.2656 C.3     1  UNL1        0.1103
      6 C           2.3017   -0.4262   21.4343 C.3     1  UNL1        0.0829
      7 N           4.3268   -1.8609   24.5311 N.am    1  UNL1       -0.3006
      8 C           5.7542   -1.4788   24.7891 C.2     1  UNL1        0.2669
      9 O           6.3055   -0.2070   24.2157 O.2     1  UNL1       -0.2684
     10 H           3.9650   -2.6956   24.9074 H       1  UNL1        0.1497
     11 C           6.6303   -2.3683   25.6204 C.ar    1  UNL1        0.1761
     12 C           6.7014   -3.8643   25.5356 C.ar    1  UNL1        0.0673
     13 C           7.7041   -4.3386   26.5454 C.ar    1  UNL1        0.1792
     14 O           8.2527   -3.1359   27.2542 O.2     1  UNL1       -0.3532
     15 N           7.5890   -1.9182   26.6826 N.ar    1  UNL1       -0.0723
     16 C           8.0904   -5.7653   26.8013 C.ar    1  UNL1        0.0648
     17 C           8.3591   -6.6877   25.6493 C.ar    1  UNL1        0.0077
     18 C           8.7454   -8.1143   25.9052 C.ar    1  UNL1        0.0299
     19 C           8.8629   -8.6185   27.3131 C.ar    1  UNL1        0.1424
     20 F           9.2492  -10.0452   27.5688 F       1  UNL1       -0.2041
     21 C           8.5942   -7.6962   28.4650 C.ar    1  UNL1        0.0593
     22 C           8.2079   -6.2695   28.2091 C.ar    1  UNL1        0.1453
     23 F           7.9392   -5.3471   29.3610 F       1  UNL1       -0.2040
     24 C           3.7809   -2.5499   21.6628 C.2     1  UNL1        0.2252
     25 O           4.1933   -3.6909   22.5449 O.2     1  UNL1       -0.2750
     26 N           3.9716   -2.6429   20.1779 N.am    1  UNL1       -0.3010
     27 H           3.7010   -1.8940   19.5989 H       1  UNL1        0.1497
     28 C           4.5747   -3.8770   19.5750 C.3     1  UNL1        0.1089
     29 C           4.6719   -5.2145   18.9030 C.3     1  UNL1        0.0274
     30 C           3.3276   -4.6034   19.1664 C.3     1  UNL1        0.0274
     31 C           6.0313   -3.5791   19.7743 C.ar    1  UNL1        0.1549
     32 N           6.6738   -2.4465   19.0298 N.ar    1  UNL1       -0.2276
     33 C           8.1303   -2.1485   19.2290 C.ar    1  UNL1        0.1019
     34 C           8.9443   -2.9831   20.1728 C.ar    1  UNL1        0.0413
     35 C           8.3018   -4.1157   20.9174 C.ar    1  UNL1        0.1019
     36 N           6.8453   -4.4137   20.7181 N.ar    1  UNL1       -0.2276
     37 C           0.4917    1.3162   19.7932 C.3     1  UNL1        0.0188
     38 C           0.8226    1.6974   21.2057 C.3     1  UNL1        0.0722
@<TRIPOS>BOND
     1    37    38    1
     2    38     1    1
     3     1     2    1
     4     2     3    1
     5     3     4    1
     6     4     7    1
     7     7     8   am
     8     8     9    2
     9     8    11    1
    10    11    12   ar
    11    12    13   ar
    12    13    16    1
    13    16    17   ar
    14    17    18   ar
    15    18    19   ar
    16    19    20    1
    17    19    21   ar
    18    21    22   ar
    19    22    23    1
    20    13    14   ar
    21    14    15   ar
    22     4     5    1
    23     5    24    1
    24    24    25    2
    25    24    26   am
    26    26    28    1
    27    28    31    1
    28    31    32   ar
    29    32    33   ar
    30    33    34   ar
    31    34    35   ar
    32    35    36   ar
    33    28    29    1
    34    29    30    1
    35     5     6    1
    36     6     1    1
    37    15    11   ar
    38    30    28    1
    39    22    16   ar
    40    36    31   ar
    41     7    10    1
    42    26    27    1
@<TRIPOS>MOLECULE
*****
 38 42 0 0 0
SMALL
GASTEIGER

@<TRIPOS>ATOM
      1 N           4.8121   -1.5826   26.3984 N.3     1  UNL1       -0.2722
      2 C           6.1048   -1.4659   27.1502 C.3     1  UNL1        0.0738
      3 C           6.1008   -1.0323   28.5861 C.3     1  UNL1        0.0374
      4 C           4.8042   -0.7153   29.2703 C.3     1  UNL1        0.0832
      5 C           3.5114   -0.8320   28.5185 C.3     1  UNL1        0.1103
      6 C           3.5154   -1.2657   27.0826 C.3     1  UNL1        0.0829
      7 N           4.8002   -0.2816   30.7062 N.am    1  UNL1       -0.3006
      8 C           5.0319    1.1586   31.0554 C.2     1  UNL1        0.2669
      9 O           5.2677    2.1653   29.9685 O.2     1  UNL1       -0.2684
     10 H           4.6455   -0.9423   31.4195 H       1  UNL1        0.1497
     11 C           5.0280    1.5923   32.4913 C.ar    1  UNL1        0.1761
     12 C           3.8713    1.4876   33.4408 C.ar    1  UNL1        0.0673
     13 C           4.3085    2.0374   34.7662 C.ar    1  UNL1        0.1792
     14 O           5.7352    2.4818   34.6359 O.2     1  UNL1       -0.3532
     15 N           6.1798    2.2067   33.2299 N.ar    1  UNL1       -0.0723
     16 C           3.4667    2.1269   36.0044 C.ar    1  UNL1        0.0648
     17 C           2.5692    3.3098   36.2172 C.ar    1  UNL1        0.0077
     18 C           1.7274    3.3994   37.4555 C.ar    1  UNL1        0.0299
     19 C           1.7831    2.3061   38.4810 C.ar    1  UNL1        0.1424
     20 F           0.9412    2.3958   39.7192 F       1  UNL1       -0.2041
     21 C           2.6805    1.1232   38.2682 C.ar    1  UNL1        0.0593
     22 C           3.5223    1.0336   37.0299 C.ar    1  UNL1        0.1453
     23 F           4.4198   -0.1493   36.8171 F       1  UNL1       -0.2040
     24 C           2.2147   -0.5150   29.2026 C.2     1  UNL1        0.2252
     25 O           2.0344   -0.8399   30.6559 O.2     1  UNL1       -0.2750
     26 N           1.0982    0.1268   28.4335 N.am    1  UNL1       -0.3010
     27 H           1.2165    0.3400   27.4797 H       1  UNL1        0.1497
     28 C          -0.1985    0.4438   29.1177 C.3     1  UNL1        0.1089
     29 C          -1.6316    0.3282   29.5452 C.3     1  UNL1        0.0274
     30 C          -1.0415   -0.6913   28.6166 C.3     1  UNL1        0.0274
     31 C           0.1942    1.6888   29.8562 C.ar    1  UNL1        0.1549
     32 N           0.6381    2.9033   29.0959 N.ar    1  UNL1       -0.2276
     33 C           1.0308    4.1484   29.8344 C.ar    1  UNL1        0.1019
     34 C           0.9797    4.1792   31.3331 C.ar    1  UNL1        0.0413
     35 C           0.5359    2.9647   32.0935 C.ar    1  UNL1        0.1019
     36 N           0.1431    1.7196   31.3550 N.ar    1  UNL1       -0.2276
     37 C           4.0137   -1.2572   23.9476 C.3     1  UNL1        0.0188
     38 C           4.8161   -2.0163   24.9625 C.3     1  UNL1        0.0722
@<TRIPOS>BOND
     1    37    38    1
     2    38     1    1
     3     1     2    1
     4     2     3    1
     5     3     4    1
     6     4     7    1
     7     7     8   am
     8     8     9    2
     9     8    11    1
    10    11    12   ar
    11    12    13   ar
    12    13    16    1
    13    16    17   ar
    14    17    18   ar
    15    18    19   ar
    16    19    20    1
    17    19    21   ar
    18    21    22   ar
    19    22    23    1
    20    13    14   ar
    21    14    15   ar
    22     4     5    1
    23     5    24    1
    24    24    25    2
    25    24    26   am
    26    26    28    1
    27    28    31    1
    28    31    32   ar
    29    32    33   ar
    30    33    34   ar
    31    34    35   ar
    32    35    36   ar
    33    28    29    1
    34    29    30    1
    35     5     6    1
    36     6     1    1
    37    15    11   ar
    38    30    28    1
    39    22    16   ar
    40    36    31   ar
    41     7    10    1
    42    26    27    1
@<TRIPOS>MOLECULE
*****
 38 42 0 0 0
SMALL
GASTEIGER

@<TRIPOS>ATOM
      1 N           7.9806   -4.8260   28.5237 N.3     1  UNL1       -0.2722
      2 C           7.9919   -5.8352   27.4140 C.3     1  UNL1        0.0738
      3 C           7.2757   -5.5445   26.1285 C.3     1  UNL1        0.0374
      4 C           6.5481   -4.2446   25.9527 C.3     1  UNL1        0.0832
      5 C           6.5368   -3.2354   27.0624 C.3     1  UNL1        0.1103
      6 C           7.2531   -3.5261   28.3479 C.3     1  UNL1        0.0829
      7 N           5.8318   -3.9539   24.6672 N.am    1  UNL1       -0.3006
      8 C           6.6140   -3.6187   23.4320 C.2     1  UNL1        0.2669
      9 O           8.1126   -3.5742   23.4823 O.2     1  UNL1       -0.2684
     10 H           4.8483   -3.9831   24.6343 H       1  UNL1        0.1497
     11 C           5.8978   -3.3280   22.1466 C.ar    1  UNL1        0.1761
     12 C           4.9132   -2.2198   21.9169 C.ar    1  UNL1        0.0673
     13 C           4.4473   -2.3014   20.4934 C.ar    1  UNL1        0.1792
     14 O           5.1438   -3.4599   19.8433 O.2     1  UNL1       -0.3532
     15 N           6.0403   -4.0944   20.8650 N.ar    1  UNL1       -0.0723
     16 C           3.4584   -1.3852   19.8356 C.ar    1  UNL1        0.0648
     17 C           2.1276   -1.1314   20.4795 C.ar    1  UNL1        0.0077
     18 C           1.1388   -0.2152   19.8217 C.ar    1  UNL1        0.0299
     19 C           1.4807    0.4471   18.5200 C.ar    1  UNL1        0.1424
     20 F           0.4917    1.3633   17.8622 F       1  UNL1       -0.2041
     21 C           2.8114    0.1933   17.8761 C.ar    1  UNL1        0.0593
     22 C           3.8003   -0.7229   18.5339 C.ar    1  UNL1        0.1453
     23 F           5.1311   -0.9767   17.8900 F       1  UNL1       -0.2040
     24 C           5.8092   -1.9355   26.8866 C.2     1  UNL1        0.2252
     25 O           6.5756   -0.6467   26.8453 O.2     1  UNL1       -0.2750
     26 N           4.3153   -1.9244   26.7522 N.am    1  UNL1       -0.3010
     27 H           3.8123   -2.7702   26.7793 H       1  UNL1        0.1497
     28 C           3.5878   -0.6244   26.5764 C.3     1  UNL1        0.1089
     29 C           2.9037    0.5281   25.9028 C.3     1  UNL1        0.0274
     30 C           3.4604   -0.5973   25.0821 C.3     1  UNL1        0.0274
     31 C           3.4625   -0.2002   28.0097 C.ar    1  UNL1        0.1549
     32 N           2.5978   -0.9851   28.9512 N.ar    1  UNL1       -0.2276
     33 C           2.4725   -0.5609   30.3845 C.ar    1  UNL1        0.1019
     34 C           3.2117    0.6480   30.8763 C.ar    1  UNL1        0.0413
     35 C           4.0764    1.4328   29.9349 C.ar    1  UNL1        0.1019
     36 N           4.2017    1.0087   28.5015 N.ar    1  UNL1       -0.2276
     37 C           8.8814   -6.5351   30.2607 C.3     1  UNL1        0.0188
     38 C           8.6969   -5.1167   29.8092 C.3     1  UNL1        0.0722
@<TRIPOS>BOND
     1    37    38    1
     2    38     1    1
     3     1     2    1
     4     2     3    1
     5     3     4    1
     6     4     7    1
     7     7     8   am
     8     8     9    2
     9     8    11    1
    10    11    12   ar
    11    12    13   ar
    12    13    16    1
    13    16    17   ar
    14    17    18   ar
    15    18    19   ar
    16    19    20    1
    17    19    21   ar
    18    21    22   ar
    19    22    23    1
    20    13    14   ar
    21    14    15   ar
    22     4     5    1
    23     5    24    1
    24    24    25    2
    25    24    26   am
    26    26    28    1
    27    28    31    1
    28    31    32   ar
    29    32    33   ar
    30    33    34   ar
    31    34    35   ar
    32    35    36   ar
    33    28    29    1
    34    29    30    1
    35     5     6    1
    36     6     1    1
    37    15    11   ar
    38    30    28    1
    39    22    16   ar
    40    36    31   ar
    41     7    10    1
    42    26    27    1
@<TRIPOS>MOLECULE
*****
 38 42 0 0 0
SMALL
GASTEIGER

@<TRIPOS>ATOM
      1 N           5.1616   -2.9577   21.9411 N.3     1  UNL1       -0.2722
      2 C           4.3641   -2.0340   22.8133 C.3     1  UNL1        0.0738
      3 C           4.6083   -2.0025   24.2929 C.3     1  UNL1        0.0374
      4 C           5.6499   -2.8946   24.9004 C.3     1  UNL1        0.0832
      5 C           6.4474   -3.8183   24.0281 C.3     1  UNL1        0.1103
      6 C           6.2032   -3.8498   22.5485 C.3     1  UNL1        0.0829
      7 N           5.8941   -2.8631   26.3800 N.am    1  UNL1       -0.3006
      8 C           7.0200   -2.0435   26.9371 C.2     1  UNL1        0.2669
      9 O           7.9019   -1.2554   26.0145 O.2     1  UNL1       -0.2684
     10 H           5.3153   -3.3804   26.9856 H       1  UNL1        0.1497
     11 C           7.2642   -2.0120   28.4167 C.ar    1  UNL1        0.1761
     12 C           6.2542   -1.6641   29.4698 C.ar    1  UNL1        0.0673
     13 C           6.9270   -1.7600   30.8070 C.ar    1  UNL1        0.1792
     14 O           8.3529   -2.1670   30.5804 O.2     1  UNL1       -0.3532
     15 N           8.5612   -2.3228   29.1032 N.ar    1  UNL1       -0.0723
     16 C           6.2865   -1.4952   32.1373 C.ar    1  UNL1        0.0648
     17 C           5.0141   -2.1966   32.5099 C.ar    1  UNL1        0.0077
     18 C           4.3735   -1.9319   33.8401 C.ar    1  UNL1        0.0299
     19 C           5.0054   -0.9656   34.7978 C.ar    1  UNL1        0.1424
     20 F           4.3647   -0.7009   36.1280 F       1  UNL1       -0.2041
     21 C           6.2778   -0.2641   34.4252 C.ar    1  UNL1        0.0593
     22 C           6.9183   -0.5289   33.0950 C.ar    1  UNL1        0.1453
     23 F           8.1908    0.1726   32.7224 F       1  UNL1       -0.2040
     24 C           7.4891   -4.7105   24.6356 C.2     1  UNL1        0.2252
     25 O           8.9194   -4.2623   24.6931 O.2     1  UNL1       -0.2750
     26 N           7.1005   -6.0509   25.1854 N.am    1  UNL1       -0.3010
     27 H           6.1617   -6.3451   25.1476 H       1  UNL1        0.1497
     28 C           8.1422   -6.9431   25.7928 C.3     1  UNL1        0.1089
     29 C           9.2333   -7.9669   25.8985 C.3     1  UNL1        0.0274
     30 C           8.6463   -7.6319   24.5594 C.3     1  UNL1        0.0274
     31 C           7.9997   -6.5640   27.2371 C.ar    1  UNL1        0.1549
     32 N           6.7780   -5.8285   27.7023 N.ar    1  UNL1       -0.2276
     33 C           6.6355   -5.4493   29.1466 C.ar    1  UNL1        0.1019
     34 C           7.7146   -5.8057   30.1256 C.ar    1  UNL1        0.0413
     35 C           8.9363   -6.5412   29.6603 C.ar    1  UNL1        0.1019
     36 N           9.0789   -6.9203   28.2160 N.ar    1  UNL1       -0.2276
     37 C           4.0993   -4.0931   19.8596 C.3     1  UNL1        0.0188
     38 C           4.9174   -2.9892   20.4614 C.3     1  UNL1        0.0722
@<TRIPOS>BOND
     1    37    38    1
     2    38     1    1
     3     1     2    1
     4     2     3    1
     5     3     4    1
     6     4     7    1
     7     7     8   am
     8     8     9    2
     9     8    11    1
    10    11    12   ar
    11    12    13   ar
    12    13    16    1
    13    16    17   ar
    14    17    18   ar
    15    18    19   ar
    16    19    20    1
    17    19    21   ar
    18    21    22   ar
    19    22    23    1
    20    13    14   ar
    21    14    15   ar
    22     4     5    1
    23     5    24    1
    24    24    25    2
    25    24    26   am
    26    26    28    1
    27    28    31    1
    28    31    32   ar
    29    32    33   ar
    30    33    34   ar
    31    34    35   ar
    32    35    36   ar
    33    28    29    1
    34    29    30    1
    35     5     6    1
    36     6     1    1
    37    15    11   ar
    38    30    28    1
    39    22    16   ar
    40    36    31   ar
    41     7    10    1
    42    26    27    1
@<TRIPOS>MOLECULE
*****
 38 42 0 0 0
SMALL
GASTEIGER

@<TRIPOS>ATOM
      1 N          -6.7352    5.3698   19.7991 N.3     1  UNL1       -0.2722
      2 C          -5.9567    4.8103   18.6455 C.3     1  UNL1        0.0738
      3 C          -4.7780    3.9179   18.8987 C.3     1  UNL1        0.0374
      4 C          -4.3777    3.5850   20.3054 C.3     1  UNL1        0.0832
      5 C          -5.1562    4.1445   21.4590 C.3     1  UNL1        0.1103
      6 C          -6.3350    5.0369   21.2058 C.3     1  UNL1        0.0829
      7 N          -3.1989    2.6926   20.5585 N.am    1  UNL1       -0.3006
      8 C          -1.8065    3.2192   20.3752 C.2     1  UNL1        0.2669
      9 O          -1.5927    4.6383   19.9387 O.2     1  UNL1       -0.2684
     10 H          -3.3392    1.7612   20.8450 H       1  UNL1        0.1497
     11 C          -0.6277    2.3268   20.6283 C.ar    1  UNL1        0.1761
     12 C           0.1550    1.5832   19.5868 C.ar    1  UNL1        0.0673
     13 C           1.2418    0.8181   20.2822 C.ar    1  UNL1        0.1792
     14 O           1.1308    1.0888   21.7534 O.2     1  UNL1       -0.3532
     15 N          -0.0246    2.0212   21.9673 N.ar    1  UNL1       -0.0723
     16 C           2.2607   -0.0630   19.6223 C.ar    1  UNL1        0.0648
     17 C           2.6209    0.1552   18.1826 C.ar    1  UNL1        0.0077
     18 C           3.6398   -0.7258   17.5226 C.ar    1  UNL1        0.0299
     19 C           4.2984   -1.8251   18.3023 C.ar    1  UNL1        0.1424
     20 F           5.3173   -2.7061   17.6422 F       1  UNL1       -0.2041
     21 C           3.9382   -2.0433   19.7419 C.ar    1  UNL1        0.0593
     22 C           2.9193   -1.1622   20.4019 C.ar    1  UNL1        0.1453
     23 F           2.5591   -1.3804   21.8415 F       1  UNL1       -0.2040
     24 C          -4.7559    3.8116   22.8658 C.2     1  UNL1        0.2252
     25 O          -4.6152    2.3787   23.2863 O.2     1  UNL1       -0.2750
     26 N          -4.4965    4.9116   23.8520 N.am    1  UNL1       -0.3010
     27 H          -4.5889    5.8521   23.5759 H       1  UNL1        0.1497
     28 C          -4.0962    4.5787   25.2588 C.3     1  UNL1        0.1089
     29 C          -4.2109    4.2961   26.7274 C.3     1  UNL1        0.0274
     30 C          -5.4396    4.6077   25.9255 C.3     1  UNL1        0.0274
     31 C          -2.6139    4.4341   25.0805 C.ar    1  UNL1        0.1549
     32 N          -1.8329    5.5129   24.3904 N.ar    1  UNL1       -0.2276
     33 C          -0.3505    5.3684   24.2121 C.ar    1  UNL1        0.1019
     34 C           0.3507    4.1452   24.7239 C.ar    1  UNL1        0.0413
     35 C          -0.4303    3.0664   25.4140 C.ar    1  UNL1        0.1019
     36 N          -1.9127    3.2110   25.5923 N.ar    1  UNL1       -0.2276
     37 C          -8.8391    5.9760   18.4005 C.3     1  UNL1        0.0188
     38 C          -7.9140    6.2622   19.5460 C.3     1  UNL1        0.0722
@<TRIPOS>BOND
     1    37    38    1
     2    38     1    1
     3     1     2    1
     4     2     3    1
     5     3     4    1
     6     4     7    1
     7     7     8   am
     8     8     9    2
     9     8    11    1
    10    11    12   ar
    11    12    13   ar
    12    13    16    1
    13    16    17   ar
    14    17    18   ar
    15    18    19   ar
    16    19    20    1
    17    19    21   ar
    18    21    22   ar
    19    22    23    1
    20    13    14   ar
    21    14    15   ar
    22     4     5    1
    23     5    24    1
    24    24    25    2
    25    24    26   am
    26    26    28    1
    27    28    31    1
    28    31    32   ar
    29    32    33   ar
    30    33    34   ar
    31    34    35   ar
    32    35    36   ar
    33    28    29    1
    34    29    30    1
    35     5     6    1
    36     6     1    1
    37    15    11   ar
    38    30    28    1
    39    22    16   ar
    40    36    31   ar
    41     7    10    1
    42    26    27    1
@<TRIPOS>MOLECULE
*****
 38 42 0 0 0
SMALL
GASTEIGER

@<TRIPOS>ATOM
      1 N           6.7737   -4.1722   30.1993 N.3     1  UNL1       -0.2722
      2 C           6.7559   -5.4607   29.4317 C.3     1  UNL1        0.0738
      3 C           6.6118   -5.4424   27.9387 C.3     1  UNL1        0.0374
      4 C           6.4857   -4.1355   27.2134 C.3     1  UNL1        0.0832
      5 C           6.5035   -2.8470   27.9810 C.3     1  UNL1        0.1103
      6 C           6.6475   -2.8653   29.4739 C.3     1  UNL1        0.0829
      7 N           6.3416   -4.1172   25.7204 N.am    1  UNL1       -0.3006
      8 C           7.5209   -4.4336   24.8492 C.2     1  UNL1        0.2669
      9 O           8.8444   -4.7683   25.4710 O.2     1  UNL1       -0.2684
     10 H           5.4730   -3.8976   25.3124 H       1  UNL1        0.1497
     11 C           7.3769   -4.4153   23.3563 C.ar    1  UNL1        0.1761
     12 C           6.5951   -3.4144   22.5581 C.ar    1  UNL1        0.0673
     13 C           6.7244   -3.7752   21.1079 C.ar    1  UNL1        0.1792
     14 O           7.5861   -4.9991   21.0097 O.2     1  UNL1       -0.3532
     15 N           7.9893   -5.3947   22.3993 N.ar    1  UNL1       -0.0723
     16 C           6.1014   -3.0410   19.9578 C.ar    1  UNL1        0.0648
     17 C           6.9633   -2.2563   19.0137 C.ar    1  UNL1        0.0077
     18 C           6.3403   -1.5221   17.8636 C.ar    1  UNL1        0.0299
     19 C           4.8553   -1.5726   17.6575 C.ar    1  UNL1        0.1424
     20 F           4.2324   -0.8384   16.5074 F       1  UNL1       -0.2041
     21 C           3.9934   -2.3573   18.6016 C.ar    1  UNL1        0.0593
     22 C           4.6164   -3.0915   19.7517 C.ar    1  UNL1        0.1453
     23 F           3.7545   -3.8762   20.6958 F       1  UNL1       -0.2040
     24 C           6.3773   -1.5401   27.2557 C.2     1  UNL1        0.2252
     25 O           7.5186   -1.0288   26.4273 O.2     1  UNL1       -0.2750
     26 N           5.1099   -0.7445   27.3586 N.am    1  UNL1       -0.3010
     27 H           4.3608   -1.0800   27.9023 H       1  UNL1        0.1497
     28 C           4.9837    0.5625   26.6333 C.3     1  UNL1        0.1089
     29 C           5.0212    2.0392   26.3726 C.3     1  UNL1        0.0274
     30 C           5.4111    1.5051   27.7190 C.3     1  UNL1        0.0274
     31 C           4.5125    0.0736   25.2958 C.ar    1  UNL1        0.1549
     32 N           4.2008   -1.3800   25.0960 N.ar    1  UNL1       -0.2276
     33 C           3.7295   -1.8690   23.7585 C.ar    1  UNL1        0.1019
     34 C           3.5699   -0.9044   22.6209 C.ar    1  UNL1        0.0413
     35 C           3.8816    0.5492   22.8208 C.ar    1  UNL1        0.1019
     36 N           4.3529    1.0382   24.1583 N.ar    1  UNL1       -0.2276
     37 C           6.4114   -3.0386   32.5088 C.3     1  UNL1        0.0188
     38 C           6.9178   -4.1905   31.6922 C.3     1  UNL1        0.0722
@<TRIPOS>BOND
     1    37    38    1
     2    38     1    1
     3     1     2    1
     4     2     3    1
     5     3     4    1
     6     4     7    1
     7     7     8   am
     8     8     9    2
     9     8    11    1
    10    11    12   ar
    11    12    13   ar
    12    13    16    1
    13    16    17   ar
    14    17    18   ar
    15    18    19   ar
    16    19    20    1
    17    19    21   ar
    18    21    22   ar
    19    22    23    1
    20    13    14   ar
    21    14    15   ar
    22     4     5    1
    23     5    24    1
    24    24    25    2
    25    24    26   am
    26    26    28    1
    27    28    31    1
    28    31    32   ar
    29    32    33   ar
    30    33    34   ar
    31    34    35   ar
    32    35    36   ar
    33    28    29    1
    34    29    30    1
    35     5     6    1
    36     6     1    1
    37    15    11   ar
    38    30    28    1
    39    22    16   ar
    40    36    31   ar
    41     7    10    1
    42    26    27    1
