@<TRIPOS>MOLECULE
*****
 31 33 0 0 0
SMALL
GASTEIGER

@<TRIPOS>ATOM
      1 N           7.0432   -4.0601   21.2779 N.am    1  UNL1       -0.2027
      2 C           6.9719   -4.1160   22.7751 C.2     1  UNL1        0.2645
      3 O           6.1944   -3.0775   23.5282 O.2     1  UNL1       -0.2684
      4 H           7.5535   -4.7417   20.7837 H       1  UNL1        0.1776
      5 C           7.6780   -5.2103   23.5194 C.ar    1  UNL1        0.0563
      6 C           8.4197   -6.2732   22.7644 C.ar    1  UNL1        0.0046
      7 C           9.1258   -7.3674   23.5087 C.ar    1  UNL1        0.0015
      8 C           9.0903   -7.3988   25.0079 C.ar    1  UNL1        0.0199
      9 C           8.3486   -6.3358   25.7629 C.ar    1  UNL1        0.1223
     10 C           7.6425   -5.2416   25.0187 C.ar    1  UNL1        0.0245
     11 S           8.3130   -6.3671   27.2622 S.O2    1  UNL1        0.0634
     12 O           8.2319   -4.8696   27.2915 O.2     1  UNL1       -0.1528
     13 O           8.3942   -7.8647   27.2328 O.2     1  UNL1       -0.1528
     14 N           8.2775   -6.3984   28.7614 N.3     1  UNL1       -0.1504
     15 C           9.3744   -7.0809   29.5236 C.3     1  UNL1        0.1279
     16 C           9.3389   -7.1122   31.0228 C.3     1  UNL1        0.1613
     17 O           8.2064   -6.4611   31.7599 O.3     1  UNL1       -0.3507
     18 C           7.1094   -5.7786   30.9978 C.3     1  UNL1        0.1613
     19 C           7.1450   -5.7473   29.4985 C.3     1  UNL1        0.1279
     20 C           4.2114   -4.4504   20.3676 C.3     1  UNL1        0.0538
     21 C           4.9212   -3.1610   20.0785 C.2     1  UNL1        0.0795
     22 N           6.3370   -2.9658   20.5336 N.2     1  UNL1       -0.1832
     23 C           4.2151   -2.0667   19.3343 C.ar    1  UNL1        0.0496
     24 C           2.9618   -1.4645   19.8972 C.ar    1  UNL1        0.0156
     25 C           2.2557   -0.3702   19.1529 C.ar    1  UNL1        0.0579
     26 CL          1.0025    0.2320   19.7158 Cl      1  UNL1       -0.0822
     27 C           2.8028    0.1220   17.8459 C.ar    1  UNL1        0.0145
     28 C           4.0560   -0.4802   17.2830 C.ar    1  UNL1        0.0375
     29 C           4.7622   -1.5745   18.0272 C.ar    1  UNL1        0.1348
     30 O           6.0154   -2.1767   17.4644 O.3     1  UNL1       -0.5055
     31 H           6.3571   -1.8693   16.6479 H       1  UNL1        0.2922
@<TRIPOS>BOND
     1    20    21    1
     2    21    22    2
     3    22     1    1
     4     1     2   am
     5     2     3    2
     6     2     5    1
     7     5     6   ar
     8     6     7   ar
     9     7     8   ar
    10     8     9   ar
    11     9    11    1
    12    11    12    2
    13    11    13    2
    14    11    14    1
    15    14    15    1
    16    15    16    1
    17    16    17    1
    18    17    18    1
    19    18    19    1
    20     9    10   ar
    21    21    23    1
    22    23    24   ar
    23    24    25   ar
    24    25    26    1
    25    25    27   ar
    26    27    28   ar
    27    28    29   ar
    28    29    30    1
    29    10     5   ar
    30    29    23   ar
    31    19    14    1
    32     1     4    1
    33    30    31    1
@<TRIPOS>MOLECULE
*****
 31 33 0 0 0
SMALL
GASTEIGER

@<TRIPOS>ATOM
      1 N           5.5921   -3.9260   22.4160 N.am    1  UNL1       -0.2027
      2 C           7.0862   -3.9984   22.5269 C.2     1  UNL1        0.2645
      3 O           7.9384   -2.9497   21.8758 O.2     1  UNL1       -0.2684
      4 H           5.0329   -4.6144   22.8433 H       1  UNL1        0.1776
      5 C           7.7283   -5.1196   23.2890 C.ar    1  UNL1        0.0563
      6 C           8.4218   -6.2268   22.5521 C.ar    1  UNL1        0.0046
      7 C           9.0638   -7.3479   23.3142 C.ar    1  UNL1        0.0015
      8 C           9.0123   -7.3618   24.8133 C.ar    1  UNL1        0.0199
      9 C           8.3188   -6.2547   25.5502 C.ar    1  UNL1        0.1223
     10 C           7.6768   -5.1335   24.7881 C.ar    1  UNL1        0.0245
     11 S           8.2673   -6.2686   27.0492 S.O2    1  UNL1        0.0634
     12 O           8.9721   -7.5927   27.0612 O.2     1  UNL1       -0.1528
     13 O           7.5626   -4.9445   27.0373 O.2     1  UNL1       -0.1528
     14 N           8.2158   -6.2825   28.5483 N.3     1  UNL1       -0.1504
     15 C           7.0418   -5.6830   29.2640 C.3     1  UNL1        0.1279
     16 C           6.9903   -5.6969   30.7631 C.3     1  UNL1        0.1613
     17 O           8.1128   -6.3103   31.5464 O.3     1  UNL1       -0.3507
     18 C           9.2869   -6.9098   30.8307 C.3     1  UNL1        0.1613
     19 C           9.3383   -6.8959   29.3316 C.3     1  UNL1        0.1279
     20 C           4.0594   -4.5051   19.9028 C.3     1  UNL1        0.0538
     21 C           4.1837   -3.0944   20.3973 C.2     1  UNL1        0.0795
     22 N           4.9501   -2.8049   21.6538 N.2     1  UNL1       -0.1832
     23 C           3.5417   -1.9732   19.6353 C.ar    1  UNL1        0.0496
     24 C           2.3325   -1.2829   20.1933 C.ar    1  UNL1        0.0156
     25 C           1.6905   -0.1618   19.4313 C.ar    1  UNL1        0.0579
     26 CL          0.4813    0.5284   19.9893 Cl      1  UNL1       -0.0822
     27 C           2.2576    0.2692   18.1112 C.ar    1  UNL1        0.0145
     28 C           3.4668   -0.4210   17.5532 C.ar    1  UNL1        0.0375
     29 C           4.1089   -1.5422   18.3152 C.ar    1  UNL1        0.1348
     30 O           5.3181   -2.2324   17.7572 O.3     1  UNL1       -0.5055
     31 H           5.6724   -1.9632   16.9326 H       1  UNL1        0.2922
@<TRIPOS>BOND
     1    20    21    1
     2    21    22    2
     3    22     1    1
     4     1     2   am
     5     2     3    2
     6     2     5    1
     7     5     6   ar
     8     6     7   ar
     9     7     8   ar
    10     8     9   ar
    11     9    11    1
    12    11    12    2
    13    11    13    2
    14    11    14    1
    15    14    15    1
    16    15    16    1
    17    16    17    1
    18    17    18    1
    19    18    19    1
    20     9    10   ar
    21    21    23    1
    22    23    24   ar
    23    24    25   ar
    24    25    26    1
    25    25    27   ar
    26    27    28   ar
    27    28    29   ar
    28    29    30    1
    29    10     5   ar
    30    29    23   ar
    31    19    14    1
    32     1     4    1
    33    30    31    1
@<TRIPOS>MOLECULE
*****
 31 33 0 0 0
SMALL
GASTEIGER

@<TRIPOS>ATOM
      1 N           5.4922   -3.1858   21.4881 N.am    1  UNL1       -0.2027
      2 C           4.4817   -3.4455   20.4105 C.2     1  UNL1        0.2645
      3 O           3.8957   -4.8166   20.2465 O.2     1  UNL1       -0.2684
      4 H           5.8768   -2.2859   21.5957 H       1  UNL1        0.1776
      5 C           4.0571   -2.3342   19.4968 C.ar    1  UNL1        0.0563
      6 C           4.6379   -2.2341   18.1174 C.ar    1  UNL1        0.0046
      7 C           4.2133   -1.1229   17.2038 C.ar    1  UNL1        0.0015
      8 C           3.2079   -0.1117   17.6695 C.ar    1  UNL1        0.0199
      9 C           2.6272   -0.2119   19.0488 C.ar    1  UNL1        0.1223
     10 C           3.0518   -1.3231   19.9625 C.ar    1  UNL1        0.0245
     11 S           1.6218    0.7993   19.5146 S.O2    1  UNL1        0.0634
     12 O           0.8408    0.6058   18.2486 O.2     1  UNL1       -0.1528
     13 O           2.4029    0.9928   20.7805 O.2     1  UNL1       -0.1528
     14 N           0.6165    1.8104   19.9803 N.3     1  UNL1       -0.1504
     15 C           0.1767    1.8253   21.4142 C.3     1  UNL1        0.1279
     16 C          -0.8287    2.8364   21.8799 C.3     1  UNL1        0.1613
     17 O          -1.3942    3.8327   20.9117 O.3     1  UNL1       -0.3507
     18 C          -0.9544    3.8178   19.4777 C.3     1  UNL1        0.1613
     19 C           0.0510    2.8067   19.0120 C.3     1  UNL1        0.1279
     20 C           8.2581   -3.1986   22.6500 C.3     1  UNL1        0.0538
     21 C           7.2997   -4.3035   22.9828 C.2     1  UNL1        0.0795
     22 N           5.9168   -4.2971   22.4019 N.2     1  UNL1       -0.1832
     23 C           7.7242   -5.4147   23.8964 C.ar    1  UNL1        0.0496
     24 C           7.3966   -5.3499   25.3588 C.ar    1  UNL1        0.0156
     25 C           7.8211   -6.4612   26.2725 C.ar    1  UNL1        0.0579
     26 CL          7.4935   -6.3963   27.7348 Cl      1  UNL1       -0.0822
     27 C           8.5732   -7.6373   25.7239 C.ar    1  UNL1        0.0145
     28 C           8.9009   -7.7021   24.2616 C.ar    1  UNL1        0.0375
     29 C           8.4764   -6.5908   23.3478 C.ar    1  UNL1        0.1348
     30 O           8.8040   -6.6557   21.8855 O.3     1  UNL1       -0.5055
     31 H           9.2738   -7.3904   21.5428 H       1  UNL1        0.2922
@<TRIPOS>BOND
     1    20    21    1
     2    21    22    2
     3    22     1    1
     4     1     2   am
     5     2     3    2
     6     2     5    1
     7     5     6   ar
     8     6     7   ar
     9     7     8   ar
    10     8     9   ar
    11     9    11    1
    12    11    12    2
    13    11    13    2
    14    11    14    1
    15    14    15    1
    16    15    16    1
    17    16    17    1
    18    17    18    1
    19    18    19    1
    20     9    10   ar
    21    21    23    1
    22    23    24   ar
    23    24    25   ar
    24    25    26    1
    25    25    27   ar
    26    27    28   ar
    27    28    29   ar
    28    29    30    1
    29    10     5   ar
    30    29    23   ar
    31    19    14    1
    32     1     4    1
    33    30    31    1
@<TRIPOS>MOLECULE
*****
 31 33 0 0 0
SMALL
GASTEIGER

@<TRIPOS>ATOM
      1 N           1.0256    1.0004   18.1389 N.am    1  UNL1       -0.2027
      2 C           0.9902    2.4823   18.3680 C.2     1  UNL1        0.2645
      3 O           2.2604    3.2279   18.6523 O.2     1  UNL1       -0.2684
      4 H           0.1919    0.5111   17.9523 H       1  UNL1        0.1776
      5 C          -0.3154    3.2189   18.3127 C.ar    1  UNL1        0.0563
      6 C          -0.7142    3.9456   17.0626 C.ar    1  UNL1        0.0046
      7 C          -2.0198    4.6820   17.0075 C.ar    1  UNL1        0.0015
      8 C          -2.9265    4.6918   18.2023 C.ar    1  UNL1        0.0199
      9 C          -2.5277    3.9651   19.4524 C.ar    1  UNL1        0.1223
     10 C          -1.2221    3.2286   19.5076 C.ar    1  UNL1        0.0245
     11 S          -3.4344    3.9748   20.6473 S.O2    1  UNL1        0.0634
     12 O          -4.2483    5.0680   20.0208 O.2     1  UNL1       -0.1528
     13 O          -2.6204    2.8817   21.2739 O.2     1  UNL1       -0.1528
     14 N          -4.3411    3.9846   21.8422 N.3     1  UNL1       -0.1504
     15 C          -5.7979    4.3003   21.6757 C.3     1  UNL1        0.1279
     16 C          -6.7047    4.3101   22.8706 C.3     1  UNL1        0.1613
     17 O          -6.1545    4.0041   24.2320 O.3     1  UNL1       -0.3507
     18 C          -4.6976    3.6883   24.3986 C.3     1  UNL1        0.1613
     19 C          -3.7909    3.6785   23.2037 C.3     1  UNL1        0.1279
     20 C           1.6057   -0.8550   20.4238 C.3     1  UNL1        0.0538
     21 C           2.6213   -0.6638   19.3366 C.2     1  UNL1        0.0795
     22 N           2.3312    0.2639   18.1941 N.2     1  UNL1       -0.1832
     23 C           3.9268   -1.4003   19.3918 C.ar    1  UNL1        0.0496
     24 C           4.5667   -1.6944   20.7162 C.ar    1  UNL1        0.0156
     25 C           5.8722   -2.4308   20.7714 C.ar    1  UNL1        0.0579
     26 CL          6.5120   -2.7249   22.0959 Cl      1  UNL1       -0.0822
     27 C           6.5380   -2.8732   19.5022 C.ar    1  UNL1        0.0145
     28 C           5.8983   -2.5792   18.1777 C.ar    1  UNL1        0.0375
     29 C           4.5926   -1.8427   18.1225 C.ar    1  UNL1        0.1348
     30 O           3.9529   -1.5486   16.7981 O.3     1  UNL1       -0.5055
     31 H           4.3688   -1.8250   16.0052 H       1  UNL1        0.2922
@<TRIPOS>BOND
     1    20    21    1
     2    21    22    2
     3    22     1    1
     4     1     2   am
     5     2     3    2
     6     2     5    1
     7     5     6   ar
     8     6     7   ar
     9     7     8   ar
    10     8     9   ar
    11     9    11    1
    12    11    12    2
    13    11    13    2
    14    11    14    1
    15    14    15    1
    16    15    16    1
    17    16    17    1
    18    17    18    1
    19    18    19    1
    20     9    10   ar
    21    21    23    1
    22    23    24   ar
    23    24    25   ar
    24    25    26    1
    25    25    27   ar
    26    27    28   ar
    27    28    29   ar
    28    29    30    1
    29    10     5   ar
    30    29    23   ar
    31    19    14    1
    32     1     4    1
    33    30    31    1
@<TRIPOS>MOLECULE
*****
 31 33 0 0 0
SMALL
GASTEIGER

@<TRIPOS>ATOM
      1 N          -0.2761    0.6427   20.0710 N.am    1  UNL1       -0.2027
      2 C          -0.1531    2.0482   20.5804 C.2     1  UNL1        0.2645
      3 O           0.9024    2.3904   21.5898 O.2     1  UNL1       -0.2684
      4 H          -0.9689    0.4182   19.4086 H       1  UNL1        0.1776
      5 C          -1.0856    3.1115   20.0805 C.ar    1  UNL1        0.0563
      6 C          -0.7517    3.8764   18.8341 C.ar    1  UNL1        0.0046
      7 C          -1.6842    4.9396   18.3343 C.ar    1  UNL1        0.0015
      8 C          -2.9505    5.2380   19.0808 C.ar    1  UNL1        0.0199
      9 C          -3.2845    4.4732   20.3271 C.ar    1  UNL1        0.1223
     10 C          -2.3520    3.4099   20.8270 C.ar    1  UNL1        0.0245
     11 S          -4.5508    4.7716   21.0736 S.O2    1  UNL1        0.0634
     12 O          -4.2942    6.2416   20.9214 O.2     1  UNL1       -0.1528
     13 O          -4.8075    3.3016   21.2258 O.2     1  UNL1       -0.1528
     14 N          -5.8172    5.0700   21.8201 N.3     1  UNL1       -0.1504
     15 C          -6.4457    4.0157   22.6823 C.3     1  UNL1        0.1279
     16 C          -7.7121    4.3141   23.4288 C.3     1  UNL1        0.1613
     17 O          -8.3500    5.6668   23.3130 O.3     1  UNL1       -0.3507
     18 C          -7.7215    6.7210   22.4508 C.3     1  UNL1        0.1613
     19 C          -6.4551    6.4226   21.7043 C.3     1  UNL1        0.1279
     20 C           2.3501    0.1830   18.6956 C.3     1  UNL1        0.0538
     21 C           1.9694   -0.6504   19.8833 C.2     1  UNL1        0.0795
     22 N           0.6563   -0.4206   20.5710 N.2     1  UNL1       -0.1832
     23 C           2.9018   -1.7137   20.3832 C.ar    1  UNL1        0.0496
     24 C           3.3266   -2.8275   19.4726 C.ar    1  UNL1        0.0156
     25 C           4.2590   -3.8907   19.9725 C.ar    1  UNL1        0.0579
     26 CL          4.6837   -5.0044   19.0619 Cl      1  UNL1       -0.0822
     27 C           4.7667   -3.8404   21.3831 C.ar    1  UNL1        0.0145
     28 C           4.3420   -2.7267   22.2937 C.ar    1  UNL1        0.0375
     29 C           3.4095   -1.6633   21.7938 C.ar    1  UNL1        0.1348
     30 O           2.9848   -0.5496   22.7044 O.3     1  UNL1       -0.5055
     31 H           3.3019   -0.5182   23.5856 H       1  UNL1        0.2922
@<TRIPOS>BOND
     1    20    21    1
     2    21    22    2
     3    22     1    1
     4     1     2   am
     5     2     3    2
     6     2     5    1
     7     5     6   ar
     8     6     7   ar
     9     7     8   ar
    10     8     9   ar
    11     9    11    1
    12    11    12    2
    13    11    13    2
    14    11    14    1
    15    14    15    1
    16    15    16    1
    17    16    17    1
    18    17    18    1
    19    18    19    1
    20     9    10   ar
    21    21    23    1
    22    23    24   ar
    23    24    25   ar
    24    25    26    1
    25    25    27   ar
    26    27    28   ar
    27    28    29   ar
    28    29    30    1
    29    10     5   ar
    30    29    23   ar
    31    19    14    1
    32     1     4    1
    33    30    31    1
@<TRIPOS>MOLECULE
*****
 31 33 0 0 0
SMALL
GASTEIGER

@<TRIPOS>ATOM
      1 N           2.1936    0.0423   23.8121 N.am    1  UNL1       -0.2027
      2 C           1.0383    0.9948   23.9014 C.2     1  UNL1        0.2645
      3 O           0.4232    1.5470   22.6498 O.2     1  UNL1       -0.2684
      4 H           2.5974   -0.3202   24.6336 H       1  UNL1        0.1776
      5 C           0.4981    1.3950   25.2423 C.ar    1  UNL1        0.0563
      6 C          -0.7716    2.1885   25.3330 C.ar    1  UNL1        0.0046
      7 C          -1.3117    2.5887   26.6739 C.ar    1  UNL1        0.0015
      8 C          -0.5822    2.1954   27.9241 C.ar    1  UNL1        0.0199
      9 C           0.6875    1.4019   27.8335 C.ar    1  UNL1        0.1223
     10 C           1.2276    1.0017   26.4926 C.ar    1  UNL1        0.0245
     11 S           1.4170    1.0086   29.0837 S.O2    1  UNL1        0.0634
     12 O           1.6257    2.4561   29.4173 O.2     1  UNL1       -0.1528
     13 O           1.2083   -0.4389   28.7502 O.2     1  UNL1       -0.1528
     14 N           2.1465    0.6153   30.3340 N.3     1  UNL1       -0.1504
     15 C           2.9290   -0.6637   30.3749 C.3     1  UNL1        0.1279
     16 C           3.6585   -1.0570   31.6251 C.3     1  UNL1        0.1613
     17 O           3.6056   -0.1712   32.8345 O.3     1  UNL1       -0.3507
     18 C           2.8231    1.1078   32.7936 C.3     1  UNL1        0.1613
     19 C           2.0936    1.5011   31.5433 C.3     1  UNL1        0.1279
     20 C           4.1874   -2.1897   23.6035 C.3     1  UNL1        0.0538
     21 C           3.7307   -1.4739   22.3669 C.2     1  UNL1        0.0795
     22 N           2.7339   -0.3579   22.4712 N.2     1  UNL1       -0.1832
     23 C           4.2708   -1.8741   21.0260 C.ar    1  UNL1        0.0496
     24 C           4.1680   -3.2997   20.5710 C.ar    1  UNL1        0.0156
     25 C           4.7082   -3.6999   19.2301 C.ar    1  UNL1        0.0579
     26 CL          4.6053   -5.1255   18.7752 Cl      1  UNL1       -0.0822
     27 C           5.3512   -2.6745   18.3441 C.ar    1  UNL1        0.0145
     28 C           5.4541   -1.2489   18.7990 C.ar    1  UNL1        0.0375
     29 C           4.9139   -0.8486   20.1400 C.ar    1  UNL1        0.1348
     30 O           5.0167    0.5770   20.5949 O.3     1  UNL1       -0.5055
     31 H           5.4184    1.2176   20.0414 H       1  UNL1        0.2922
@<TRIPOS>BOND
     1    20    21    1
     2    21    22    2
     3    22     1    1
     4     1     2   am
     5     2     3    2
     6     2     5    1
     7     5     6   ar
     8     6     7   ar
     9     7     8   ar
    10     8     9   ar
    11     9    11    1
    12    11    12    2
    13    11    13    2
    14    11    14    1
    15    14    15    1
    16    15    16    1
    17    16    17    1
    18    17    18    1
    19    18    19    1
    20     9    10   ar
    21    21    23    1
    22    23    24   ar
    23    24    25   ar
    24    25    26    1
    25    25    27   ar
    26    27    28   ar
    27    28    29   ar
    28    29    30    1
    29    10     5   ar
    30    29    23   ar
    31    19    14    1
    32     1     4    1
    33    30    31    1
@<TRIPOS>MOLECULE
*****
 31 33 0 0 0
SMALL
GASTEIGER

@<TRIPOS>ATOM
      1 N          -0.7270    2.1777   20.4478 N.am    1  UNL1       -0.2027
      2 C          -0.0440    2.7105   19.2232 C.2     1  UNL1        0.2645
      3 O          -0.8072    3.5552   18.2464 O.2     1  UNL1       -0.2684
      4 H          -0.2262    1.6233   21.0889 H       1  UNL1        0.1776
      5 C           1.4022    2.3987   18.9754 C.ar    1  UNL1        0.0563
      6 C           2.3287    3.4738   18.4899 C.ar    1  UNL1        0.0046
      7 C           3.7748    3.1619   18.2421 C.ar    1  UNL1        0.0015
      8 C           4.2944    1.7750   18.4799 C.ar    1  UNL1        0.0199
      9 C           3.3679    0.7000   18.9655 C.ar    1  UNL1        0.1223
     10 C           1.9218    1.0118   19.2133 C.ar    1  UNL1        0.0245
     11 S           3.8875   -0.6869   19.2033 S.O2    1  UNL1        0.0634
     12 O           5.2643   -0.2382   18.8121 O.2     1  UNL1       -0.1528
     13 O           2.5107   -1.1356   19.5945 O.2     1  UNL1       -0.1528
     14 N           4.4071   -2.0738   19.4411 N.3     1  UNL1       -0.1504
     15 C           3.5258   -3.2596   19.1822 C.3     1  UNL1        0.1279
     16 C           4.0454   -4.6465   19.4200 C.3     1  UNL1        0.1613
     17 O           5.4463   -4.8476   19.9167 O.3     1  UNL1       -0.3507
     18 C           6.3277   -3.6618   20.1757 C.3     1  UNL1        0.1613
     19 C           5.8081   -2.2749   19.9379 C.3     1  UNL1        0.1279
     20 C          -1.4843    4.3700   22.3505 C.3     1  UNL1        0.0538
     21 C          -2.5518    3.5857   21.6469 C.2     1  UNL1        0.0795
     22 N          -2.1733    2.4895   20.6955 N.2     1  UNL1       -0.1832
     23 C          -3.9980    3.8974   21.8946 C.ar    1  UNL1        0.0496
     24 C          -4.4822    4.1498   23.2918 C.ar    1  UNL1        0.0156
     25 C          -5.9283    4.4616   23.5395 C.ar    1  UNL1        0.0579
     26 CL         -6.4124    4.7140   24.9366 Cl      1  UNL1       -0.0822
     27 C          -6.8903    4.5210   22.3902 C.ar    1  UNL1        0.0145
     28 C          -6.4062    4.2686   20.9931 C.ar    1  UNL1        0.0375
     29 C          -4.9600    3.9568   20.7453 C.ar    1  UNL1        0.1348
     30 O          -4.4759    3.7044   19.3482 O.3     1  UNL1       -0.5055
     31 H          -5.0768    3.7415   18.6303 H       1  UNL1        0.2922
@<TRIPOS>BOND
     1    20    21    1
     2    21    22    2
     3    22     1    1
     4     1     2   am
     5     2     3    2
     6     2     5    1
     7     5     6   ar
     8     6     7   ar
     9     7     8   ar
    10     8     9   ar
    11     9    11    1
    12    11    12    2
    13    11    13    2
    14    11    14    1
    15    14    15    1
    16    15    16    1
    17    16    17    1
    18    17    18    1
    19    18    19    1
    20     9    10   ar
    21    21    23    1
    22    23    24   ar
    23    24    25   ar
    24    25    26    1
    25    25    27   ar
    26    27    28   ar
    27    28    29   ar
    28    29    30    1
    29    10     5   ar
    30    29    23   ar
    31    19    14    1
    32     1     4    1
    33    30    31    1
@<TRIPOS>MOLECULE
*****
 31 33 0 0 0
SMALL
GASTEIGER

@<TRIPOS>ATOM
      1 N          -1.3982    2.2448   26.6824 N.am    1  UNL1       -0.2027
      2 C          -1.4093    3.4008   25.7267 C.2     1  UNL1        0.2645
      3 O          -0.3278    4.4382   25.7917 O.2     1  UNL1       -0.2684
      4 H          -2.1080    1.5640   26.6398 H       1  UNL1        0.1776
      5 C          -2.5020    3.5195   24.7059 C.ar    1  UNL1        0.0563
      6 C          -3.9353    3.5765   25.1446 C.ar    1  UNL1        0.0046
      7 C          -5.0279    3.6952   24.1238 C.ar    1  UNL1        0.0015
      8 C          -4.6873    3.7568   22.6643 C.ar    1  UNL1        0.0199
      9 C          -3.2540    3.6997   22.2256 C.ar    1  UNL1        0.1223
     10 C          -2.1614    3.5811   23.2464 C.ar    1  UNL1        0.0245
     11 S          -2.9134    3.7614   20.7661 S.O2    1  UNL1        0.0634
     12 O          -3.7541    4.9952   20.6219 O.2     1  UNL1       -0.1528
     13 O          -2.0726    2.5275   20.9102 O.2     1  UNL1       -0.1528
     14 N          -2.5728    3.8230   19.3065 N.3     1  UNL1       -0.1504
     15 C          -1.1378    3.8098   18.8701 C.3     1  UNL1        0.1279
     16 C          -0.7971    3.8715   17.4106 C.3     1  UNL1        0.1613
     17 O          -1.8915    3.9462   16.3875 O.3     1  UNL1       -0.3507
     18 C          -3.3265    3.9594   16.8240 C.3     1  UNL1        0.1613
     19 C          -3.6671    3.8978   18.2835 C.3     1  UNL1        0.1279
     20 C          -1.5669    0.1505   28.8239 C.3     1  UNL1        0.0538
     21 C          -0.3898    1.0790   28.7739 C.2     1  UNL1        0.0795
     22 N          -0.3055    2.1261   27.7033 N.2     1  UNL1       -0.1832
     23 C           0.7029    0.9604   29.7947 C.ar    1  UNL1        0.0496
     24 C           0.7075    1.8584   30.9962 C.ar    1  UNL1        0.0156
     25 C           1.8002    1.7397   32.0170 C.ar    1  UNL1        0.0579
     26 CL          1.8048    2.6377   33.2185 Cl      1  UNL1       -0.0822
     27 C           2.8882    0.7232   31.8362 C.ar    1  UNL1        0.0145
     28 C           2.8836   -0.1748   30.6347 C.ar    1  UNL1        0.0375
     29 C           1.7909   -0.0562   29.6139 C.ar    1  UNL1        0.1348
     30 O           1.7863   -0.9541   28.4124 O.3     1  UNL1       -0.5055
     31 H           2.4660   -1.5891   28.2995 H       1  UNL1        0.2922
@<TRIPOS>BOND
     1    20    21    1
     2    21    22    2
     3    22     1    1
     4     1     2   am
     5     2     3    2
     6     2     5    1
     7     5     6   ar
     8     6     7   ar
     9     7     8   ar
    10     8     9   ar
    11     9    11    1
    12    11    12    2
    13    11    13    2
    14    11    14    1
    15    14    15    1
    16    15    16    1
    17    16    17    1
    18    17    18    1
    19    18    19    1
    20     9    10   ar
    21    21    23    1
    22    23    24   ar
    23    24    25   ar
    24    25    26    1
    25    25    27   ar
    26    27    28   ar
    27    28    29   ar
    28    29    30    1
    29    10     5   ar
    30    29    23   ar
    31    19    14    1
    32     1     4    1
    33    30    31    1
@<TRIPOS>MOLECULE
*****
 31 33 0 0 0
SMALL
GASTEIGER

@<TRIPOS>ATOM
      1 N           1.7939    0.4052   22.9999 N.am    1  UNL1       -0.2027
      2 C           2.0762    0.6504   24.4525 C.2     1  UNL1        0.2645
      3 O           3.3731    0.1934   25.0521 O.2     1  UNL1       -0.2684
      4 H           0.9428    0.7051   22.6064 H       1  UNL1        0.1776
      5 C           1.0617    1.3525   25.3057 C.ar    1  UNL1        0.0563
      6 C          -0.2373    1.8047   24.7075 C.ar    1  UNL1        0.0046
      7 C          -1.2518    2.5068   25.5606 C.ar    1  UNL1        0.0015
      8 C          -0.9672    2.7566   27.0120 C.ar    1  UNL1        0.0199
      9 C           0.3318    2.3043   27.6103 C.ar    1  UNL1        0.1223
     10 C           1.3462    1.6023   26.7571 C.ar    1  UNL1        0.0245
     11 S           0.6163    2.5541   29.0617 S.O2    1  UNL1        0.0634
     12 O           0.2748    4.0033   28.8793 O.2     1  UNL1       -0.1528
     13 O           0.9579    1.1050   29.2442 O.2     1  UNL1       -0.1528
     14 N           0.9009    2.8039   30.5131 N.3     1  UNL1       -0.1504
     15 C           1.4443    1.7005   31.3716 C.3     1  UNL1        0.1279
     16 C           1.7289    1.9503   32.8230 C.3     1  UNL1        0.1613
     17 O           1.4700    3.3036   33.4160 O.3     1  UNL1       -0.3507
     18 C           0.9266    4.4070   32.5575 C.3     1  UNL1        0.1613
     19 C           0.6420    4.1572   31.1061 C.3     1  UNL1        0.1279
     20 C           1.0345   -0.5797   20.2698 C.3     1  UNL1        0.0538
     21 C           2.4287   -0.7893   20.7818 C.2     1  UNL1        0.0795
     22 N           2.8085   -0.2969   22.1468 N.2     1  UNL1       -0.1832
     23 C           3.4433   -1.4914   19.9287 C.ar    1  UNL1        0.0496
     24 C           3.4018   -2.9843   19.7893 C.ar    1  UNL1        0.0156
     25 C           4.4164   -3.6864   18.9362 C.ar    1  UNL1        0.0579
     26 CL          4.3749   -5.1793   18.7968 Cl      1  UNL1       -0.0822
     27 C           5.4724   -2.8955   18.2225 C.ar    1  UNL1        0.0145
     28 C           5.5139   -1.4026   18.3618 C.ar    1  UNL1        0.0375
     29 C           4.4993   -0.7005   19.2150 C.ar    1  UNL1        0.1348
     30 O           4.5408    0.7924   19.3543 O.3     1  UNL1       -0.5055
     31 H           5.2004    1.2864   18.9085 H       1  UNL1        0.2922
@<TRIPOS>BOND
     1    20    21    1
     2    21    22    2
     3    22     1    1
     4     1     2   am
     5     2     3    2
     6     2     5    1
     7     5     6   ar
     8     6     7   ar
     9     7     8   ar
    10     8     9   ar
    11     9    11    1
    12    11    12    2
    13    11    13    2
    14    11    14    1
    15    14    15    1
    16    15    16    1
    17    16    17    1
    18    17    18    1
    19    18    19    1
    20     9    10   ar
    21    21    23    1
    22    23    24   ar
    23    24    25   ar
    24    25    26    1
    25    25    27   ar
    26    27    28   ar
    27    28    29   ar
    28    29    30    1
    29    10     5   ar
    30    29    23   ar
    31    19    14    1
    32     1     4    1
    33    30    31    1
