@<TRIPOS>MOLECULE
*****
 26 29 0 0 0
SMALL
GASTEIGER

@<TRIPOS>ATOM
      1 C           2.9615   -1.2213   19.7811 C.2     1  UNL1        0.3610
      2 N           3.8068   -2.0706   20.6834 N.2     1  UNL1       -0.0419
      3 C           5.2302   -2.3687   20.3162 C.2     1  UNL1        0.1922
      4 C           5.8084   -1.8176   19.0465 C.3     1  UNL1        0.2225
      5 S           7.2328   -2.2773   18.9480 S.3     1  UNL1       -0.0944
      6 C           7.5349   -3.1126   20.1568 C.ar    1  UNL1        0.0294
      7 C           8.7772   -3.8290   20.5967 C.ar    1  UNL1        0.0063
      8 C           8.7817   -4.6019   21.8822 C.ar    1  UNL1        0.0005
      9 C           7.5440   -4.6584   22.7277 C.ar    1  UNL1        0.0001
     10 C           6.3018   -3.9420   22.2878 C.ar    1  UNL1        0.0039
     11 C           6.2973   -3.1691   21.0023 C.ar    1  UNL1        0.0459
     12 C           4.9631   -0.9683   18.1442 C.2     1  UNL1        0.3698
     13 O           5.5412   -0.4171   16.8745 O.2     1  UNL1       -0.2414
     14 N           3.5396   -0.6701   18.5114 N.am    1  UNL1        0.0305
     15 C           7.5486   -5.4314   24.0133 C.ar    1  UNL1        0.0002
     16 C           8.1855   -6.7882   24.0703 C.ar    1  UNL1        0.0031
     17 C           8.1901   -7.5612   25.3558 C.ar    1  UNL1        0.0366
     18 C           7.5578   -6.9773   26.5843 C.ar    1  UNL1        0.1337
     19 O           7.5624   -7.7502   27.8698 O.3     1  UNL1       -0.5055
     20 C           6.9209   -5.6203   26.5273 C.ar    1  UNL1        0.0366
     21 C           6.9163   -4.8474   25.2418 C.ar    1  UNL1        0.0031
     22 H           7.9602   -8.5978   27.9055 H       1  UNL1        0.2922
     23 C           1.5380   -0.9232   20.1484 C.3     1  UNL1        0.1955
     24 C           1.9142    0.7304   22.1166 C.3     1  UNL1        0.0901
     25 N           1.1975    0.3564   20.8532 N.3     1  UNL1       -0.2599
     26 C           0.1403    1.2619   20.2945 C.3     1  UNL1        0.0901
@<TRIPOS>BOND
     1    24    25    1
     2    25    26    1
     3    25    23    1
     4    23     1    1
     5     1     2    1
     6     2     3    2
     7     3     4    1
     8     4     5    1
     9     5     6    1
    10     6     7   ar
    11     7     8   ar
    12     8     9   ar
    13     9    15    1
    14    15    16   ar
    15    16    17   ar
    16    17    18   ar
    17    18    19    1
    18    18    20   ar
    19    20    21   ar
    20     9    10   ar
    21    10    11   ar
    22     4    12    1
    23    12    13    2
    24    12    14    1
    25    14     1    2
    26    11     3    1
    27    11     6   ar
    28    21    15   ar
    29    19    22    1
@<TRIPOS>MOLECULE
*****
 26 29 0 0 0
SMALL
GASTEIGER

@<TRIPOS>ATOM
      1 C          -9.4291  -16.3054   24.3573 C.2     1  UNL1        0.3610
      2 N          -8.2482  -16.8002   23.5758 N.2     1  UNL1       -0.0419
      3 C          -8.4461  -17.7804   22.4578 C.2     1  UNL1        0.1922
      4 C          -9.8249  -18.2658   22.1212 C.3     1  UNL1        0.2225
      5 S          -9.7111  -19.2257   20.9742 S.3     1  UNL1       -0.0944
      6 C          -8.2621  -19.3336   20.6019 C.ar    1  UNL1        0.0294
      7 C          -7.5535  -20.1297   19.5465 C.ar    1  UNL1        0.0063
      8 C          -6.0631  -20.0326   19.4079 C.ar    1  UNL1        0.0005
      9 C          -5.2813  -19.1393   20.3249 C.ar    1  UNL1        0.0001
     10 C          -5.9898  -18.3432   21.3803 C.ar    1  UNL1        0.0039
     11 C          -7.4802  -18.4403   21.5188 C.ar    1  UNL1        0.0459
     12 C         -11.0058  -17.7710   22.9027 C.2     1  UNL1        0.3698
     13 O         -12.3846  -18.2565   22.5661 O.2     1  UNL1       -0.2414
     14 N         -10.8079  -16.7908   24.0207 N.am    1  UNL1        0.0305
     15 C          -3.7908  -19.0422   20.1863 C.ar    1  UNL1        0.0002
     16 C          -2.8991  -19.7252   21.1804 C.ar    1  UNL1        0.0031
     17 C          -1.4086  -19.6281   21.0418 C.ar    1  UNL1        0.0366
     18 C          -0.8099  -18.8480   19.9091 C.ar    1  UNL1        0.1337
     19 O           0.6805  -18.7509   19.7704 O.3     1  UNL1       -0.5055
     20 C          -1.7018  -18.1650   18.9149 C.ar    1  UNL1        0.0366
     21 C          -3.1921  -18.2622   19.0535 C.ar    1  UNL1        0.0031
     22 H           1.2375  -19.1775   20.3914 H       1  UNL1        0.2922
     23 C          -9.2312  -15.3251   25.4754 C.3     1  UNL1        0.1955
     24 C          -6.7461  -15.0333   26.1744 C.3     1  UNL1        0.0901
     25 N          -8.1284  -15.5348   26.4703 N.3     1  UNL1       -0.2599
     26 C          -8.4080  -16.2460   27.7609 C.3     1  UNL1        0.0901
@<TRIPOS>BOND
     1    24    25    1
     2    25    26    1
     3    25    23    1
     4    23     1    1
     5     1     2    1
     6     2     3    2
     7     3     4    1
     8     4     5    1
     9     5     6    1
    10     6     7   ar
    11     7     8   ar
    12     8     9   ar
    13     9    15    1
    14    15    16   ar
    15    16    17   ar
    16    17    18   ar
    17    18    19    1
    18    18    20   ar
    19    20    21   ar
    20     9    10   ar
    21    10    11   ar
    22     4    12    1
    23    12    13    2
    24    12    14    1
    25    14     1    2
    26    11     3    1
    27    11     6   ar
    28    21    15   ar
    29    19    22    1
@<TRIPOS>MOLECULE
*****
 26 29 0 0 0
SMALL
GASTEIGER

@<TRIPOS>ATOM
      1 C           0.1256    1.7378   26.6585 C.2     1  UNL1        0.3610
      2 N           0.5946    1.3407   25.2901 N.2     1  UNL1       -0.0419
      3 C           0.0314    2.0207   24.0776 C.2     1  UNL1        0.1922
      4 C          -1.0007    3.0980   24.2334 C.3     1  UNL1        0.2225
      5 S          -1.3714    3.5862   22.8643 S.3     1  UNL1       -0.0944
      6 C          -0.5683    2.8107   21.8625 C.ar    1  UNL1        0.0294
      7 C          -0.5146    2.8606   20.3643 C.ar    1  UNL1        0.0063
      8 C           0.4062    1.9429   19.6159 C.ar    1  UNL1        0.0005
      9 C           1.2732    0.9754   20.3658 C.ar    1  UNL1        0.0001
     10 C           1.2194    0.9256   21.8640 C.ar    1  UNL1        0.0039
     11 C           0.2987    1.8432   22.6123 C.ar    1  UNL1        0.0459
     12 C          -1.4697    3.4951   25.6017 C.2     1  UNL1        0.3698
     13 O          -2.5019    4.5723   25.7575 O.2     1  UNL1       -0.2414
     14 N          -0.9066    2.8150   26.8143 N.am    1  UNL1        0.0305
     15 C           2.1941    0.0578   19.6174 C.ar    1  UNL1        0.0002
     16 C           2.6323   -1.2352   20.2387 C.ar    1  UNL1        0.0031
     17 C           3.5532   -2.1529   19.4903 C.ar    1  UNL1        0.0366
     18 C           4.0356   -1.7775   18.1205 C.ar    1  UNL1        0.1337
     19 O           4.9564   -2.6951   17.3721 O.3     1  UNL1       -0.5055
     20 C           3.5973   -0.4845   17.4992 C.ar    1  UNL1        0.0366
     21 C           2.6765    0.4331   18.2476 C.ar    1  UNL1        0.0031
     22 H           5.2302   -3.5028   17.7603 H       1  UNL1        0.2922
     23 C           0.6888    1.0577   27.8711 C.3     1  UNL1        0.1955
     24 C          -1.3759    0.0988   29.1230 C.3     1  UNL1        0.0901
     25 N          -0.1366    0.9438   29.1184 N.3     1  UNL1       -0.2599
     26 C           0.2773    1.6748   30.3610 C.3     1  UNL1        0.0901
@<TRIPOS>BOND
     1    24    25    1
     2    25    26    1
     3    25    23    1
     4    23     1    1
     5     1     2    1
     6     2     3    2
     7     3     4    1
     8     4     5    1
     9     5     6    1
    10     6     7   ar
    11     7     8   ar
    12     8     9   ar
    13     9    15    1
    14    15    16   ar
    15    16    17   ar
    16    17    18   ar
    17    18    19    1
    18    18    20   ar
    19    20    21   ar
    20     9    10   ar
    21    10    11   ar
    22     4    12    1
    23    12    13    2
    24    12    14    1
    25    14     1    2
    26    11     3    1
    27    11     6   ar
    28    21    15   ar
    29    19    22    1
@<TRIPOS>MOLECULE
*****
 26 29 0 0 0
SMALL
GASTEIGER

@<TRIPOS>ATOM
      1 C           2.8491   -1.0832   20.7223 C.2     1  UNL1        0.3610
      2 N           2.3320   -0.5406   22.0216 N.2     1  UNL1       -0.0419
      3 C           1.3065    0.5540   22.0222 C.2     1  UNL1        0.1922
      4 C           0.7980    1.1060   20.7234 C.3     1  UNL1        0.2225
      5 S          -0.2062    2.1756   21.0359 S.3     1  UNL1       -0.0944
      6 C          -0.3183    2.2846   22.5277 C.ar    1  UNL1        0.0294
      7 C          -1.1510    3.1670   23.4098 C.ar    1  UNL1        0.0063
      8 C          -1.0487    3.0471   24.9014 C.ar    1  UNL1        0.0005
      9 C          -0.1138    2.0449   25.5110 C.ar    1  UNL1        0.0001
     10 C           0.7188    1.1626   24.6289 C.ar    1  UNL1        0.0039
     11 C           0.6165    1.2824   23.1373 C.ar    1  UNL1        0.0459
     12 C           1.3151    0.5634   19.4241 C.2     1  UNL1        0.3698
     13 O           0.8067    1.1154   18.1253 O.2     1  UNL1       -0.2414
     14 N           2.3407   -0.5312   19.4235 N.am    1  UNL1        0.0305
     15 C          -0.0116    1.9251   27.0028 C.ar    1  UNL1        0.0002
     16 C          -0.6110    0.7418   27.7030 C.ar    1  UNL1        0.0031
     17 C          -0.5087    0.6220   29.1948 C.ar    1  UNL1        0.0366
     18 C           0.1929    1.6856   29.9862 C.ar    1  UNL1        0.1337
     19 O           0.2952    1.5659   31.4779 O.3     1  UNL1       -0.5055
     20 C           0.7923    2.8690   29.2859 C.ar    1  UNL1        0.0366
     21 C           0.6901    2.9888   27.7943 C.ar    1  UNL1        0.0031
     22 H          -0.0793    0.8266   31.9153 H       1  UNL1        0.2922
     23 C           3.8748   -2.1779   20.7218 C.3     1  UNL1        0.1955
     24 C           5.1702   -2.5453   18.4999 C.3     1  UNL1        0.0901
     25 N           4.1170   -2.9781   19.4764 N.3     1  UNL1       -0.2599
     26 C           3.3061   -4.2110   19.2075 C.3     1  UNL1        0.0901
@<TRIPOS>BOND
     1    24    25    1
     2    25    26    1
     3    25    23    1
     4    23     1    1
     5     1     2    1
     6     2     3    2
     7     3     4    1
     8     4     5    1
     9     5     6    1
    10     6     7   ar
    11     7     8   ar
    12     8     9   ar
    13     9    15    1
    14    15    16   ar
    15    16    17   ar
    16    17    18   ar
    17    18    19    1
    18    18    20   ar
    19    20    21   ar
    20     9    10   ar
    21    10    11   ar
    22     4    12    1
    23    12    13    2
    24    12    14    1
    25    14     1    2
    26    11     3    1
    27    11     6   ar
    28    21    15   ar
    29    19    22    1
@<TRIPOS>MOLECULE
*****
 26 29 0 0 0
SMALL
GASTEIGER

@<TRIPOS>ATOM
      1 C           6.2785   -2.1966   29.3160 C.2     1  UNL1        0.3610
      2 N           5.8084   -2.1983   27.8916 N.2     1  UNL1       -0.0419
      3 C           4.7698   -1.2132   27.4434 C.2     1  UNL1        0.1922
      4 C           4.2013   -0.2264   28.4197 C.3     1  UNL1        0.2225
      5 S           3.1972    0.6185   27.6931 S.3     1  UNL1       -0.0944
      6 C           3.1451    0.1539   26.2678 C.ar    1  UNL1        0.0294
      7 C           2.3382    0.6155   25.0906 C.ar    1  UNL1        0.0063
      8 C           2.5033   -0.0551   23.7590 C.ar    1  UNL1        0.0005
      9 C           3.4753   -1.1871   23.6047 C.ar    1  UNL1        0.0001
     10 C           4.2821   -1.6486   24.7819 C.ar    1  UNL1        0.0039
     11 C           4.1170   -0.9781   26.1135 C.ar    1  UNL1        0.0459
     12 C           4.6714   -0.2248   29.8441 C.2     1  UNL1        0.3698
     13 O           4.1029    0.7619   30.8204 O.2     1  UNL1       -0.2414
     14 N           5.7100   -1.2099   30.2923 N.am    1  UNL1        0.0305
     15 C           3.6403   -1.8576   22.2730 C.ar    1  UNL1        0.0002
     16 C           3.0299   -1.2484   21.0458 C.ar    1  UNL1        0.0031
     17 C           3.1950   -1.9189   19.7141 C.ar    1  UNL1        0.0366
     18 C           3.9704   -3.1986   19.6098 C.ar    1  UNL1        0.1337
     19 O           4.1355   -3.8691   18.2782 O.3     1  UNL1       -0.5055
     20 C           4.5808   -3.8079   20.8371 C.ar    1  UNL1        0.0366
     21 C           4.4158   -3.1374   22.1687 C.ar    1  UNL1        0.0031
     22 H           3.7542   -3.4886   17.5116 H       1  UNL1        0.2922
     23 C           7.3172   -3.1818   29.7641 C.3     1  UNL1        0.1955
     24 C           6.5925   -4.0568   32.1006 C.3     1  UNL1        0.0901
     25 N           6.9334   -4.3192   30.6636 N.3     1  UNL1       -0.2599
     26 C           6.8907   -5.7189   30.1262 C.3     1  UNL1        0.0901
@<TRIPOS>BOND
     1    24    25    1
     2    25    26    1
     3    25    23    1
     4    23     1    1
     5     1     2    1
     6     2     3    2
     7     3     4    1
     8     4     5    1
     9     5     6    1
    10     6     7   ar
    11     7     8   ar
    12     8     9   ar
    13     9    15    1
    14    15    16   ar
    15    16    17   ar
    16    17    18   ar
    17    18    19    1
    18    18    20   ar
    19    20    21   ar
    20     9    10   ar
    21    10    11   ar
    22     4    12    1
    23    12    13    2
    24    12    14    1
    25    14     1    2
    26    11     3    1
    27    11     6   ar
    28    21    15   ar
    29    19    22    1
@<TRIPOS>MOLECULE
*****
 26 29 0 0 0
SMALL
GASTEIGER

@<TRIPOS>ATOM
      1 C           5.8376   -2.2650   27.2902 C.2     1  UNL1        0.3610
      2 N           5.3548   -1.9705   25.9009 N.2     1  UNL1       -0.0419
      3 C           4.1883   -1.0511   25.6913 C.2     1  UNL1        0.1922
      4 C           3.5045   -0.4262   26.8711 C.3     1  UNL1        0.2225
      5 S           2.3877    0.4334   26.3576 S.3     1  UNL1       -0.0944
      6 C           2.3811    0.3397   24.8606 C.ar    1  UNL1        0.0294
      7 C           1.5056    0.9714   23.8192 C.ar    1  UNL1        0.0063
      8 C           1.7430    0.6855   22.3660 C.ar    1  UNL1        0.0005
      9 C           2.8559   -0.2320   21.9542 C.ar    1  UNL1        0.0001
     10 C           3.7314   -0.8637   22.9955 C.ar    1  UNL1        0.0039
     11 C           3.4940   -0.5778   24.4487 C.ar    1  UNL1        0.0459
     12 C           3.9873   -0.7206   28.2604 C.2     1  UNL1        0.3698
     13 O           3.3035   -0.0957   29.4402 O.2     1  UNL1       -0.2414
     14 N           5.1538   -1.6400   28.4700 N.am    1  UNL1        0.0305
     15 C           3.0933   -0.5179   20.5009 C.ar    1  UNL1        0.0002
     16 C           3.6444   -1.8474   20.0783 C.ar    1  UNL1        0.0031
     17 C           3.8818   -2.1333   18.6250 C.ar    1  UNL1        0.0366
     18 C           3.5680   -1.0896   17.5943 C.ar    1  UNL1        0.1337
     19 O           3.8053   -1.3754   16.1411 O.3     1  UNL1       -0.5055
     20 C           3.0168    0.2400   18.0170 C.ar    1  UNL1        0.0366
     21 C           2.7795    0.5258   19.4702 C.ar    1  UNL1        0.0031
     22 H           4.1496   -2.2059   15.8771 H       1  UNL1        0.2922
     23 C           7.0042   -3.1844   27.4998 C.3     1  UNL1        0.1955
     24 C           6.5424   -5.2809   28.9631 C.3     1  UNL1        0.0901
     25 N           6.7820   -4.6632   27.6174 N.3     1  UNL1       -0.2599
     26 C           6.7993   -5.5242   26.3893 C.3     1  UNL1        0.0901
@<TRIPOS>BOND
     1    24    25    1
     2    25    26    1
     3    25    23    1
     4    23     1    1
     5     1     2    1
     6     2     3    2
     7     3     4    1
     8     4     5    1
     9     5     6    1
    10     6     7   ar
    11     7     8   ar
    12     8     9   ar
    13     9    15    1
    14    15    16   ar
    15    16    17   ar
    16    17    18   ar
    17    18    19    1
    18    18    20   ar
    19    20    21   ar
    20     9    10   ar
    21    10    11   ar
    22     4    12    1
    23    12    13    2
    24    12    14    1
    25    14     1    2
    26    11     3    1
    27    11     6   ar
    28    21    15   ar
    29    19    22    1
@<TRIPOS>MOLECULE
*****
 26 29 0 0 0
SMALL
GASTEIGER

@<TRIPOS>ATOM
      1 C         -12.3049   -6.7713   17.9787 C.2     1  UNL1        0.3610
      2 N         -12.9987   -5.4795   18.2949 N.2     1  UNL1       -0.0419
      3 C         -14.4345   -5.4859   18.7289 C.2     1  UNL1        0.1922
      4 C         -15.1765   -6.7841   18.8468 C.3     1  UNL1        0.2225
      5 S         -16.5752   -6.4795   19.2951 S.3     1  UNL1       -0.0944
      6 C         -16.6975   -4.9930   19.4543 C.ar    1  UNL1        0.0294
      7 C         -17.8427   -4.1193   19.8728 C.ar    1  UNL1        0.0063
      8 C         -17.6649   -2.6315   19.9412 C.ar    1  UNL1        0.0005
      9 C         -16.3418   -2.0174   19.5913 C.ar    1  UNL1        0.0001
     10 C         -15.1966   -2.8911   19.1729 C.ar    1  UNL1        0.0039
     11 C         -15.3745   -4.3789   19.1044 C.ar    1  UNL1        0.0459
     12 C         -14.4828   -8.0760   18.5306 C.2     1  UNL1        0.3698
     13 O         -15.2248   -9.3742   18.6485 O.2     1  UNL1       -0.2414
     14 N         -13.0470   -8.0695   18.0966 N.am    1  UNL1        0.0305
     15 C         -16.1640   -0.5295   19.6598 C.ar    1  UNL1        0.0002
     16 C         -17.0731    0.2956   20.5217 C.ar    1  UNL1        0.0031
     17 C         -16.8953    1.7835   20.5902 C.ar    1  UNL1        0.0366
     18 C         -15.8084    2.4462   19.7968 C.ar    1  UNL1        0.1337
     19 O         -15.6305    3.9340   19.8652 O.3     1  UNL1       -0.5055
     20 C         -14.8993    1.6211   18.9349 C.ar    1  UNL1        0.0366
     21 C         -15.0771    0.1333   18.8664 C.ar    1  UNL1        0.0031
     22 H         -16.1984    4.4495   20.4036 H       1  UNL1        0.2922
     23 C         -10.8690   -6.7648   17.5447 C.3     1  UNL1        0.1955
     24 C          -9.5904   -4.6692   16.6942 C.3     1  UNL1        0.0901
     25 N         -10.0076   -5.5681   17.8202 N.3     1  UNL1       -0.2599
     26 C          -9.5635   -5.2704   19.2216 C.3     1  UNL1        0.0901
@<TRIPOS>BOND
     1    24    25    1
     2    25    26    1
     3    25    23    1
     4    23     1    1
     5     1     2    1
     6     2     3    2
     7     3     4    1
     8     4     5    1
     9     5     6    1
    10     6     7   ar
    11     7     8   ar
    12     8     9   ar
    13     9    15    1
    14    15    16   ar
    15    16    17   ar
    16    17    18   ar
    17    18    19    1
    18    18    20   ar
    19    20    21   ar
    20     9    10   ar
    21    10    11   ar
    22     4    12    1
    23    12    13    2
    24    12    14    1
    25    14     1    2
    26    11     3    1
    27    11     6   ar
    28    21    15   ar
    29    19    22    1
@<TRIPOS>MOLECULE
*****
 26 29 0 0 0
SMALL
GASTEIGER

@<TRIPOS>ATOM
      1 C           1.2142    1.3170   19.1818 C.2     1  UNL1        0.3610
      2 N           1.0840    1.2357   20.6739 N.2     1  UNL1       -0.0419
      3 C           0.1416    2.1528   21.3956 C.2     1  UNL1        0.1922
      4 C          -0.6706    3.1511   20.6251 C.3     1  UNL1        0.2225
      5 S          -1.5106    3.9185   21.6026 S.3     1  UNL1       -0.0944
      6 C          -1.2176    3.3945   22.9772 C.ar    1  UNL1        0.0294
      7 C          -1.7486    3.7700   24.3288 C.ar    1  UNL1        0.0063
      8 C          -1.2585    3.0543   25.5525 C.ar    1  UNL1        0.0005
      9 C          -0.2374    1.9629   25.4245 C.ar    1  UNL1        0.0001
     10 C           0.2936    1.5874   24.0729 C.ar    1  UNL1        0.0039
     11 C          -0.1965    2.3032   22.8492 C.ar    1  UNL1        0.0459
     12 C          -0.5404    3.2324   19.1329 C.2     1  UNL1        0.3698
     13 O          -1.3525    4.2308   18.3625 O.2     1  UNL1       -0.2414
     14 N           0.4021    2.3154   18.4113 N.am    1  UNL1        0.0305
     15 C           0.2527    1.2471   26.6483 C.ar    1  UNL1        0.0002
     16 C           1.7226    1.0275   26.8505 C.ar    1  UNL1        0.0031
     17 C           2.2127    0.3117   28.0743 C.ar    1  UNL1        0.0366
     18 C           1.2327   -0.1844   29.0958 C.ar    1  UNL1        0.1337
     19 O           1.7227   -0.9002   30.3195 O.3     1  UNL1       -0.5055
     20 C          -0.2373    0.0352   28.8936 C.ar    1  UNL1        0.0366
     21 C          -0.7273    0.7510   27.6698 C.ar    1  UNL1        0.0031
     22 H           2.6410   -1.0374   30.4459 H       1  UNL1        0.2922
     23 C           2.1567    0.3999   18.4601 C.3     1  UNL1        0.1955
     24 C           4.5784    0.5905   19.3816 C.3     1  UNL1        0.0901
     25 N           3.3207   -0.2038   19.1886 N.3     1  UNL1       -0.2599
     26 C           3.2270   -1.6018   19.7240 C.3     1  UNL1        0.0901
@<TRIPOS>BOND
     1    24    25    1
     2    25    26    1
     3    25    23    1
     4    23     1    1
     5     1     2    1
     6     2     3    2
     7     3     4    1
     8     4     5    1
     9     5     6    1
    10     6     7   ar
    11     7     8   ar
    12     8     9   ar
    13     9    15    1
    14    15    16   ar
    15    16    17   ar
    16    17    18   ar
    17    18    19    1
    18    18    20   ar
    19    20    21   ar
    20     9    10   ar
    21    10    11   ar
    22     4    12    1
    23    12    13    2
    24    12    14    1
    25    14     1    2
    26    11     3    1
    27    11     6   ar
    28    21    15   ar
    29    19    22    1
@<TRIPOS>MOLECULE
*****
 26 29 0 0 0
SMALL
GASTEIGER

@<TRIPOS>ATOM
      1 C           5.1919   -2.8894   19.5572 C.2     1  UNL1        0.3610
      2 N           4.4360   -2.1557   20.6251 N.2     1  UNL1       -0.0419
      3 C           3.4883   -1.0548   20.2514 C.2     1  UNL1        0.1922
      4 C           3.2965   -0.6875   18.8098 C.3     1  UNL1        0.2225
      5 S           2.3018    0.4334   18.7454 S.3     1  UNL1       -0.0944
      6 C           1.8788    0.7589   20.1473 C.ar    1  UNL1        0.0294
      7 C           0.9207    1.7739   20.6965 C.ar    1  UNL1        0.0063
      8 C           0.6959    1.8692   22.1765 C.ar    1  UNL1        0.0005
      9 C           1.4293    0.9494   23.1072 C.ar    1  UNL1        0.0001
     10 C           2.3874   -0.0656   22.5580 C.ar    1  UNL1        0.0039
     11 C           2.6122   -0.1609   21.0780 C.ar    1  UNL1        0.0459
     12 C           4.0523   -1.4212   17.7419 C.2     1  UNL1        0.3698
     13 O           3.8605   -1.0539   16.3002 O.2     1  UNL1       -0.2414
     14 N           5.0000   -2.5222   18.1156 N.am    1  UNL1        0.0305
     15 C           1.2045    1.0447   24.5873 C.ar    1  UNL1        0.0002
     16 C          -0.1531    1.3981   25.1185 C.ar    1  UNL1        0.0031
     17 C          -0.3779    1.4935   26.5985 C.ar    1  UNL1        0.0366
     18 C           0.7549    1.2354   27.5473 C.ar    1  UNL1        0.1337
     19 O           0.5301    1.3307   29.0273 O.3     1  UNL1       -0.5055
     20 C           2.1125    0.8819   27.0161 C.ar    1  UNL1        0.0366
     21 C           2.3372    0.7866   25.5361 C.ar    1  UNL1        0.0031
     22 H          -0.3179    1.5514   29.3591 H       1  UNL1        0.2922
     23 C           6.1396   -3.9905   19.9310 C.3     1  UNL1        0.1955
     24 C           7.6111   -4.1132   22.0687 C.3     1  UNL1        0.0901
     25 N           7.4167   -3.6692   20.6492 N.3     1  UNL1       -0.2599
     26 C           8.4994   -2.9038   19.9479 C.3     1  UNL1        0.0901
@<TRIPOS>BOND
     1    24    25    1
     2    25    26    1
     3    25    23    1
     4    23     1    1
     5     1     2    1
     6     2     3    2
     7     3     4    1
     8     4     5    1
     9     5     6    1
    10     6     7   ar
    11     7     8   ar
    12     8     9   ar
    13     9    15    1
    14    15    16   ar
    15    16    17   ar
    16    17    18   ar
    17    18    19    1
    18    18    20   ar
    19    20    21   ar
    20     9    10   ar
    21    10    11   ar
    22     4    12    1
    23    12    13    2
    24    12    14    1
    25    14     1    2
    26    11     3    1
    27    11     6   ar
    28    21    15   ar
    29    19    22    1
