@<TRIPOS>MOLECULE
*****
 22 24 0 0 0
SMALL
GASTEIGER

@<TRIPOS>ATOM
      1 C          -8.5399  -19.0570   21.6849 C.2     1  UNL1        0.1724
      2 O          -9.3621  -19.2901   20.4523 O.2     1  UNL1       -0.2916
      3 C          -7.0443  -19.1515   21.6179 C.2     1  UNL1        0.0193
      4 C          -6.3949  -20.0839   20.6388 C.2     1  UNL1        0.0301
      5 C          -4.8993  -20.1783   20.5718 C.2     1  UNL1        0.1571
      6 F          -4.2498  -21.1108   19.5926 F       1  UNL1       -0.2026
      7 C          -4.0533  -19.3403   21.4839 C.2     1  UNL1        0.1050
      8 N          -2.5669  -19.2202   21.6454 N.2     1  UNL1       -0.2419
      9 C          -2.2977  -18.2135   22.7243 C.2     1  UNL1        0.0986
     10 C          -3.6178  -17.7115   23.2297 C.2     1  UNL1        0.0183
     11 C          -4.7028  -18.4079   22.4630 C.2     1  UNL1        0.0037
     12 C          -6.1983  -18.3135   22.5300 C.3     1  UNL1        0.0572
     13 C          -9.2131  -18.7294   22.9847 C.3     1  UNL1        0.0982
     14 C          -9.9051  -18.1129   24.1642 C.3     1  UNL1        0.0281
     15 C         -10.1022  -19.1825   25.1971 C.3     1  UNL1        0.0691
     16 N          -9.5319  -20.4601   24.6561 N.3     1  UNL1       -0.2970
     17 C          -8.9825  -20.1801   23.2888 C.3     1  UNL1        0.0783
     18 H         -10.2639  -21.1680   24.5967 H       1  UNL1        0.1233
     19 C          -9.3030  -17.3473   22.4089 C.3     1  UNL1        0.1506
     20 O         -10.5830  -16.5724   22.5150 O.3     1  UNL1       -0.3533
     21 C         -12.6447  -17.7021   21.4091 C.3     1  UNL1        0.0346
     22 C         -11.5913  -16.6343   21.4062 C.3     1  UNL1        0.1423
@<TRIPOS>BOND
     1    21    22    1
     2    22    20    1
     3    20    19    1
     4    19    13    1
     5    13     1    1
     6     1     2    2
     7     1     3    1
     8     3     4    2
     9     4     5    1
    10     5     6    1
    11     5     7    2
    12     7     8    1
    13     8     9    2
    14     9    10    1
    15    10    11    2
    16    11    12    1
    17    13    14    1
    18    14    15    1
    19    15    16    1
    20    16    17    1
    21    17    13    1
    22    12     3    1
    23    11     7    1
    24    16    18    1
@<TRIPOS>MOLECULE
*****
 22 24 0 0 0
SMALL
GASTEIGER

@<TRIPOS>ATOM
      1 C          -8.5122  -17.5476   22.1133 C.2     1  UNL1        0.1724
      2 O          -9.6098  -17.3730   21.1061 O.2     1  UNL1       -0.2916
      3 C          -7.2917  -18.3457   21.7618 C.2     1  UNL1        0.0193
      4 C          -7.4089  -19.5362   20.8569 C.2     1  UNL1        0.0301
      5 C          -6.1883  -20.3342   20.5055 C.2     1  UNL1        0.1571
      6 F          -6.3056  -21.5248   19.6005 F       1  UNL1       -0.2026
      7 C          -4.8506  -19.9417   21.0590 C.2     1  UNL1        0.1050
      8 N          -3.4821  -20.5323   20.8903 N.2     1  UNL1       -0.2419
      9 C          -2.5192  -19.7067   21.6910 C.2     1  UNL1        0.0986
     10 C          -3.2925  -18.6059   22.3545 C.2     1  UNL1        0.0183
     11 C          -4.7334  -18.7512   21.9639 C.2     1  UNL1        0.0037
     12 C          -5.9540  -17.9532   22.3153 C.3     1  UNL1        0.0572
     13 C          -8.6350  -16.9242   23.4720 C.3     1  UNL1        0.0982
     14 C          -8.8877  -16.5752   24.9089 C.3     1  UNL1        0.0281
     15 C          -8.3965  -15.1769   25.1396 C.3     1  UNL1        0.0691
     16 N          -7.8401  -14.6617   23.8454 N.3     1  UNL1       -0.2970
     17 C          -7.9875  -15.7415   22.8148 C.3     1  UNL1        0.0783
     18 H          -6.8545  -14.4263   23.9616 H       1  UNL1        0.1233
     19 C          -9.2568  -18.2372   23.8453 C.3     1  UNL1        0.1506
     20 O         -10.5809  -18.2668   24.5494 O.3     1  UNL1       -0.3533
     21 C         -12.6274  -17.6227   23.0842 C.3     1  UNL1        0.0346
     22 C         -11.8194  -18.6631   23.8016 C.3     1  UNL1        0.1423
@<TRIPOS>BOND
     1    21    22    1
     2    22    20    1
     3    20    19    1
     4    19    13    1
     5    13     1    1
     6     1     2    2
     7     1     3    1
     8     3     4    2
     9     4     5    1
    10     5     6    1
    11     5     7    2
    12     7     8    1
    13     8     9    2
    14     9    10    1
    15    10    11    2
    16    11    12    1
    17    13    14    1
    18    14    15    1
    19    15    16    1
    20    16    17    1
    21    17    13    1
    22    12     3    1
    23    11     7    1
    24    16    18    1
@<TRIPOS>MOLECULE
*****
 22 24 0 0 0
SMALL
GASTEIGER

@<TRIPOS>ATOM
      1 C          -9.7060  -16.2486   22.1066 C.2     1  UNL1        0.1724
      2 O          -9.6588  -15.5015   20.8069 O.2     1  UNL1       -0.2916
      3 C          -8.6896  -15.9643   23.1726 C.2     1  UNL1        0.0193
      4 C          -7.2672  -15.6748   22.7945 C.2     1  UNL1        0.0301
      5 C          -6.2508  -15.3905   23.8605 C.2     1  UNL1        0.1571
      6 F          -4.8284  -15.1010   23.4823 F       1  UNL1       -0.2026
      7 C          -6.6569  -15.3956   25.3044 C.2     1  UNL1        0.1050
      8 N          -5.8822  -15.1529   26.5657 N.2     1  UNL1       -0.2419
      9 C          -6.8259  -15.2924   27.7233 C.2     1  UNL1        0.0986
     10 C          -8.1838  -15.6213   27.1774 C.2     1  UNL1        0.0183
     11 C          -8.0793  -15.6851   25.6825 C.2     1  UNL1        0.0037
     12 C          -9.0957  -15.9694   24.6165 C.3     1  UNL1        0.0572
     13 C         -10.7696  -17.2801   22.3406 C.3     1  UNL1        0.0982
     14 C         -11.5978  -18.5153   22.5368 C.3     1  UNL1        0.0281
     15 C         -13.0133  -18.0888   22.7901 C.3     1  UNL1        0.0691
     16 N         -13.0600  -16.5901   22.7504 N.3     1  UNL1       -0.2970
     17 C         -11.6733  -16.0903   22.4727 C.3     1  UNL1        0.0783
     18 H         -13.3844  -16.2301   23.6479 H       1  UNL1        0.1233
     19 C          -9.6434  -18.2544   22.1597 C.3     1  UNL1        0.1506
     20 O          -9.0822  -18.5063   20.7916 O.3     1  UNL1       -0.3533
     21 C          -6.9774  -19.6041   21.8476 C.3     1  UNL1        0.0346
     22 C          -7.7160  -19.1069   20.6404 C.3     1  UNL1        0.1423
@<TRIPOS>BOND
     1    21    22    1
     2    22    20    1
     3    20    19    1
     4    19    13    1
     5    13     1    1
     6     1     2    2
     7     1     3    1
     8     3     4    2
     9     4     5    1
    10     5     6    1
    11     5     7    2
    12     7     8    1
    13     8     9    2
    14     9    10    1
    15    10    11    2
    16    11    12    1
    17    13    14    1
    18    14    15    1
    19    15    16    1
    20    16    17    1
    21    17    13    1
    22    12     3    1
    23    11     7    1
    24    16    18    1
@<TRIPOS>MOLECULE
*****
 22 24 0 0 0
SMALL
GASTEIGER

@<TRIPOS>ATOM
      1 C          -7.8994  -19.0280   20.9592 C.2     1  UNL1        0.1724
      2 O          -8.1523  -19.0778   19.4816 O.2     1  UNL1       -0.2916
      3 C          -9.0532  -19.0155   21.9177 C.2     1  UNL1        0.0193
      4 C          -8.9867  -19.8196   23.1821 C.2     1  UNL1        0.0301
      5 C         -10.1406  -19.8071   24.1405 C.2     1  UNL1        0.1571
      6 F         -10.0741  -20.6113   25.4050 F       1  UNL1       -0.2026
      7 C         -11.3609  -18.9902   23.8345 C.2     1  UNL1        0.1050
      8 N         -12.6439  -18.7834   24.5834 N.2     1  UNL1       -0.2419
      9 C         -13.5034  -17.8513   23.7818 C.2     1  UNL1        0.0986
     10 C         -12.7515  -17.4821   22.5375 C.2     1  UNL1        0.0183
     11 C         -11.4273  -18.1860   22.5700 C.2     1  UNL1        0.0037
     12 C         -10.2735  -18.1987   21.6116 C.3     1  UNL1        0.0572
     13 C          -6.4926  -18.9909   21.4786 C.3     1  UNL1        0.0982
     14 C          -5.1968  -18.7303   22.1879 C.3     1  UNL1        0.0281
     15 C          -4.1593  -19.6458   21.6089 C.3     1  UNL1        0.0691
     16 N          -4.8138  -20.4722   20.5418 N.3     1  UNL1       -0.2970
     17 C          -6.2558  -20.0674   20.4612 C.3     1  UNL1        0.0783
     18 H          -4.7447  -21.4617   20.7793 H       1  UNL1        0.1233
     19 C          -7.0235  -17.9221   22.3873 C.3     1  UNL1        0.1506
     20 O          -6.0928  -16.8954   22.9616 O.3     1  UNL1       -0.3533
     21 C          -8.0836  -15.7655   24.1903 C.3     1  UNL1        0.0346
     22 C          -6.6360  -15.7746   23.7974 C.3     1  UNL1        0.1423
@<TRIPOS>BOND
     1    21    22    1
     2    22    20    1
     3    20    19    1
     4    19    13    1
     5    13     1    1
     6     1     2    2
     7     1     3    1
     8     3     4    2
     9     4     5    1
    10     5     6    1
    11     5     7    2
    12     7     8    1
    13     8     9    2
    14     9    10    1
    15    10    11    2
    16    11    12    1
    17    13    14    1
    18    14    15    1
    19    15    16    1
    20    16    17    1
    21    17    13    1
    22    12     3    1
    23    11     7    1
    24    16    18    1
@<TRIPOS>MOLECULE
*****
 22 24 0 0 0
SMALL
GASTEIGER

@<TRIPOS>ATOM
      1 C          -8.5179  -17.8544   22.2078 C.2     1  UNL1        0.1724
      2 O          -9.1416  -16.8739   21.2596 O.2     1  UNL1       -0.2916
      3 C          -7.2213  -18.5200   21.8532 C.2     1  UNL1        0.0193
      4 C          -7.2073  -19.6701   20.8904 C.2     1  UNL1        0.0301
      5 C          -5.9106  -20.3357   20.5358 C.2     1  UNL1        0.1571
      6 F          -5.8967  -21.4858   19.5729 F       1  UNL1       -0.2026
      7 C          -4.6279  -19.8510   21.1439 C.2     1  UNL1        0.1050
      8 N          -3.2073  -20.3058   20.9856 N.2     1  UNL1       -0.2419
      9 C          -2.3434  -19.4367   21.8506 C.2     1  UNL1        0.0986
     10 C          -3.2300  -18.4448   22.5435 C.2     1  UNL1        0.0183
     11 C          -4.6420  -18.7009   22.1067 C.2     1  UNL1        0.0037
     12 C          -5.9386  -18.0354   22.4614 C.3     1  UNL1        0.0572
     13 C          -9.1908  -18.1696   23.5109 C.3     1  UNL1        0.0982
     14 C          -9.8634  -18.1735   24.8517 C.3     1  UNL1        0.0281
     15 C         -10.1402  -19.5990   25.2272 C.3     1  UNL1        0.0691
     16 N          -9.6389  -20.4762   24.1186 N.3     1  UNL1       -0.2970
     17 C          -9.0521  -19.5928   23.0578 C.3     1  UNL1        0.0783
     18 H         -10.4107  -21.0180   23.7299 H       1  UNL1        0.1233
     19 C          -9.1889  -16.6805   23.6916 C.3     1  UNL1        0.1506
     20 O          -8.3737  -16.0589   24.7866 O.3     1  UNL1       -0.3533
     21 C          -5.8781  -15.4029   25.0887 C.3     1  UNL1        0.0346
     22 C          -7.2136  -15.1711   24.4464 C.3     1  UNL1        0.1423
@<TRIPOS>BOND
     1    21    22    1
     2    22    20    1
     3    20    19    1
     4    19    13    1
     5    13     1    1
     6     1     2    2
     7     1     3    1
     8     3     4    2
     9     4     5    1
    10     5     6    1
    11     5     7    2
    12     7     8    1
    13     8     9    2
    14     9    10    1
    15    10    11    2
    16    11    12    1
    17    13    14    1
    18    14    15    1
    19    15    16    1
    20    16    17    1
    21    17    13    1
    22    12     3    1
    23    11     7    1
    24    16    18    1
@<TRIPOS>MOLECULE
*****
 22 24 0 0 0
SMALL
GASTEIGER

@<TRIPOS>ATOM
      1 C          -9.8511  -16.4208   21.8033 C.2     1  UNL1        0.1724
      2 O         -10.1532  -15.3416   20.8064 O.2     1  UNL1       -0.2916
      3 C          -8.8880  -16.1592   22.9232 C.2     1  UNL1        0.0193
      4 C          -7.5201  -15.6205   22.6256 C.2     1  UNL1        0.0301
      5 C          -6.5570  -15.3588   23.7455 C.2     1  UNL1        0.1571
      6 F          -5.1891  -14.8201   23.4478 F       1  UNL1       -0.2026
      7 C          -6.9620  -15.6359   25.1630 C.2     1  UNL1        0.1050
      8 N          -6.2328  -15.4779   26.4642 N.2     1  UNL1       -0.2419
      9 C          -7.1501  -15.9190   27.5660 C.2     1  UNL1        0.0986
     10 C          -8.4462  -16.3496   26.9457 C.2     1  UNL1        0.0183
     11 C          -8.3299  -16.1746   25.4605 C.2     1  UNL1        0.0037
     12 C          -9.2929  -16.4363   24.3406 C.3     1  UNL1        0.0572
     13 C         -10.5119  -17.7618   21.6804 C.3     1  UNL1        0.0982
     14 C         -11.4228  -18.9536   21.6740 C.3     1  UNL1        0.0281
     15 C         -10.6517  -20.1234   21.1384 C.3     1  UNL1        0.0691
     16 N          -9.2643  -19.6546   20.8137 N.3     1  UNL1       -0.2970
     17 C          -9.1779  -18.1951   21.1487 C.3     1  UNL1        0.0783
     18 H          -9.0754  -19.7937   19.8211 H       1  UNL1        0.1233
     19 C         -11.7078  -17.0482   22.2378 C.3     1  UNL1        0.1506
     20 O         -13.0185  -17.7665   22.3636 O.3     1  UNL1       -0.3533
     21 C         -13.0892  -18.5684   24.8339 C.3     1  UNL1        0.0346
     22 C         -13.7161  -17.8275   23.6902 C.3     1  UNL1        0.1423
@<TRIPOS>BOND
     1    21    22    1
     2    22    20    1
     3    20    19    1
     4    19    13    1
     5    13     1    1
     6     1     2    2
     7     1     3    1
     8     3     4    2
     9     4     5    1
    10     5     6    1
    11     5     7    2
    12     7     8    1
    13     8     9    2
    14     9    10    1
    15    10    11    2
    16    11    12    1
    17    13    14    1
    18    14    15    1
    19    15    16    1
    20    16    17    1
    21    17    13    1
    22    12     3    1
    23    11     7    1
    24    16    18    1
@<TRIPOS>MOLECULE
*****
 22 24 0 0 0
SMALL
GASTEIGER

@<TRIPOS>ATOM
      1 C          -6.5732  -18.0391   22.3550 C.2     1  UNL1        0.1724
      2 O          -5.7917  -16.9599   23.0436 O.2     1  UNL1       -0.2916
      3 C          -8.0414  -18.1897   22.6236 C.2     1  UNL1        0.0193
      4 C          -8.5748  -19.4793   23.1733 C.2     1  UNL1        0.0301
      5 C         -10.0429  -19.6299   23.4419 C.2     1  UNL1        0.1571
      6 F         -10.5764  -20.9196   23.9916 F       1  UNL1       -0.2026
      7 C         -10.9775  -18.4908   23.1607 C.2     1  UNL1        0.1050
      8 N         -12.4616  -18.3466   23.3237 N.2     1  UNL1       -0.2419
      9 C         -12.8453  -16.9678   22.8747 C.2     1  UNL1        0.0986
     10 C         -11.5984  -16.2599   22.4342 C.2     1  UNL1        0.0183
     11 C         -10.4440  -17.2012   22.6110 C.2     1  UNL1        0.0037
     12 C          -8.9759  -17.0506   22.3424 C.3     1  UNL1        0.0572
     13 C          -5.8869  -18.9678   21.3977 C.3     1  UNL1        0.0982
     14 C          -5.4643  -19.8668   20.2737 C.3     1  UNL1        0.0281
     15 C          -4.0844  -20.3706   20.5769 C.3     1  UNL1        0.0691
     16 N          -3.6541  -19.7831   21.8882 N.3     1  UNL1       -0.2970
     17 C          -4.7681  -18.9161   22.3956 C.3     1  UNL1        0.0783
     18 H          -2.8119  -19.2229   21.7568 H       1  UNL1        0.1233
     19 C          -7.1492  -18.8254   20.6000 C.3     1  UNL1        0.1506
     20 O          -7.6266  -19.9598   19.7426 O.3     1  UNL1       -0.3533
     21 C         -10.1858  -19.5212   19.6519 C.3     1  UNL1        0.0346
     22 C          -8.8935  -19.8205   18.9516 C.3     1  UNL1        0.1423
@<TRIPOS>BOND
     1    21    22    1
     2    22    20    1
     3    20    19    1
     4    19    13    1
     5    13     1    1
     6     1     2    2
     7     1     3    1
     8     3     4    2
     9     4     5    1
    10     5     6    1
    11     5     7    2
    12     7     8    1
    13     8     9    2
    14     9    10    1
    15    10    11    2
    16    11    12    1
    17    13    14    1
    18    14    15    1
    19    15    16    1
    20    16    17    1
    21    17    13    1
    22    12     3    1
    23    11     7    1
    24    16    18    1
@<TRIPOS>MOLECULE
*****
 22 24 0 0 0
SMALL
GASTEIGER

@<TRIPOS>ATOM
      1 C          -9.9435  -16.4276   21.7318 C.2     1  UNL1        0.1724
      2 O         -10.0958  -15.2330   20.8377 O.2     1  UNL1       -0.2916
      3 C          -9.1238  -16.3276   22.9841 C.2     1  UNL1        0.0193
      4 C          -9.6423  -16.9043   24.2680 C.2     1  UNL1        0.0301
      5 C          -8.8226  -16.8043   25.5202 C.2     1  UNL1        0.1571
      6 F          -9.3412  -17.3811   26.8042 F       1  UNL1       -0.2026
      7 C          -7.4844  -16.1274   25.4885 C.2     1  UNL1        0.1050
      8 N          -6.4597  -15.8791   26.5554 N.2     1  UNL1       -0.2419
      9 C          -5.3079  -15.1489   25.9309 C.2     1  UNL1        0.0986
     10 C          -5.6207  -14.9459   24.4780 C.2     1  UNL1        0.0183
     11 C          -6.9659  -15.5507   24.2045 C.2     1  UNL1        0.0037
     12 C          -7.7856  -15.6508   22.9523 C.3     1  UNL1        0.0572
     13 C         -10.6109  -17.7224   21.3738 C.3     1  UNL1        0.0982
     14 C         -11.5380  -18.8732   21.1161 C.3     1  UNL1        0.0281
     15 C         -10.7288  -20.0029   20.5516 C.3     1  UNL1        0.0691
     16 N          -9.3016  -19.5505   20.4605 N.3     1  UNL1       -0.2970
     17 C          -9.2287  -18.1411   20.9686 C.3     1  UNL1        0.0783
     18 H          -8.9888  -19.5853   19.4902 H       1  UNL1        0.1233
     19 C         -11.8536  -17.0331   21.8538 C.3     1  UNL1        0.1506
     20 O         -12.9797  -17.8358   22.4348 O.3     1  UNL1       -0.3533
     21 C         -14.5214  -18.3117   24.4711 C.3     1  UNL1        0.0346
     22 C         -13.2083  -17.8437   23.9172 C.3     1  UNL1        0.1423
@<TRIPOS>BOND
     1    21    22    1
     2    22    20    1
     3    20    19    1
     4    19    13    1
     5    13     1    1
     6     1     2    2
     7     1     3    1
     8     3     4    2
     9     4     5    1
    10     5     6    1
    11     5     7    2
    12     7     8    1
    13     8     9    2
    14     9    10    1
    15    10    11    2
    16    11    12    1
    17    13    14    1
    18    14    15    1
    19    15    16    1
    20    16    17    1
    21    17    13    1
    22    12     3    1
    23    11     7    1
    24    16    18    1
@<TRIPOS>MOLECULE
*****
 22 24 0 0 0
SMALL
GASTEIGER

@<TRIPOS>ATOM
      1 C          -9.4116  -16.6905   22.2050 C.2     1  UNL1        0.1724
      2 O          -9.7723  -15.5684   21.2774 O.2     1  UNL1       -0.2916
      3 C          -7.9718  -16.9707   22.5190 C.2     1  UNL1        0.0193
      4 C          -7.1943  -16.0229   23.3832 C.2     1  UNL1        0.0301
      5 C          -5.7545  -16.3031   23.6971 C.2     1  UNL1        0.1571
      6 F          -4.9770  -15.3551   24.5614 F       1  UNL1       -0.2026
      7 C          -5.0923  -17.5313   23.1467 C.2     1  UNL1        0.1050
      8 N          -3.6978  -18.0667   23.2839 N.2     1  UNL1       -0.2419
      9 C          -3.6135  -19.3455   22.5045 C.2     1  UNL1        0.0986
     10 C          -4.9558  -19.6005   21.8855 C.2     1  UNL1        0.0183
     11 C          -5.8698  -18.4792   22.2824 C.2     1  UNL1        0.0037
     12 C          -7.3095  -18.1989   21.9686 C.3     1  UNL1        0.0572
     13 C         -10.4906  -17.5325   22.8189 C.3     1  UNL1        0.0982
     14 C         -11.7149  -18.3300   23.1584 C.3     1  UNL1        0.0281
     15 C         -11.5511  -18.8598   24.5521 C.3     1  UNL1        0.0691
     16 N         -10.2256  -18.3899   25.0738 N.3     1  UNL1       -0.2970
     17 C          -9.5702  -17.5696   24.0027 C.3     1  UNL1        0.0783
     18 H          -9.6393  -19.1927   25.3025 H       1  UNL1        0.1233
     19 C         -11.1855  -17.3194   21.5067 C.3     1  UNL1        0.1506
     20 O         -11.5253  -18.4944   20.6385 O.3     1  UNL1       -0.3533
     21 C          -9.5253  -19.7736   19.5831 C.3     1  UNL1        0.0346
     22 C         -10.6734  -18.8178   19.4470 C.3     1  UNL1        0.1423
@<TRIPOS>BOND
     1    21    22    1
     2    22    20    1
     3    20    19    1
     4    19    13    1
     5    13     1    1
     6     1     2    2
     7     1     3    1
     8     3     4    2
     9     4     5    1
    10     5     6    1
    11     5     7    2
    12     7     8    1
    13     8     9    2
    14     9    10    1
    15    10    11    2
    16    11    12    1
    17    13    14    1
    18    14    15    1
    19    15    16    1
    20    16    17    1
    21    17    13    1
    22    12     3    1
    23    11     7    1
    24    16    18    1
