@<TRIPOS>MOLECULE
*****
 40 44 0 0 0
SMALL
GASTEIGER

@<TRIPOS>ATOM
      1 C           1.9445    0.8482   19.2561 C.ar    1  UNL1        0.0830
      2 C           1.8557   -0.5720   19.7306 C.ar    1  UNL1        0.0222
      3 C           3.2019   -1.2073   19.5464 C.ar    1  UNL1        0.0393
      4 C           4.1228   -0.1798   18.9580 C.ar    1  UNL1        0.1153
      5 C           5.5686   -0.2369   18.5624 C.ar    1  UNL1        0.1451
      6 N           6.3457   -1.5073   18.7419 N.pl3   1  UNL1       -0.3414
      7 N           6.2372    0.9764   17.9874 N.ar    1  UNL1       -0.2065
      8 C           5.4601    2.2468   17.8080 C.ar    1  UNL1        0.2211
      9 N           4.0143    2.3039   18.2036 N.ar    1  UNL1       -0.1422
     10 N           3.3457    1.0905   18.7786 N.ar    1  UNL1       -0.2254
     11 H           5.9068   -2.3037   19.1193 H       1  UNL1        0.1438
     12 H           7.2946   -1.5447   18.4822 H       1  UNL1        0.1438
     13 C          -1.1060    3.0605   20.5010 C.ar    1  UNL1        0.0540
     14 C          -1.4044    3.8540   19.2635 C.ar    1  UNL1        0.0149
     15 C          -0.5864    3.6456   18.0236 C.ar    1  UNL1        0.0013
     16 C           0.5299    2.6437   18.0211 C.ar    1  UNL1        0.0016
     17 C           0.8282    1.8501   19.2586 C.ar    1  UNL1        0.0189
     18 C           0.0103    2.0585   20.4984 C.ar    1  UNL1        0.0164
     19 C          -3.7003    4.0349   26.7914 C.3     1  UNL1        0.0948
     20 C          -4.3781    3.8940   25.4607 C.2     1  UNL1        0.2264
     21 O          -5.8738    3.9616   25.3700 O.2     1  UNL1       -0.2748
     22 N          -3.5601    3.6856   24.2208 N.am    1  UNL1       -0.2730
     23 C          -2.0644    3.6181   24.3116 C.3     1  UNL1        0.1156
     24 C          -1.2464    3.4097   23.0716 C.3     1  UNL1        0.1197
     25 N          -1.9240    3.2689   21.7409 N.am    1  UNL1       -0.2556
     26 C          -3.4198    3.3364   21.6501 C.2     1  UNL1        0.2454
     27 O          -4.0975    3.1956   20.3194 O.2     1  UNL1       -0.2728
     28 C          -4.2377    3.5448   22.8901 C.3     1  UNL1        0.1294
     29 C          -5.3315    3.4670   21.8665 C.3     1  UNL1        0.0293
     30 C          -5.4356    3.7262   23.7745 C.3     1  UNL1        0.0293
     31 C           3.5638   -2.6219   19.8902 C.ar    1  UNL1        0.0813
     32 C           3.1808   -3.8444   19.1102 C.ar    1  UNL1        0.0412
     33 C           3.7525   -5.0404   19.8123 C.ar    1  UNL1        0.1217
     34 N           4.4888   -4.5568   21.0264 N.ar    1  UNL1       -0.1674
     35 N           4.3722   -3.0621   21.0746 N.ar    1  UNL1       -0.2420
     36 C           4.9607   -2.1652   22.1231 C.3     1  UNL1        0.2301
     37 C           4.3042   -2.0510   23.4669 C.3     1  UNL1        0.4200
     38 F           3.6477   -1.9367   24.8107 F       1  UNL1       -0.1679
     39 F           3.2801   -1.1206   22.8875 F       1  UNL1       -0.1679
     40 F           5.3283   -2.9813   24.0463 F       1  UNL1       -0.1679
@<TRIPOS>BOND
     1    19    20    1
     2    20    21    2
     3    20    22   am
     4    22    23    1
     5    23    24    1
     6    24    25    1
     7    25    13    1
     8    13    14   ar
     9    14    15   ar
    10    15    16   ar
    11    16    17   ar
    12    17     1    1
    13     1     2   ar
    14     2     3   ar
    15     3    31    1
    16    31    32   ar
    17    32    33   ar
    18    33    34   ar
    19    34    35   ar
    20    35    36    1
    21    36    37    1
    22    37    38    1
    23    37    39    1
    24    37    40    1
    25     3     4   ar
    26     4     5   ar
    27     5     6    1
    28     5     7   ar
    29     7     8   ar
    30     8     9   ar
    31     9    10   ar
    32    17    18   ar
    33    25    26   am
    34    26    27    2
    35    26    28    1
    36    28    29    1
    37    28    30    1
    38    28    22    1
    39    18    13   ar
    40    10     1   ar
    41    35    31   ar
    42    10     4   ar
    43     6    11    1
    44     6    12    1
@<TRIPOS>MOLECULE
*****
 40 44 0 0 0
SMALL
GASTEIGER

@<TRIPOS>ATOM
      1 C           1.4773    0.6535   20.1167 C.ar    1  UNL1        0.0830
      2 C           2.1255   -0.3421   19.2010 C.ar    1  UNL1        0.0222
      3 C           2.9545   -1.2705   20.0381 C.ar    1  UNL1        0.0393
      4 C           2.8187   -0.8487   21.4712 C.ar    1  UNL1        0.1153
      5 C           3.4084   -1.3937   22.7381 C.ar    1  UNL1        0.1451
      6 N           4.3214   -2.5829   22.6895 N.pl3   1  UNL1       -0.3414
      7 N           3.0851   -0.7496   24.0536 N.ar    1  UNL1       -0.2065
      8 C           2.1721    0.4395   24.1021 C.ar    1  UNL1        0.2211
      9 N           1.5824    0.9846   22.8352 N.ar    1  UNL1       -0.1422
     10 N           1.9057    0.3405   21.5197 N.ar    1  UNL1       -0.2254
     11 H           4.5336   -3.0056   21.8261 H       1  UNL1        0.1438
     12 H           4.7084   -2.9406   23.5210 H       1  UNL1        0.1438
     13 C          -1.5538    3.2152   20.1236 C.ar    1  UNL1        0.0540
     14 C          -1.2702    3.9934   18.8731 C.ar    1  UNL1        0.0149
     15 C          -0.0708    3.6583   18.0370 C.ar    1  UNL1        0.0013
     16 C           0.8451    2.5451   18.4515 C.ar    1  UNL1        0.0016
     17 C           0.5614    1.7668   19.7022 C.ar    1  UNL1        0.0189
     18 C          -0.6380    2.1020   20.5382 C.ar    1  UNL1        0.0164
     19 C          -6.2031    4.7537   24.9473 C.3     1  UNL1        0.0948
     20 C          -6.3517    4.5557   23.4679 C.2     1  UNL1        0.2264
     21 O          -7.6998    4.6927   22.8245 O.2     1  UNL1       -0.2748
     22 N          -5.1523    4.2206   22.6318 N.am    1  UNL1       -0.2730
     23 C          -3.8042    4.0835   23.2751 C.3     1  UNL1        0.1156
     24 C          -2.6047    3.7484   22.4391 C.3     1  UNL1        0.1197
     25 N          -2.7533    3.5503   20.9597 N.am    1  UNL1       -0.2556
     26 C          -4.1014    3.6874   20.3163 C.2     1  UNL1        0.2454
     27 O          -4.2500    3.4893   18.8369 O.2     1  UNL1       -0.2728
     28 C          -5.3008    4.0225   21.1524 C.3     1  UNL1        0.1294
     29 C          -5.9435    3.9296   19.8002 C.3     1  UNL1        0.0293
     30 C          -6.7235    4.3253   21.5188 C.3     1  UNL1        0.0293
     31 C           3.7753   -2.4191   19.5312 C.ar    1  UNL1        0.0813
     32 C           3.2988   -3.8292   19.3456 C.ar    1  UNL1        0.0412
     33 C           4.4457   -4.6409   18.8206 C.ar    1  UNL1        0.1217
     34 N           5.6312   -3.7324   18.6817 N.ar    1  UNL1       -0.1674
     35 N           5.2169   -2.3592   19.1208 N.ar    1  UNL1       -0.2420
     36 C           6.0908   -1.1403   19.1453 C.3     1  UNL1        0.2301
     37 C           5.6869    0.0876   18.3843 C.3     1  UNL1        0.4200
     38 F           5.2830    1.3155   17.6234 F       1  UNL1       -0.1679
     39 F           5.9777    0.9307   19.5905 F       1  UNL1       -0.1679
     40 F           5.3961   -0.7555   17.1783 F       1  UNL1       -0.1679
@<TRIPOS>BOND
     1    19    20    1
     2    20    21    2
     3    20    22   am
     4    22    23    1
     5    23    24    1
     6    24    25    1
     7    25    13    1
     8    13    14   ar
     9    14    15   ar
    10    15    16   ar
    11    16    17   ar
    12    17     1    1
    13     1     2   ar
    14     2     3   ar
    15     3    31    1
    16    31    32   ar
    17    32    33   ar
    18    33    34   ar
    19    34    35   ar
    20    35    36    1
    21    36    37    1
    22    37    38    1
    23    37    39    1
    24    37    40    1
    25     3     4   ar
    26     4     5   ar
    27     5     6    1
    28     5     7   ar
    29     7     8   ar
    30     8     9   ar
    31     9    10   ar
    32    17    18   ar
    33    25    26   am
    34    26    27    2
    35    26    28    1
    36    28    29    1
    37    28    30    1
    38    28    22    1
    39    18    13   ar
    40    10     1   ar
    41    35    31   ar
    42    10     4   ar
    43     6    11    1
    44     6    12    1
@<TRIPOS>MOLECULE
*****
 40 44 0 0 0
SMALL
GASTEIGER

@<TRIPOS>ATOM
      1 C           1.6721    0.4294   20.2733 C.ar    1  UNL1        0.0830
      2 C           2.2638   -0.5789   19.3335 C.ar    1  UNL1        0.0222
      3 C           3.1087   -1.5221   20.1376 C.ar    1  UNL1        0.0393
      4 C           3.0392   -1.0967   21.5743 C.ar    1  UNL1        0.1153
      5 C           3.6697   -1.6517   22.8170 C.ar    1  UNL1        0.1451
      6 N           4.5576   -2.8578   22.7332 N.pl3   1  UNL1       -0.3414
      7 N           3.4123   -1.0007   24.1436 N.ar    1  UNL1       -0.2065
      8 C           2.5244    0.2054   24.2275 C.ar    1  UNL1        0.2211
      9 N           1.8939    0.7604   22.9848 N.ar    1  UNL1       -0.1422
     10 N           2.1513    0.1094   21.6582 N.ar    1  UNL1       -0.2254
     11 H           4.7265   -3.2851   21.8625 H       1  UNL1        0.1438
     12 H           4.9714   -3.2221   23.5488 H       1  UNL1        0.1438
     13 C          -1.3476    3.0030   20.3628 C.ar    1  UNL1        0.0540
     14 C          -1.0609    3.8192   19.1374 C.ar    1  UNL1        0.0149
     15 C           0.1368    3.5055   18.2906 C.ar    1  UNL1        0.0013
     16 C           1.0478    2.3756   18.6692 C.ar    1  UNL1        0.0016
     17 C           0.7611    1.5593   19.8947 C.ar    1  UNL1        0.0189
     18 C          -0.4366    1.8731   20.7414 C.ar    1  UNL1        0.0164
     19 C          -7.5073    4.2733   23.1366 C.3     1  UNL1        0.0948
     20 C          -6.1386    4.2579   23.7499 C.2     1  UNL1        0.2264
     21 O          -5.9675    4.5562   25.2099 O.2     1  UNL1       -0.2748
     22 N          -4.9408    3.9442   22.9031 N.am    1  UNL1       -0.2730
     23 C          -5.1119    3.6459   21.4431 C.3     1  UNL1        0.1156
     24 C          -3.9142    3.3322   20.5963 C.3     1  UNL1        0.1197
     25 N          -2.5453    3.3167   21.2095 N.am    1  UNL1       -0.2556
     26 C          -2.3743    3.6150   22.6696 C.2     1  UNL1        0.2454
     27 O          -1.0055    3.5996   23.2829 O.2     1  UNL1       -0.2728
     28 C          -3.5720    3.9287   23.5163 C.3     1  UNL1        0.1294
     29 C          -2.4885    4.0351   24.5482 C.3     1  UNL1        0.0293
     30 C          -4.3934    4.2794   24.7215 C.3     1  UNL1        0.0293
     31 C           3.8865   -2.6862   19.5994 C.ar    1  UNL1        0.0813
     32 C           3.3491   -4.0629   19.3430 C.ar    1  UNL1        0.0412
     33 C           4.4688   -4.9057   18.8083 C.ar    1  UNL1        0.1217
     34 N           5.6984   -4.0497   18.7343 N.ar    1  UNL1       -0.1674
     35 N           5.3386   -2.6781   19.2232 N.ar    1  UNL1       -0.2420
     36 C           6.2677   -1.5044   19.3191 C.3     1  UNL1        0.2301
     37 C           6.7492   -1.0365   20.6604 C.3     1  UNL1        0.4200
     38 F           7.2307   -0.5685   22.0017 F       1  UNL1       -0.1679
     39 F           5.9621    0.2305   20.5009 F       1  UNL1       -0.1679
     40 F           7.5364   -2.3034   20.8198 F       1  UNL1       -0.1679
@<TRIPOS>BOND
     1    19    20    1
     2    20    21    2
     3    20    22   am
     4    22    23    1
     5    23    24    1
     6    24    25    1
     7    25    13    1
     8    13    14   ar
     9    14    15   ar
    10    15    16   ar
    11    16    17   ar
    12    17     1    1
    13     1     2   ar
    14     2     3   ar
    15     3    31    1
    16    31    32   ar
    17    32    33   ar
    18    33    34   ar
    19    34    35   ar
    20    35    36    1
    21    36    37    1
    22    37    38    1
    23    37    39    1
    24    37    40    1
    25     3     4   ar
    26     4     5   ar
    27     5     6    1
    28     5     7   ar
    29     7     8   ar
    30     8     9   ar
    31     9    10   ar
    32    17    18   ar
    33    25    26   am
    34    26    27    2
    35    26    28    1
    36    28    29    1
    37    28    30    1
    38    28    22    1
    39    18    13   ar
    40    10     1   ar
    41    35    31   ar
    42    10     4   ar
    43     6    11    1
    44     6    12    1
@<TRIPOS>MOLECULE
*****
 40 44 0 0 0
SMALL
GASTEIGER

@<TRIPOS>ATOM
      1 C           3.4692    1.5558   19.0203 C.ar    1  UNL1        0.0830
      2 C           3.1907    0.5948   20.1378 C.ar    1  UNL1        0.0222
      3 C           4.3070   -0.4063   20.1772 C.ar    1  UNL1        0.0393
      4 C           5.2754   -0.0640   19.0841 C.ar    1  UNL1        0.1153
      5 C           6.5619   -0.6999   18.6474 C.ar    1  UNL1        0.1451
      6 N           7.0797   -1.9126   19.3625 N.pl3   1  UNL1       -0.3414
      7 N           7.3305   -0.1231   17.4958 N.ar    1  UNL1       -0.2065
      8 C           6.8127    1.0896   16.7807 C.ar    1  UNL1        0.2211
      9 N           5.5263    1.7255   17.2174 N.ar    1  UNL1       -0.1422
     10 N           4.7577    1.1487   18.3691 N.ar    1  UNL1       -0.2254
     11 H           6.5751   -2.2912   20.1184 H       1  UNL1        0.1438
     12 H           7.9240   -2.3300   19.0759 H       1  UNL1        0.1438
     13 C           0.2806    3.8655   18.5223 C.ar    1  UNL1        0.0540
     14 C           0.8920    5.0476   17.8303 C.ar    1  UNL1        0.0149
     15 C           2.3625    5.0657   17.5349 C.ar    1  UNL1        0.0013
     16 C           3.2216    3.9019   17.9316 C.ar    1  UNL1        0.0016
     17 C           2.6101    2.7197   18.6236 C.ar    1  UNL1        0.0189
     18 C           1.1397    2.7016   18.9189 C.ar    1  UNL1        0.0164
     19 C          -6.5930    3.8849   18.5818 C.3     1  UNL1        0.0948
     20 C          -5.6016    3.7929   19.7036 C.2     1  UNL1        0.2264
     21 O          -6.0806    3.6828   21.1208 O.2     1  UNL1       -0.2748
     22 N          -4.1310    3.8111   19.4083 N.am    1  UNL1       -0.2730
     23 C          -3.6520    3.9212   17.9911 C.3     1  UNL1        0.1156
     24 C          -2.1814    3.9394   17.6958 C.3     1  UNL1        0.1197
     25 N          -1.1899    3.8474   18.8176 N.am    1  UNL1       -0.2556
     26 C          -1.6690    3.7372   20.2348 C.2     1  UNL1        0.2454
     27 O          -0.6776    3.6453   21.3566 O.2     1  UNL1       -0.2728
     28 C          -3.1395    3.7191   20.5301 C.3     1  UNL1        0.1294
     29 C          -2.5928    3.6073   21.9225 C.3     1  UNL1        0.0293
     30 C          -4.4202    3.6621   21.3090 C.3     1  UNL1        0.0293
     31 C           4.4328   -1.5491   21.1406 C.ar    1  UNL1        0.0813
     32 C           4.8930   -1.4549   22.5651 C.ar    1  UNL1        0.0412
     33 C           4.8651   -2.8344   23.1536 C.ar    1  UNL1        0.1217
     34 N           4.3876   -3.7812   22.0927 N.ar    1  UNL1       -0.1674
     35 N           4.1204   -2.9869   20.8486 N.ar    1  UNL1       -0.2420
     36 C           3.6275   -3.5344   19.5420 C.3     1  UNL1        0.2301
     37 C           4.2697   -4.7535   18.9494 C.3     1  UNL1        0.4200
     38 F           4.9119   -5.9727   18.3568 F       1  UNL1       -0.1679
     39 F           3.3436   -5.6270   19.7429 F       1  UNL1       -0.1679
     40 F           5.1956   -3.8801   18.1559 F       1  UNL1       -0.1679
@<TRIPOS>BOND
     1    19    20    1
     2    20    21    2
     3    20    22   am
     4    22    23    1
     5    23    24    1
     6    24    25    1
     7    25    13    1
     8    13    14   ar
     9    14    15   ar
    10    15    16   ar
    11    16    17   ar
    12    17     1    1
    13     1     2   ar
    14     2     3   ar
    15     3    31    1
    16    31    32   ar
    17    32    33   ar
    18    33    34   ar
    19    34    35   ar
    20    35    36    1
    21    36    37    1
    22    37    38    1
    23    37    39    1
    24    37    40    1
    25     3     4   ar
    26     4     5   ar
    27     5     6    1
    28     5     7   ar
    29     7     8   ar
    30     8     9   ar
    31     9    10   ar
    32    17    18   ar
    33    25    26   am
    34    26    27    2
    35    26    28    1
    36    28    29    1
    37    28    30    1
    38    28    22    1
    39    18    13   ar
    40    10     1   ar
    41    35    31   ar
    42    10     4   ar
    43     6    11    1
    44     6    12    1
@<TRIPOS>MOLECULE
*****
 40 44 0 0 0
SMALL
GASTEIGER

@<TRIPOS>ATOM
      1 C           2.3213    0.5937   19.9785 C.ar    1  UNL1        0.0830
      2 C           2.8042   -0.5681   19.1617 C.ar    1  UNL1        0.0222
      3 C           3.3774   -1.5881   20.1004 C.ar    1  UNL1        0.0393
      4 C           3.2488   -1.0567   21.4972 C.ar    1  UNL1        0.1153
      5 C           3.6417   -1.6265   22.8279 C.ar    1  UNL1        0.1451
      6 N           4.2944   -2.9749   22.9032 N.pl3   1  UNL1       -0.3414
      7 N           3.3818   -0.8478   24.0834 N.ar    1  UNL1       -0.2065
      8 C           2.7291    0.5006   24.0080 C.ar    1  UNL1        0.2211
      9 N           2.3362    1.0704   22.6773 N.ar    1  UNL1       -0.1422
     10 N           2.5960    0.2917   21.4219 N.ar    1  UNL1       -0.2254
     11 H           4.4650   -3.4860   22.0792 H       1  UNL1        0.1438
     12 H           4.5523   -3.3489   23.7767 H       1  UNL1        0.1438
     13 C          -0.4285    3.3318   19.1466 C.ar    1  UNL1        0.0540
     14 C           0.3877    4.3293   18.3794 C.ar    1  UNL1        0.0149
     15 C           1.8485    4.0817   18.1452 C.ar    1  UNL1        0.0013
     16 C           2.4930    2.8365   18.6782 C.ar    1  UNL1        0.0016
     17 C           1.6767    1.8389   19.4455 C.ar    1  UNL1        0.0189
     18 C           0.2161    2.0866   19.6796 C.ar    1  UNL1        0.0164
     19 C          -7.1837    4.5836   18.9217 C.3     1  UNL1        0.0948
     20 C          -6.2715    4.3223   20.0835 C.2     1  UNL1        0.2264
     21 O          -6.8202    4.3087   21.4795 O.2     1  UNL1       -0.2748
     22 N          -4.8108    4.0747   19.8493 N.am    1  UNL1       -0.2730
     23 C          -4.2622    4.0883   18.4533 C.3     1  UNL1        0.1156
     24 C          -2.8014    3.8407   18.2191 C.3     1  UNL1        0.1197
     25 N          -1.8892    3.5794   19.3808 N.am    1  UNL1       -0.2556
     26 C          -2.4379    3.5658   20.7768 C.2     1  UNL1        0.2454
     27 O          -1.5258    3.3045   21.9386 O.2     1  UNL1       -0.2728
     28 C          -3.8986    3.8134   21.0110 C.3     1  UNL1        0.1294
     29 C          -3.4383    3.6141   22.4247 C.3     1  UNL1        0.0293
     30 C          -5.1995    3.9918   21.7362 C.3     1  UNL1        0.0293
     31 C           3.9745   -2.9078   19.7106 C.ar    1  UNL1        0.0813
     32 C           3.2182   -4.1089   19.2258 C.ar    1  UNL1        0.0412
     33 C           4.2089   -5.2016   18.9528 C.ar    1  UNL1        0.1217
     34 N           5.5777   -4.6756   19.2689 N.ar    1  UNL1       -0.1674
     35 N           5.4328   -3.2579   19.7373 N.ar    1  UNL1       -0.2420
     36 C           6.5501   -2.3500   20.1583 C.3     1  UNL1        0.2301
     37 C           7.8772   -2.4214   19.4629 C.3     1  UNL1        0.4200
     38 F           9.2043   -2.4929   18.7675 F       1  UNL1       -0.1679
     39 F           8.5597   -2.6127   20.7850 F       1  UNL1       -0.1679
     40 F           7.1948   -2.2302   18.1409 F       1  UNL1       -0.1679
@<TRIPOS>BOND
     1    19    20    1
     2    20    21    2
     3    20    22   am
     4    22    23    1
     5    23    24    1
     6    24    25    1
     7    25    13    1
     8    13    14   ar
     9    14    15   ar
    10    15    16   ar
    11    16    17   ar
    12    17     1    1
    13     1     2   ar
    14     2     3   ar
    15     3    31    1
    16    31    32   ar
    17    32    33   ar
    18    33    34   ar
    19    34    35   ar
    20    35    36    1
    21    36    37    1
    22    37    38    1
    23    37    39    1
    24    37    40    1
    25     3     4   ar
    26     4     5   ar
    27     5     6    1
    28     5     7   ar
    29     7     8   ar
    30     8     9   ar
    31     9    10   ar
    32    17    18   ar
    33    25    26   am
    34    26    27    2
    35    26    28    1
    36    28    29    1
    37    28    30    1
    38    28    22    1
    39    18    13   ar
    40    10     1   ar
    41    35    31   ar
    42    10     4   ar
    43     6    11    1
    44     6    12    1
@<TRIPOS>MOLECULE
*****
 40 44 0 0 0
SMALL
GASTEIGER

@<TRIPOS>ATOM
      1 C           2.1825    1.3466   19.8596 C.ar    1  UNL1        0.0830
      2 C           3.2747    0.8504   18.9592 C.ar    1  UNL1        0.0222
      3 C           4.1686   -0.0450   19.7649 C.ar    1  UNL1        0.0393
      4 C           3.6288   -0.1021   21.1633 C.ar    1  UNL1        0.1153
      5 C           4.0965   -0.8262   22.3908 C.ar    1  UNL1        0.1451
      6 N           5.3240   -1.6863   22.3323 N.pl3   1  UNL1       -0.3414
      7 N           3.3367   -0.6901   23.6769 N.ar    1  UNL1       -0.2065
      8 C           2.1091    0.1700   23.7354 C.ar    1  UNL1        0.2211
      9 N           1.6415    0.8940   22.5079 N.ar    1  UNL1       -0.1422
     10 N           2.4013    0.7580   21.2218 N.ar    1  UNL1       -0.2254
     11 H           5.8227   -1.7756   21.4882 H       1  UNL1        0.1438
     12 H           5.6310   -2.1615   23.1380 H       1  UNL1        0.1438
     13 C          -1.2351    3.3609   19.9755 C.ar    1  UNL1        0.0540
     14 C          -1.1635    4.1155   18.6811 C.ar    1  UNL1        0.0149
     15 C           0.0234    3.9471   17.7795 C.ar    1  UNL1        0.0013
     16 C           1.1387    3.0242   18.1723 C.ar    1  UNL1        0.0016
     17 C           1.0671    2.2696   19.4668 C.ar    1  UNL1        0.0189
     18 C          -0.1197    2.4380   20.3683 C.ar    1  UNL1        0.0164
     19 C          -7.3591    4.1474   22.9967 C.3     1  UNL1        0.0948
     20 C          -5.9827    4.0344   23.5820 C.2     1  UNL1        0.2264
     21 O          -5.7932    4.0897   25.0690 O.2     1  UNL1       -0.2748
     22 N          -4.7958    3.8660   22.6804 N.am    1  UNL1       -0.2730
     23 C          -4.9853    3.8107   21.1934 C.3     1  UNL1        0.1156
     24 C          -3.7984    3.6423   20.2918 C.3     1  UNL1        0.1197
     25 N          -2.4220    3.5293   20.8771 N.am    1  UNL1       -0.2556
     26 C          -2.2324    3.5846   22.3641 C.2     1  UNL1        0.2454
     27 O          -0.8560    3.4716   22.9494 O.2     1  UNL1       -0.2728
     28 C          -3.4193    3.7530   23.2657 C.3     1  UNL1        0.1294
     29 C          -2.3228    3.6909   24.2874 C.3     1  UNL1        0.0293
     30 C          -4.2254    3.8998   24.5221 C.3     1  UNL1        0.0293
     31 C           5.3881   -0.7581   19.2608 C.ar    1  UNL1        0.0813
     32 C           6.8009   -0.2630   19.3547 C.ar    1  UNL1        0.0412
     33 C           7.6950   -1.2904   18.7262 C.ar    1  UNL1        0.1217
     34 N           6.8347   -2.4206   18.2438 N.ar    1  UNL1       -0.1674
     35 N           5.4090   -2.0916   18.5742 N.ar    1  UNL1       -0.2420
     36 C           4.2140   -2.9462   18.2712 C.3     1  UNL1        0.2301
     37 C           3.8729   -4.1023   19.1640 C.3     1  UNL1        0.4200
     38 F           3.5317   -5.2584   20.0568 F       1  UNL1       -0.1679
     39 F           4.6343   -5.0255   18.2595 F       1  UNL1       -0.1679
     40 F           3.1115   -3.1791   20.0685 F       1  UNL1       -0.1679
@<TRIPOS>BOND
     1    19    20    1
     2    20    21    2
     3    20    22   am
     4    22    23    1
     5    23    24    1
     6    24    25    1
     7    25    13    1
     8    13    14   ar
     9    14    15   ar
    10    15    16   ar
    11    16    17   ar
    12    17     1    1
    13     1     2   ar
    14     2     3   ar
    15     3    31    1
    16    31    32   ar
    17    32    33   ar
    18    33    34   ar
    19    34    35   ar
    20    35    36    1
    21    36    37    1
    22    37    38    1
    23    37    39    1
    24    37    40    1
    25     3     4   ar
    26     4     5   ar
    27     5     6    1
    28     5     7   ar
    29     7     8   ar
    30     8     9   ar
    31     9    10   ar
    32    17    18   ar
    33    25    26   am
    34    26    27    2
    35    26    28    1
    36    28    29    1
    37    28    30    1
    38    28    22    1
    39    18    13   ar
    40    10     1   ar
    41    35    31   ar
    42    10     4   ar
    43     6    11    1
    44     6    12    1
@<TRIPOS>MOLECULE
*****
 40 44 0 0 0
SMALL
GASTEIGER

@<TRIPOS>ATOM
      1 C           1.6179    1.3114   24.5401 C.ar    1  UNL1        0.0830
      2 C           2.1582    0.0670   23.9000 C.ar    1  UNL1        0.0222
      3 C           2.7736    0.4509   22.5871 C.ar    1  UNL1        0.0393
      4 C           2.6137    1.9325   22.4157 C.ar    1  UNL1        0.1153
      5 C           3.0262    2.8660   21.3165 C.ar    1  UNL1        0.1451
      6 N           3.7404    2.3342   20.1094 N.pl3   1  UNL1       -0.3414
      7 N           2.7244    4.3313   21.4243 N.ar    1  UNL1       -0.2065
      8 C           2.0102    4.8632   22.6314 C.ar    1  UNL1        0.2211
      9 N           1.5977    3.9296   23.7306 N.ar    1  UNL1       -0.1422
     10 N           1.8994    2.4643   23.6228 N.ar    1  UNL1       -0.2254
     11 H           3.9385    1.3724   20.0386 H       1  UNL1        0.1438
     12 H           4.0111    2.9469   19.3879 H       1  UNL1        0.1438
     13 C           0.9572    1.1181   28.4486 C.ar    1  UNL1        0.0540
     14 C          -0.4793    1.5449   28.5147 C.ar    1  UNL1        0.0149
     15 C          -1.2167    1.8938   27.2560 C.ar    1  UNL1        0.0013
     16 C          -0.5177    1.8160   25.9311 C.ar    1  UNL1        0.0016
     17 C           0.9189    1.3892   25.8650 C.ar    1  UNL1        0.0189
     18 C           1.6562    1.0403   27.1237 C.ar    1  UNL1        0.0164
     19 C           4.5951   -1.6046   33.6063 C.3     1  UNL1        0.0948
     20 C           3.9070   -0.2775   33.4836 C.2     1  UNL1        0.2264
     21 O           3.9562    0.7008   34.6197 O.2     1  UNL1       -0.2748
     22 N           3.1695    0.0714   32.2249 N.am    1  UNL1       -0.2730
     23 C           3.1203   -0.9068   31.0888 C.3     1  UNL1        0.1156
     24 C           2.3828   -0.5579   29.8301 C.3     1  UNL1        0.1197
     25 N           1.6946    0.7692   29.7073 N.am    1  UNL1       -0.2556
     26 C           1.7439    1.7475   30.8434 C.2     1  UNL1        0.2454
     27 O           1.0557    3.0746   30.7207 O.2     1  UNL1       -0.2728
     28 C           2.4813    1.3986   32.1021 C.3     1  UNL1        0.1294
     29 C           1.9900    2.7700   32.4597 C.3     1  UNL1        0.0293
     30 C           3.0481    1.5260   33.4851 C.3     1  UNL1        0.0293
     31 C           3.4331   -0.4829   21.6159 C.ar    1  UNL1        0.0813
     32 C           4.8620   -0.9368   21.6609 C.ar    1  UNL1        0.0412
     33 C           5.0916   -1.8611   20.5021 C.ar    1  UNL1        0.1217
     34 N           3.8044   -1.9785   19.7409 N.ar    1  UNL1       -0.1674
     35 N           2.7794   -1.1267   20.4293 N.ar    1  UNL1       -0.2420
     36 C           1.3514   -0.9499   20.0053 C.3     1  UNL1        0.2301
     37 C           0.9070    0.3427   19.3874 C.3     1  UNL1        0.4200
     38 F           0.4626    1.6352   18.7695 F       1  UNL1       -0.1679
     39 F           1.8733    0.1354   18.2589 F       1  UNL1       -0.1679
     40 F          -0.0592    0.5499   20.5159 F       1  UNL1       -0.1679
@<TRIPOS>BOND
     1    19    20    1
     2    20    21    2
     3    20    22   am
     4    22    23    1
     5    23    24    1
     6    24    25    1
     7    25    13    1
     8    13    14   ar
     9    14    15   ar
    10    15    16   ar
    11    16    17   ar
    12    17     1    1
    13     1     2   ar
    14     2     3   ar
    15     3    31    1
    16    31    32   ar
    17    32    33   ar
    18    33    34   ar
    19    34    35   ar
    20    35    36    1
    21    36    37    1
    22    37    38    1
    23    37    39    1
    24    37    40    1
    25     3     4   ar
    26     4     5   ar
    27     5     6    1
    28     5     7   ar
    29     7     8   ar
    30     8     9   ar
    31     9    10   ar
    32    17    18   ar
    33    25    26   am
    34    26    27    2
    35    26    28    1
    36    28    29    1
    37    28    30    1
    38    28    22    1
    39    18    13   ar
    40    10     1   ar
    41    35    31   ar
    42    10     4   ar
    43     6    11    1
    44     6    12    1
@<TRIPOS>MOLECULE
*****
 40 44 0 0 0
SMALL
GASTEIGER

@<TRIPOS>ATOM
      1 C           7.0921   -3.0464   27.6277 C.ar    1  UNL1        0.0830
      2 C           6.1185   -3.2973   28.7409 C.ar    1  UNL1        0.0222
      3 C           6.2509   -2.1800   29.7329 C.ar    1  UNL1        0.0393
      4 C           7.3061   -1.2386   29.2328 C.ar    1  UNL1        0.1153
      5 C           7.8608    0.0371   29.7941 C.ar    1  UNL1        0.1451
      6 N           7.3409    0.5726   31.0952 N.pl3   1  UNL1       -0.3414
      7 N           8.9354    0.7772   29.0542 N.ar    1  UNL1       -0.2065
      8 C           9.4553    0.2417   27.7531 C.ar    1  UNL1        0.2211
      9 N           8.9006   -1.0339   27.1918 N.ar    1  UNL1       -0.1422
     10 N           7.8260   -1.7741   27.9317 N.ar    1  UNL1       -0.2254
     11 H           6.6356    0.0868   31.5808 H       1  UNL1        0.1438
     12 H           7.7049    1.4098   31.4636 H       1  UNL1        0.1438
     13 C           7.1570   -4.2655   23.8515 C.ar    1  UNL1        0.0540
     14 C           7.7035   -5.6533   24.0110 C.ar    1  UNL1        0.0149
     15 C           8.0463   -6.1721   25.3760 C.ar    1  UNL1        0.0013
     16 C           7.8425   -5.3032   26.5816 C.ar    1  UNL1        0.0016
     17 C           7.2959   -3.9154   26.4221 C.ar    1  UNL1        0.0189
     18 C           6.9532   -3.3966   25.0571 C.ar    1  UNL1        0.0164
     19 C           4.3500   -2.0389   17.9852 C.3     1  UNL1        0.0948
     20 C           5.7861   -2.1902   18.3913 C.2     1  UNL1        0.2264
     21 O           6.8794   -1.8227   17.4323 O.2     1  UNL1       -0.2748
     22 N           6.1288   -2.7091   19.7563 N.am    1  UNL1       -0.2730
     23 C           5.0355   -3.0766   20.7153 C.3     1  UNL1        0.1156
     24 C           5.3783   -3.5954   22.0804 C.3     1  UNL1        0.1197
     25 N           6.8142   -3.7467   22.4865 N.am    1  UNL1       -0.2556
     26 C           7.9075   -3.3792   21.5275 C.2     1  UNL1        0.2454
     27 O           9.3436   -3.5305   21.9336 O.2     1  UNL1       -0.2728
     28 C           7.5648   -2.8604   20.1625 C.3     1  UNL1        0.1294
     29 C           9.0625   -2.8276   20.0851 C.3     1  UNL1        0.0293
     30 C           7.7422   -2.3302   18.7705 C.3     1  UNL1        0.0293
     31 C           5.4657   -2.0303   31.0023 C.ar    1  UNL1        0.0813
     32 C           5.6903   -2.7945   32.2732 C.ar    1  UNL1        0.0412
     33 C           4.6815   -2.3267   33.2800 C.ar    1  UNL1        0.1217
     34 N           3.8334   -1.2732   32.6311 N.ar    1  UNL1       -0.1674
     35 N           4.3181   -1.0901   31.2234 N.ar    1  UNL1       -0.2420
     36 C           3.7541   -0.1344   30.2141 C.3     1  UNL1        0.2301
     37 C           2.4304   -0.4198   29.5688 C.3     1  UNL1        0.4200
     38 F           1.1068   -0.7052   28.9234 F       1  UNL1       -0.1679
     39 F           3.1217   -1.2205   28.5052 F       1  UNL1       -0.1679
     40 F           1.7392    0.3808   30.6323 F       1  UNL1       -0.1679
@<TRIPOS>BOND
     1    19    20    1
     2    20    21    2
     3    20    22   am
     4    22    23    1
     5    23    24    1
     6    24    25    1
     7    25    13    1
     8    13    14   ar
     9    14    15   ar
    10    15    16   ar
    11    16    17   ar
    12    17     1    1
    13     1     2   ar
    14     2     3   ar
    15     3    31    1
    16    31    32   ar
    17    32    33   ar
    18    33    34   ar
    19    34    35   ar
    20    35    36    1
    21    36    37    1
    22    37    38    1
    23    37    39    1
    24    37    40    1
    25     3     4   ar
    26     4     5   ar
    27     5     6    1
    28     5     7   ar
    29     7     8   ar
    30     8     9   ar
    31     9    10   ar
    32    17    18   ar
    33    25    26   am
    34    26    27    2
    35    26    28    1
    36    28    29    1
    37    28    30    1
    38    28    22    1
    39    18    13   ar
    40    10     1   ar
    41    35    31   ar
    42    10     4   ar
    43     6    11    1
    44     6    12    1
@<TRIPOS>MOLECULE
*****
 40 44 0 0 0
SMALL
GASTEIGER

@<TRIPOS>ATOM
      1 C           2.4183    0.6258   21.8183 C.ar    1  UNL1        0.0830
      2 C           2.7278   -0.1138   20.5506 C.ar    1  UNL1        0.0222
      3 C           3.5305   -1.3296   20.9076 C.ar    1  UNL1        0.0393
      4 C           3.7171   -1.3414   22.3959 C.ar    1  UNL1        0.1153
      5 C           4.4242   -2.2964   23.3112 C.ar    1  UNL1        0.1451
      6 N           5.1116   -3.5050   22.7484 N.pl3   1  UNL1       -0.3414
      7 N           4.4438   -2.0429   24.7895 N.ar    1  UNL1       -0.2065
      8 C           3.7564   -0.8343   25.3524 C.ar    1  UNL1        0.2211
      9 N           3.0493    0.1207   24.4370 N.ar    1  UNL1       -0.1422
     10 N           3.0297   -0.1328   22.9588 N.ar    1  UNL1       -0.2254
     11 H           5.0987   -3.6714   21.7781 H       1  UNL1        0.1438
     12 H           5.5756   -4.1318   23.3492 H       1  UNL1        0.1438
     13 C          -0.4184    3.3435   21.2547 C.ar    1  UNL1        0.0540
     14 C           0.0681    4.4496   22.1433 C.ar    1  UNL1        0.0149
     15 C           1.3380    4.2812   22.9236 C.ar    1  UNL1        0.0013
     16 C           2.1214    3.0066   22.8153 C.ar    1  UNL1        0.0016
     17 C           1.6349    1.9004   21.9266 C.ar    1  UNL1        0.0189
     18 C           0.3650    2.0689   21.1464 C.ar    1  UNL1        0.0164
     19 C          -6.8196    3.7215   18.7784 C.3     1  UNL1        0.0948
     20 C          -5.4981    4.0172   18.1332 C.2     1  UNL1        0.2264
     21 O          -5.4465    4.4812   16.7077 O.2     1  UNL1       -0.2748
     22 N          -4.2282    3.8488   18.9136 N.am    1  UNL1       -0.2730
     23 C          -4.2798    3.3847   20.3390 C.3     1  UNL1        0.1156
     24 C          -3.0098    3.2163   21.1194 C.3     1  UNL1        0.1197
     25 N          -1.6883    3.5119   20.4743 N.am    1  UNL1       -0.2556
     26 C          -1.6367    3.9759   19.0488 C.2     1  UNL1        0.2454
     27 O          -0.3152    4.2716   18.4037 O.2     1  UNL1       -0.2728
     28 C          -2.9067    4.1444   18.2685 C.3     1  UNL1        0.1294
     29 C          -1.9054    4.5471   17.2267 C.3     1  UNL1        0.0293
     30 C          -3.8288    4.4526   17.1263 C.3     1  UNL1        0.0293
     31 C           4.0546   -2.3539   19.9452 C.ar    1  UNL1        0.0813
     32 C           3.5482   -3.7570   19.7884 C.ar    1  UNL1        0.0412
     33 C           4.3578   -4.4252   18.7170 C.ar    1  UNL1        0.1217
     34 N           5.3647   -3.4349   18.2115 N.ar    1  UNL1       -0.1674
     35 N           5.1774   -2.1548   18.9706 N.ar    1  UNL1       -0.2420
     36 C           5.9731   -0.8965   18.7871 C.3     1  UNL1        0.2301
     37 C           5.8994   -0.1447   17.4913 C.3     1  UNL1        0.4200
     38 F           5.8258    0.6072   16.1954 F       1  UNL1       -0.1679
     39 F           4.4142   -0.3520   17.4554 F       1  UNL1       -0.1679
     40 F           7.3846    0.0626   17.5272 F       1  UNL1       -0.1679
@<TRIPOS>BOND
     1    19    20    1
     2    20    21    2
     3    20    22   am
     4    22    23    1
     5    23    24    1
     6    24    25    1
     7    25    13    1
     8    13    14   ar
     9    14    15   ar
    10    15    16   ar
    11    16    17   ar
    12    17     1    1
    13     1     2   ar
    14     2     3   ar
    15     3    31    1
    16    31    32   ar
    17    32    33   ar
    18    33    34   ar
    19    34    35   ar
    20    35    36    1
    21    36    37    1
    22    37    38    1
    23    37    39    1
    24    37    40    1
    25     3     4   ar
    26     4     5   ar
    27     5     6    1
    28     5     7   ar
    29     7     8   ar
    30     8     9   ar
    31     9    10   ar
    32    17    18   ar
    33    25    26   am
    34    26    27    2
    35    26    28    1
    36    28    29    1
    37    28    30    1
    38    28    22    1
    39    18    13   ar
    40    10     1   ar
    41    35    31   ar
    42    10     4   ar
    43     6    11    1
    44     6    12    1
