@<TRIPOS>MOLECULE
*****
 33 37 0 0 0
SMALL
GASTEIGER

@<TRIPOS>ATOM
      1 C           6.1010   -2.4912   28.9485 C.ar    1  UNL1       -0.0024
      2 C           5.2944   -1.2268   28.9220 C.ar    1  UNL1       -0.0013
      3 C           4.8704   -0.5806   30.2076 C.ar    1  UNL1        0.0181
      4 C           5.2529   -1.1989   31.5196 C.ar    1  UNL1        0.1056
      5 C           6.0595   -2.4634   31.5460 C.ar    1  UNL1        0.0181
      6 C           6.4835   -3.1095   30.2605 C.ar    1  UNL1       -0.0013
      7 S           4.8289   -0.5528   32.8052 S.O2    1  UNL1        0.0071
      8 O           3.9035   -1.7015   33.0773 O.2     1  UNL1       -0.1687
      9 O           5.7543    0.5959   32.5331 O.2     1  UNL1       -0.1687
     10 C           4.4048    0.0933   34.0907 C.3     1  UNL1        0.1366
     11 C           3.5081    1.2956   34.0658 C.3     1  UNL1        0.0413
     12 C           3.0841    1.9417   35.3514 C.3     1  UNL1        0.0740
     13 N           3.5567    1.3856   36.6619 N.3     1  UNL1       -0.2696
     14 C           4.4534    0.1835   36.6868 C.3     1  UNL1        0.0740
     15 C           4.8775   -0.4627   35.4012 C.3     1  UNL1        0.0413
     16 C           3.1327    2.0318   37.9474 C.3     1  UNL1        0.1172
     17 C           2.0052    1.8280   38.9155 C.3     1  UNL1        0.1606
     18 O           2.5330    2.9455   39.7656 O.3     1  UNL1       -0.3507
     19 C           3.6605    3.1493   38.7975 C.3     1  UNL1        0.1606
     20 C           6.5251   -3.1374   27.6629 C.3     1  UNL1        0.1177
     21 O           7.1302   -4.6708   25.1565 O.2     1  UNL1       -0.2526
     22 C           6.1341   -3.5497   25.1277 C.2     1  UNL1        0.3047
     23 N           5.8315   -2.7830   26.3809 N.am    1  UNL1       -0.2847
     24 N           5.4406   -3.1953   23.8457 N.am    1  UNL1       -0.2560
     25 C           5.6396   -3.8688   22.5203 C.3     1  UNL1        0.1218
     26 C           4.7483   -3.1949   21.5195 C.ar    1  UNL1       -0.0016
     27 C           4.5226   -3.4330   20.0558 C.ar    1  UNL1        0.0178
     28 C           3.5472   -2.5811   19.2991 C.ar    1  UNL1        0.0986
     29 N           2.7973   -1.4912   20.0060 N.ar    1  UNL1       -0.2426
     30 C           3.0230   -1.2531   21.4697 C.ar    1  UNL1        0.0960
     31 C           3.9985   -2.1050   22.2264 C.ar    1  UNL1        0.0146
     32 C           4.4264   -2.1052   23.6641 C.3     1  UNL1        0.1233
     33 H           5.1778   -2.0472   26.3620 H       1  UNL1        0.1513
@<TRIPOS>BOND
     1    21    22    2
     2    22    23   am
     3    23    20    1
     4    20     1    1
     5     1     2   ar
     6     2     3   ar
     7     3     4   ar
     8     4     7    1
     9     7     8    2
    10     7     9    2
    11     7    10    1
    12    10    11    1
    13    11    12    1
    14    12    13    1
    15    13    16    1
    16    16    17    1
    17    17    18    1
    18    18    19    1
    19    13    14    1
    20    14    15    1
    21     4     5   ar
    22     5     6   ar
    23    22    24   am
    24    24    25    1
    25    25    26    1
    26    26    27   ar
    27    27    28   ar
    28    28    29   ar
    29    29    30   ar
    30    30    31   ar
    31    31    32    1
    32     6     1   ar
    33    32    24    1
    34    15    10    1
    35    31    26   ar
    36    19    16    1
    37    23    33    1
@<TRIPOS>MOLECULE
*****
 33 37 0 0 0
SMALL
GASTEIGER

@<TRIPOS>ATOM
      1 C           1.8096    1.1991   27.0379 C.ar    1  UNL1       -0.0024
      2 C           3.1976    1.4798   27.5324 C.ar    1  UNL1       -0.0013
      3 C           3.4711    1.5391   29.0061 C.ar    1  UNL1        0.0181
      4 C           2.3566    1.3175   29.9853 C.ar    1  UNL1        0.1056
      5 C           0.9685    1.0368   29.4906 C.ar    1  UNL1        0.0181
      6 C           0.6951    0.9776   28.0170 C.ar    1  UNL1       -0.0013
      7 S           2.6300    1.3768   31.4589 S.O2    1  UNL1        0.0071
      8 O           1.1552    1.3715   31.7327 O.2     1  UNL1       -0.1687
      9 O           4.1047    1.3821   31.1851 O.2     1  UNL1       -0.1687
     10 C           2.9034    1.4360   32.9325 C.3     1  UNL1        0.1366
     11 C           2.1477    2.4009   33.7974 C.3     1  UNL1        0.0413
     12 C           2.4211    2.4602   35.2711 C.3     1  UNL1        0.0740
     13 N           3.4502    1.5545   35.8799 N.3     1  UNL1       -0.2696
     14 C           4.2059    0.5896   35.0152 C.3     1  UNL1        0.0740
     15 C           3.9325    0.5304   33.5414 C.3     1  UNL1        0.0413
     16 C           3.7237    1.6137   37.3536 C.3     1  UNL1        0.1172
     17 C           3.0438    1.0826   38.5807 C.3     1  UNL1        0.1606
     18 O           4.1103    1.6975   39.4378 O.3     1  UNL1       -0.3507
     19 C           4.7901    2.2286   38.2107 C.3     1  UNL1        0.1606
     20 C           1.5362    1.1398   25.5642 C.3     1  UNL1        0.1177
     21 O           1.0721    1.0990   22.6006 O.2     1  UNL1       -0.2526
     22 C           2.0496    0.1446   23.2199 C.2     1  UNL1        0.3047
     23 N           2.2817    0.1650   24.7016 N.am    1  UNL1       -0.2847
     24 N           2.7951   -0.8302   22.3573 N.am    1  UNL1       -0.2560
     25 C           2.6683   -0.9670   20.8690 C.3     1  UNL1        0.1218
     26 C           3.5932   -2.0607   20.4235 C.ar    1  UNL1       -0.0016
     27 C           3.8896   -2.6353   19.0700 C.ar    1  UNL1        0.0178
     28 C           4.8844   -3.7491   18.9296 C.ar    1  UNL1        0.0986
     29 N           5.5827   -4.2884   20.1426 N.ar    1  UNL1       -0.2426
     30 C           5.2863   -3.7138   21.4961 C.ar    1  UNL1        0.0960
     31 C           4.2915   -2.6000   21.6365 C.ar    1  UNL1        0.0146
     32 C           3.7983   -1.8395   22.8317 C.3     1  UNL1        0.1233
     33 H           2.9233   -0.4614   25.1081 H       1  UNL1        0.1513
@<TRIPOS>BOND
     1    21    22    2
     2    22    23   am
     3    23    20    1
     4    20     1    1
     5     1     2   ar
     6     2     3   ar
     7     3     4   ar
     8     4     7    1
     9     7     8    2
    10     7     9    2
    11     7    10    1
    12    10    11    1
    13    11    12    1
    14    12    13    1
    15    13    16    1
    16    16    17    1
    17    17    18    1
    18    18    19    1
    19    13    14    1
    20    14    15    1
    21     4     5   ar
    22     5     6   ar
    23    22    24   am
    24    24    25    1
    25    25    26    1
    26    26    27   ar
    27    27    28   ar
    28    28    29   ar
    29    29    30   ar
    30    30    31   ar
    31    31    32    1
    32     6     1   ar
    33    32    24    1
    34    15    10    1
    35    31    26   ar
    36    19    16    1
    37    23    33    1
@<TRIPOS>MOLECULE
*****
 33 37 0 0 0
SMALL
GASTEIGER

@<TRIPOS>ATOM
      1 C           4.7806   -2.8604   22.3631 C.ar    1  UNL1       -0.0024
      2 C           4.1178   -1.8840   23.2890 C.ar    1  UNL1       -0.0013
      3 C           3.1643   -0.8623   22.7440 C.ar    1  UNL1        0.0181
      4 C           2.8736   -0.8171   21.2731 C.ar    1  UNL1        0.1056
      5 C           3.5364   -1.7936   20.3473 C.ar    1  UNL1        0.0181
      6 C           4.4899   -2.8152   20.8923 C.ar    1  UNL1       -0.0013
      7 S           1.9200    0.2045   20.7281 S.O2    1  UNL1        0.0071
      8 O           1.0557   -0.8933   20.1825 O.2     1  UNL1       -0.1687
      9 O           2.7844    1.3023   21.2736 O.2     1  UNL1       -0.1687
     10 C           0.9665    1.2261   20.1831 C.3     1  UNL1        0.1366
     11 C           1.0745    1.6650   18.7527 C.3     1  UNL1        0.0413
     12 C           0.1210    2.6866   18.2077 C.3     1  UNL1        0.0740
     13 N          -0.9405    3.2693   19.0929 N.3     1  UNL1       -0.2696
     14 C          -1.0485    2.8304   20.5232 C.3     1  UNL1        0.0740
     15 C          -0.0950    1.8088   21.0683 C.3     1  UNL1        0.0413
     16 C          -1.8940    4.2909   18.5479 C.3     1  UNL1        0.1172
     17 C          -3.3601    4.3110   18.2314 C.3     1  UNL1        0.1606
     18 O          -3.2426    5.7357   17.7771 O.3     1  UNL1       -0.3507
     19 C          -1.7765    5.7156   18.0936 C.3     1  UNL1        0.1606
     20 C           5.7342   -3.8821   22.9082 C.3     1  UNL1        0.1177
     21 O           7.5404   -6.0099   24.0081 O.2     1  UNL1       -0.2526
     22 C           6.8658   -5.0448   24.9374 C.2     1  UNL1        0.3047
     23 N           5.9627   -3.9809   24.3874 N.am    1  UNL1       -0.2847
     24 N           7.0942   -5.1436   26.4166 N.am    1  UNL1       -0.2560
     25 C           7.9654   -6.1494   27.1089 C.3     1  UNL1        0.1218
     26 C           7.9012   -5.8814   28.5834 C.ar    1  UNL1       -0.0016
     27 C           8.5545   -6.5527   29.7549 C.ar    1  UNL1        0.0178
     28 C           8.2969   -6.0526   31.1454 C.ar    1  UNL1        0.0986
     29 N           7.3860   -4.8811   31.3643 N.ar    1  UNL1       -0.2426
     30 C           6.7327   -4.2098   30.1928 C.ar    1  UNL1        0.0960
     31 C           6.9903   -4.7100   28.8023 C.ar    1  UNL1        0.0146
     32 C           6.4916   -4.2540   27.4632 C.3     1  UNL1        0.1233
     33 H           5.5199   -3.3475   24.9972 H       1  UNL1        0.1513
@<TRIPOS>BOND
     1    21    22    2
     2    22    23   am
     3    23    20    1
     4    20     1    1
     5     1     2   ar
     6     2     3   ar
     7     3     4   ar
     8     4     7    1
     9     7     8    2
    10     7     9    2
    11     7    10    1
    12    10    11    1
    13    11    12    1
    14    12    13    1
    15    13    16    1
    16    16    17    1
    17    17    18    1
    18    18    19    1
    19    13    14    1
    20    14    15    1
    21     4     5   ar
    22     5     6   ar
    23    22    24   am
    24    24    25    1
    25    25    26    1
    26    26    27   ar
    27    27    28   ar
    28    28    29   ar
    29    29    30   ar
    30    30    31   ar
    31    31    32    1
    32     6     1   ar
    33    32    24    1
    34    15    10    1
    35    31    26   ar
    36    19    16    1
    37    23    33    1
@<TRIPOS>MOLECULE
*****
 33 37 0 0 0
SMALL
GASTEIGER

@<TRIPOS>ATOM
      1 C           0.4115    1.4083   26.4167 C.ar    1  UNL1       -0.0024
      2 C           1.8812    1.5085   26.6993 C.ar    1  UNL1       -0.0013
      3 C           2.3746    1.5044   28.1158 C.ar    1  UNL1        0.0181
      4 C           1.3982    1.4002   29.2498 C.ar    1  UNL1        0.1056
      5 C          -0.0716    1.3001   28.9671 C.ar    1  UNL1        0.0181
      6 C          -0.5649    1.3041   27.5506 C.ar    1  UNL1       -0.0013
      7 S           1.8915    1.3961   30.6663 S.O2    1  UNL1        0.0071
      8 O           3.3077    1.3632   30.1730 O.2     1  UNL1       -0.1687
      9 O           0.4754    1.4291   31.1596 O.2     1  UNL1       -0.1687
     10 C           2.3848    1.3920   32.0828 C.3     1  UNL1        0.1366
     11 C           3.4448    0.4183   32.5051 C.3     1  UNL1        0.0413
     12 C           3.9381    0.4142   33.9216 C.3     1  UNL1        0.0740
     13 N           3.3715    1.3839   34.9159 N.3     1  UNL1       -0.2696
     14 C           2.3116    2.3576   34.4937 C.3     1  UNL1        0.0740
     15 C           1.8182    2.3617   33.0771 C.3     1  UNL1        0.0413
     16 C           3.8648    1.3798   36.3325 C.3     1  UNL1        0.1172
     17 C           3.4112    2.0109   37.6154 C.3     1  UNL1        0.1606
     18 O           4.5625    1.3741   38.3359 O.3     1  UNL1       -0.3507
     19 C           5.0161    0.7429   37.0529 C.3     1  UNL1        0.1606
     20 C          -0.0818    1.4124   25.0001 C.3     1  UNL1        0.1177
     21 O          -0.1683    2.4849   22.1997 O.2     1  UNL1       -0.2526
     22 C           0.6868    1.2952   22.5211 C.2     1  UNL1        0.3047
     23 N           0.7301    0.7590   23.9213 N.am    1  UNL1       -0.2847
     24 N           1.4987    0.6418   21.4423 N.am    1  UNL1       -0.2560
     25 C           1.5563    1.0639   20.0040 C.3     1  UNL1        0.1218
     26 C           2.4888    0.1345   19.2851 C.ar    1  UNL1       -0.0016
     27 C           2.9326    0.0669   17.8539 C.ar    1  UNL1        0.0178
     28 C           3.8950   -0.9972   17.4166 C.ar    1  UNL1        0.0986
     29 N           4.4137   -1.9937   18.4106 N.ar    1  UNL1       -0.2426
     30 C           3.9700   -1.9261   19.8418 C.ar    1  UNL1        0.0960
     31 C           3.0075   -0.8620   20.2791 C.ar    1  UNL1        0.0146
     32 C           2.3956   -0.5484   21.6122 C.3     1  UNL1        0.1233
     33 H           1.2914   -0.0219   24.1322 H       1  UNL1        0.1513
@<TRIPOS>BOND
     1    21    22    2
     2    22    23   am
     3    23    20    1
     4    20     1    1
     5     1     2   ar
     6     2     3   ar
     7     3     4   ar
     8     4     7    1
     9     7     8    2
    10     7     9    2
    11     7    10    1
    12    10    11    1
    13    11    12    1
    14    12    13    1
    15    13    16    1
    16    16    17    1
    17    17    18    1
    18    18    19    1
    19    13    14    1
    20    14    15    1
    21     4     5   ar
    22     5     6   ar
    23    22    24   am
    24    24    25    1
    25    25    26    1
    26    26    27   ar
    27    27    28   ar
    28    28    29   ar
    29    29    30   ar
    30    30    31   ar
    31    31    32    1
    32     6     1   ar
    33    32    24    1
    34    15    10    1
    35    31    26   ar
    36    19    16    1
    37    23    33    1
@<TRIPOS>MOLECULE
*****
 33 37 0 0 0
SMALL
GASTEIGER

@<TRIPOS>ATOM
      1 C          -0.8307    2.4932   26.6760 C.ar    1  UNL1       -0.0024
      2 C          -0.3153    3.5771   27.5758 C.ar    1  UNL1       -0.0013
      3 C           0.4841    3.2230   28.7947 C.ar    1  UNL1        0.0181
      4 C           0.7680    1.7851   29.1139 C.ar    1  UNL1        0.1056
      5 C           0.2524    0.7012   28.2141 C.ar    1  UNL1        0.0181
      6 C          -0.5469    1.0553   26.9952 C.ar    1  UNL1       -0.0013
      7 S           1.5673    1.4311   30.3327 S.O2    1  UNL1        0.0071
      8 O           1.9133    2.8777   30.5260 O.2     1  UNL1       -0.1687
      9 O           1.2213   -0.0156   30.1394 O.2     1  UNL1       -0.1687
     10 C           2.3666    1.0770   31.5516 C.3     1  UNL1        0.1366
     11 C           3.1640   -0.1932   31.5827 C.3     1  UNL1        0.0413
     12 C           3.9633   -0.5472   32.8016 C.3     1  UNL1        0.0740
     13 N           3.9653    0.3688   33.9894 N.3     1  UNL1       -0.2696
     14 C           3.1680    1.6389   33.9583 C.3     1  UNL1        0.0740
     15 C           2.3686    1.9931   32.7394 C.3     1  UNL1        0.0413
     16 C           4.7646    0.0148   35.2082 C.3     1  UNL1        0.1172
     17 C           4.5231    0.0690   36.6877 C.3     1  UNL1        0.1606
     18 O           5.8951   -0.4860   36.9321 O.3     1  UNL1       -0.3507
     19 C           6.1366   -0.5402   35.4526 C.3     1  UNL1        0.1606
     20 C          -1.6301    2.8472   25.4571 C.3     1  UNL1        0.1177
     21 O          -3.2218    3.5678   23.0185 O.2     1  UNL1       -0.2526
     22 C          -3.7221    3.9490   24.3802 C.2     1  UNL1        0.3047
     23 N          -2.9262    3.5887   25.5995 N.am    1  UNL1       -0.2847
     24 N          -5.0182    4.6905   24.5226 N.am    1  UNL1       -0.2560
     25 C          -5.9181    5.1166   23.4007 C.3     1  UNL1        0.1218
     26 C          -7.0980    5.8255   23.9966 C.ar    1  UNL1       -0.0016
     27 C          -8.3058    6.4616   23.3749 C.ar    1  UNL1        0.0178
     28 C          -9.3429    7.1098   24.2433 C.ar    1  UNL1        0.0986
     29 N          -9.1723    7.1219   25.7335 N.ar    1  UNL1       -0.2426
     30 C          -7.9645    6.4858   26.3553 C.ar    1  UNL1        0.0960
     31 C          -6.9274    5.8376   25.4869 C.ar    1  UNL1        0.0146
     32 C          -5.6420    5.1361   25.8119 C.3     1  UNL1        0.1233
     33 H          -3.2546    3.8389   26.4933 H       1  UNL1        0.1513
@<TRIPOS>BOND
     1    21    22    2
     2    22    23   am
     3    23    20    1
     4    20     1    1
     5     1     2   ar
     6     2     3   ar
     7     3     4   ar
     8     4     7    1
     9     7     8    2
    10     7     9    2
    11     7    10    1
    12    10    11    1
    13    11    12    1
    14    12    13    1
    15    13    16    1
    16    16    17    1
    17    17    18    1
    18    18    19    1
    19    13    14    1
    20    14    15    1
    21     4     5   ar
    22     5     6   ar
    23    22    24   am
    24    24    25    1
    25    25    26    1
    26    26    27   ar
    27    27    28   ar
    28    28    29   ar
    29    29    30   ar
    30    30    31   ar
    31    31    32    1
    32     6     1   ar
    33    32    24    1
    34    15    10    1
    35    31    26   ar
    36    19    16    1
    37    23    33    1
@<TRIPOS>MOLECULE
*****
 33 37 0 0 0
SMALL
GASTEIGER

@<TRIPOS>ATOM
      1 C           0.2180    3.2734   28.4926 C.ar    1  UNL1       -0.0024
      2 C          -0.2860    4.6131   28.0440 C.ar    1  UNL1       -0.0013
      3 C          -1.1842    4.7140   26.8468 C.ar    1  UNL1        0.0181
      4 C          -1.5783    3.4753   26.0983 C.ar    1  UNL1        0.1056
      5 C          -1.0742    2.1356   26.5469 C.ar    1  UNL1        0.0181
      6 C          -0.1761    2.0347   27.7441 C.ar    1  UNL1       -0.0013
      7 S          -2.4764    3.5762   24.9011 S.O2    1  UNL1        0.0071
      8 O          -3.6590    3.7651   25.8042 O.2     1  UNL1       -0.1687
      9 O          -1.2938    3.3872   23.9980 O.2     1  UNL1       -0.1687
     10 C          -3.3745    3.6771   23.7040 C.3     1  UNL1        0.1366
     11 C          -2.7852    3.8763   22.3390 C.3     1  UNL1        0.0413
     12 C          -3.6833    3.9772   21.1418 C.3     1  UNL1        0.0740
     13 N          -5.1707    3.8789   21.3096 N.3     1  UNL1       -0.2696
     14 C          -5.7599    3.6796   22.6745 C.3     1  UNL1        0.0740
     15 C          -4.8618    3.5787   23.8718 C.3     1  UNL1        0.0413
     16 C          -6.0688    3.9798   20.1125 C.3     1  UNL1        0.1172
     17 C          -7.1859    4.8911   19.6984 C.3     1  UNL1        0.1606
     18 O          -7.3390    4.1225   18.4194 O.3     1  UNL1       -0.3507
     19 C          -6.2219    3.2111   18.8335 C.3     1  UNL1        0.1606
     20 C           1.1162    3.1725   29.6898 C.3     1  UNL1        0.1177
     21 O           1.4197    1.5993   32.2260 O.2     1  UNL1       -0.2526
     22 C           2.2855    1.2869   31.0416 C.2     1  UNL1        0.3047
     23 N           2.1337    2.0735   29.7735 N.am    1  UNL1       -0.2847
     24 N           3.3030    0.1880   31.1253 N.am    1  UNL1       -0.2560
     25 C           3.5676   -0.6795   32.3200 C.3     1  UNL1        0.1218
     26 C           4.6627   -1.6400   31.9620 C.ar    1  UNL1       -0.0016
     27 C           5.3378   -2.7286   32.7425 C.ar    1  UNL1        0.0178
     28 C           6.4250   -3.5434   32.1069 C.ar    1  UNL1        0.0986
     29 N           6.8372   -3.2696   30.6909 N.ar    1  UNL1       -0.2426
     30 C           6.1622   -2.1810   29.9105 C.ar    1  UNL1        0.0960
     31 C           5.0749   -1.3662   30.5460 C.ar    1  UNL1        0.0146
     32 C           4.2345   -0.2364   30.0289 C.3     1  UNL1        0.1233
     33 H           2.7019    1.8686   28.9961 H       1  UNL1        0.1513
@<TRIPOS>BOND
     1    21    22    2
     2    22    23   am
     3    23    20    1
     4    20     1    1
     5     1     2   ar
     6     2     3   ar
     7     3     4   ar
     8     4     7    1
     9     7     8    2
    10     7     9    2
    11     7    10    1
    12    10    11    1
    13    11    12    1
    14    12    13    1
    15    13    16    1
    16    16    17    1
    17    17    18    1
    18    18    19    1
    19    13    14    1
    20    14    15    1
    21     4     5   ar
    22     5     6   ar
    23    22    24   am
    24    24    25    1
    25    25    26    1
    26    26    27   ar
    27    27    28   ar
    28    28    29   ar
    29    29    30   ar
    30    30    31   ar
    31    31    32    1
    32     6     1   ar
    33    32    24    1
    34    15    10    1
    35    31    26   ar
    36    19    16    1
    37    23    33    1
@<TRIPOS>MOLECULE
*****
 33 37 0 0 0
SMALL
GASTEIGER

@<TRIPOS>ATOM
      1 C           5.4931   -1.9685   20.5532 C.ar    1  UNL1       -0.0024
      2 C           4.1084   -2.4045   20.9308 C.ar    1  UNL1       -0.0013
      3 C           2.9423   -1.4933   20.6860 C.ar    1  UNL1        0.0181
      4 C           3.1608   -0.1461   20.0636 C.ar    1  UNL1        0.1056
      5 C           4.5456    0.2899   19.6860 C.ar    1  UNL1        0.0181
      6 C           5.7117   -0.6213   19.9308 C.ar    1  UNL1       -0.0013
      7 S           1.9948    0.7651   19.8188 S.O2    1  UNL1        0.0071
      8 O           2.9327    1.9269   19.6758 O.2     1  UNL1       -0.1687
      9 O           1.0569   -0.3967   19.9618 O.2     1  UNL1       -0.1687
     10 C           0.8287    1.6763   19.5740 C.3     1  UNL1        0.1366
     11 C           0.6619    2.3388   18.2386 C.3     1  UNL1        0.0413
     12 C          -0.5041    3.2499   17.9938 C.3     1  UNL1        0.0740
     13 N          -1.5035    3.4987   19.0844 N.3     1  UNL1       -0.2696
     14 C          -1.3368    2.8362   20.4198 C.3     1  UNL1        0.0740
     15 C          -0.1707    1.9250   20.6646 C.3     1  UNL1        0.0413
     16 C          -2.6696    4.4099   18.8396 C.3     1  UNL1        0.1172
     17 C          -2.8765    5.6873   18.0810 C.3     1  UNL1        0.1606
     18 O          -4.3187    5.6986   18.4934 O.3     1  UNL1       -0.3507
     19 C          -4.1118    4.4212   19.2519 C.3     1  UNL1        0.1606
     20 C           6.6592   -2.8797   20.7980 C.3     1  UNL1        0.1177
     21 O           8.0491   -5.5273   21.0395 O.2     1  UNL1       -0.2526
     22 C           7.5467   -4.8291   22.2684 C.2     1  UNL1        0.3047
     23 N           6.8518   -3.5053   22.1476 N.am    1  UNL1       -0.2847
     24 N           7.7393   -5.4547   23.6180 N.am    1  UNL1       -0.2560
     25 C           8.4117   -6.7669   23.8937 C.3     1  UNL1        0.1218
     26 C           8.3812   -7.0012   25.3750 C.ar    1  UNL1       -0.0016
     27 C           8.8936   -8.1267   26.2239 C.ar    1  UNL1        0.0178
     28 C           8.7148   -8.0848   27.7126 C.ar    1  UNL1        0.0986
     29 N           8.0235   -6.9174   28.3524 N.ar    1  UNL1       -0.2426
     30 C           7.5111   -5.7919   27.5035 C.ar    1  UNL1        0.0960
     31 C           7.6900   -5.8338   26.0148 C.ar    1  UNL1        0.0146
     32 C           7.2932   -4.8781   24.9289 C.3     1  UNL1        0.1233
     33 H           6.5221   -3.0471   22.9542 H       1  UNL1        0.1513
@<TRIPOS>BOND
     1    21    22    2
     2    22    23   am
     3    23    20    1
     4    20     1    1
     5     1     2   ar
     6     2     3   ar
     7     3     4   ar
     8     4     7    1
     9     7     8    2
    10     7     9    2
    11     7    10    1
    12    10    11    1
    13    11    12    1
    14    12    13    1
    15    13    16    1
    16    16    17    1
    17    17    18    1
    18    18    19    1
    19    13    14    1
    20    14    15    1
    21     4     5   ar
    22     5     6   ar
    23    22    24   am
    24    24    25    1
    25    25    26    1
    26    26    27   ar
    27    27    28   ar
    28    28    29   ar
    29    29    30   ar
    30    30    31   ar
    31    31    32    1
    32     6     1   ar
    33    32    24    1
    34    15    10    1
    35    31    26   ar
    36    19    16    1
    37    23    33    1
@<TRIPOS>MOLECULE
*****
 33 37 0 0 0
SMALL
GASTEIGER

@<TRIPOS>ATOM
      1 C           3.8657   -1.0568   27.6409 C.ar    1  UNL1       -0.0024
      2 C           5.1193   -0.8267   28.4318 C.ar    1  UNL1       -0.0013
      3 C           5.0336   -0.3497   29.8514 C.ar    1  UNL1        0.0181
      4 C           3.6942   -0.1029   30.4801 C.ar    1  UNL1        0.1056
      5 C           2.4406   -0.3331   29.6892 C.ar    1  UNL1        0.0181
      6 C           2.5263   -0.8100   28.2696 C.ar    1  UNL1       -0.0013
      7 S           3.6085    0.3740   31.8996 S.O2    1  UNL1        0.0071
      8 O           3.8342    1.7837   31.4397 O.2     1  UNL1       -0.1687
      9 O           3.3827   -1.0357   32.3596 O.2     1  UNL1       -0.1687
     10 C           3.5227    0.8509   33.3192 C.3     1  UNL1        0.1366
     11 C           4.3826    0.2217   34.3750 C.3     1  UNL1        0.0413
     12 C           4.2969    0.6986   35.7946 C.3     1  UNL1        0.0740
     13 N           3.3513    1.8047   36.1584 N.3     1  UNL1       -0.2696
     14 C           2.4914    2.4339   35.1026 C.3     1  UNL1        0.0740
     15 C           2.5771    1.9570   33.6830 C.3     1  UNL1        0.0413
     16 C           3.2655    2.2816   37.5779 C.3     1  UNL1        0.1172
     17 C           4.0904    2.0836   38.8150 C.3     1  UNL1        0.1606
     18 O           3.1443    2.9561   39.5856 O.3     1  UNL1       -0.3507
     19 C           2.3195    3.1542   38.3485 C.3     1  UNL1        0.1606
     20 C           3.9513   -1.5337   26.2213 C.3     1  UNL1        0.1177
     21 O           4.2405   -2.4042   23.3650 O.2     1  UNL1       -0.2526
     22 C           3.3998   -1.2089   23.7033 C.2     1  UNL1        0.3047
     23 N           3.2552   -0.7737   25.1315 N.am    1  UNL1       -0.2847
     24 N           2.7037   -0.4489   22.6135 N.am    1  UNL1       -0.2560
     25 C           2.7547   -0.7637   21.1478 C.3     1  UNL1        0.1218
     26 C           1.9169    0.2501   20.4264 C.ar    1  UNL1       -0.0016
     27 C           1.5985    0.4376   18.9727 C.ar    1  UNL1        0.0178
     28 C           0.7112    1.5665   18.5389 C.ar    1  UNL1        0.0986
     29 N           0.1423    2.5079   19.5587 N.ar    1  UNL1       -0.2426
     30 C           0.4607    2.3203   21.0125 C.ar    1  UNL1        0.0960
     31 C           1.3480    1.1914   21.4463 C.ar    1  UNL1        0.0146
     32 C           1.8343    0.7595   22.7980 C.3     1  UNL1        0.1233
     33 H           2.7034    0.0108   25.3535 H       1  UNL1        0.1513
@<TRIPOS>BOND
     1    21    22    2
     2    22    23   am
     3    23    20    1
     4    20     1    1
     5     1     2   ar
     6     2     3   ar
     7     3     4   ar
     8     4     7    1
     9     7     8    2
    10     7     9    2
    11     7    10    1
    12    10    11    1
    13    11    12    1
    14    12    13    1
    15    13    16    1
    16    16    17    1
    17    17    18    1
    18    18    19    1
    19    13    14    1
    20    14    15    1
    21     4     5   ar
    22     5     6   ar
    23    22    24   am
    24    24    25    1
    25    25    26    1
    26    26    27   ar
    27    27    28   ar
    28    28    29   ar
    29    29    30   ar
    30    30    31   ar
    31    31    32    1
    32     6     1   ar
    33    32    24    1
    34    15    10    1
    35    31    26   ar
    36    19    16    1
    37    23    33    1
@<TRIPOS>MOLECULE
*****
 33 37 0 0 0
SMALL
GASTEIGER

@<TRIPOS>ATOM
      1 C          -0.2216    2.8677   18.9698 C.ar    1  UNL1       -0.0024
      2 C          -0.4020    2.5273   20.4195 C.ar    1  UNL1       -0.0013
      3 C          -1.6187    3.0039   21.1560 C.ar    1  UNL1        0.0181
      4 C          -2.6550    3.8210   20.4429 C.ar    1  UNL1        0.1056
      5 C          -2.4745    4.1614   18.9932 C.ar    1  UNL1        0.0181
      6 C          -1.2579    3.6848   18.2567 C.ar    1  UNL1       -0.0013
      7 S          -3.8717    4.2976   21.1794 S.O2    1  UNL1        0.0071
      8 O          -3.4406    5.7192   20.9716 O.2     1  UNL1       -0.1687
      9 O          -4.3027    2.8760   21.3872 O.2     1  UNL1       -0.1687
     10 C          -5.0883    4.7742   21.9159 C.3     1  UNL1        0.1366
     11 C          -5.5571    6.1898   21.7530 C.3     1  UNL1        0.0413
     12 C          -6.7738    6.6664   22.4895 C.3     1  UNL1        0.0740
     13 N          -7.5218    5.7275   23.3890 N.3     1  UNL1       -0.2696
     14 C          -7.0531    4.3120   23.5519 C.3     1  UNL1        0.0740
     15 C          -5.8363    3.8353   22.8154 C.3     1  UNL1        0.0413
     16 C          -8.7384    6.2041   24.1255 C.3     1  UNL1        0.1172
     17 C          -9.3580    7.5432   24.3955 C.3     1  UNL1        0.1606
     18 O         -10.4592    6.8782   25.1671 O.3     1  UNL1       -0.3507
     19 C          -9.8396    5.5391   24.8971 C.3     1  UNL1        0.1606
     20 C           0.9952    2.3911   18.2332 C.3     1  UNL1        0.1177
     21 O           3.9944    2.3318   18.2529 O.2     1  UNL1       -0.2526
     22 C           3.2176    1.1312   18.7057 C.2     1  UNL1        0.3047
     23 N           1.7180    1.1609   18.6959 N.am    1  UNL1       -0.2847
     24 N           3.9404   -0.0990   19.1684 N.am    1  UNL1       -0.2560
     25 C           5.4286   -0.2752   19.2335 C.3     1  UNL1        0.1218
     26 C           5.7099   -1.6541   19.7525 C.ar    1  UNL1       -0.0016
     27 C           6.9930   -2.3815   20.0253 C.ar    1  UNL1        0.0178
     28 C           6.9618   -3.7849   20.5539 C.ar    1  UNL1        0.0986
     29 N           5.6474   -4.4610   20.8097 N.ar    1  UNL1       -0.2426
     30 C           4.3643   -3.7336   20.5369 C.ar    1  UNL1        0.0960
     31 C           4.3955   -2.3302   20.0083 C.ar    1  UNL1        0.0146
     32 C           3.3020   -1.3690   19.6473 C.3     1  UNL1        0.1233
     33 H           1.2081    0.3729   18.9931 H       1  UNL1        0.1513
@<TRIPOS>BOND
     1    21    22    2
     2    22    23   am
     3    23    20    1
     4    20     1    1
     5     1     2   ar
     6     2     3   ar
     7     3     4   ar
     8     4     7    1
     9     7     8    2
    10     7     9    2
    11     7    10    1
    12    10    11    1
    13    11    12    1
    14    12    13    1
    15    13    16    1
    16    16    17    1
    17    17    18    1
    18    18    19    1
    19    13    14    1
    20    14    15    1
    21     4     5   ar
    22     5     6   ar
    23    22    24   am
    24    24    25    1
    25    25    26    1
    26    26    27   ar
    27    27    28   ar
    28    28    29   ar
    29    29    30   ar
    30    30    31   ar
    31    31    32    1
    32     6     1   ar
    33    32    24    1
    34    15    10    1
    35    31    26   ar
    36    19    16    1
    37    23    33    1
