@<TRIPOS>MOLECULE
*****
 37 41 0 0 0
SMALL
GASTEIGER

@<TRIPOS>ATOM
      1 C          -9.5957  -21.3700   17.2273 C.3     1  UNL1        0.0334
      2 C          -8.7664  -20.8323   18.3556 C.ar    1  UNL1        0.0057
      3 C          -9.3543  -19.8352   19.3096 C.ar    1  UNL1       -0.0008
      4 C          -8.5250  -19.2976   20.4380 C.ar    1  UNL1        0.0140
      5 C          -8.8305  -18.3128   21.5275 C.ar    1  UNL1        0.0120
      6 C          -7.6021  -18.1636   22.3752 C.ar    1  UNL1        0.1124
      7 N          -6.5374  -19.0562   21.8096 N.ar    1  UNL1       -0.3195
      8 C          -7.1078  -19.7569   20.6123 C.ar    1  UNL1        0.0622
      9 C          -6.5199  -20.7540   19.6583 C.ar    1  UNL1        0.0465
     10 C          -7.3492  -21.2917   18.5300 C.ar    1  UNL1        0.1376
     11 F          -6.7612  -22.2888   17.5760 F       1  UNL1       -0.2045
     12 C         -10.1353  -17.6021   21.7332 C.3     1  UNL1        0.1243
     13 C         -11.3498  -18.3722   22.1598 C.2     1  UNL1       -0.0115
     14 C         -12.6546  -17.6616   22.3655 C.2     1  UNL1        0.0141
     15 C         -12.7450  -16.1807   22.1446 C.2     1  UNL1        0.0883
     16 N         -11.5306  -15.4106   21.7179 N.am    1  UNL1       -0.1774
     17 C         -10.2257  -16.1212   21.5122 C.2     1  UNL1        0.2534
     18 O          -9.0113  -15.3510   21.0856 O.2     1  UNL1       -0.2723
     19 C          -7.4627  -17.2775   23.5775 C.2     1  UNL1        0.2796
     20 O          -6.2070  -16.4828   23.7820 O.2     1  UNL1       -0.2670
     21 N          -8.5789  -17.1861   24.5753 N.am    1  UNL1       -0.1841
     22 H          -9.4031  -17.7076   24.4411 H       1  UNL1        0.1765
     23 S          -8.4395  -16.3000   25.7775 S.O2    1  UNL1        0.0545
     24 O          -8.3429  -15.1004   24.8821 O.2     1  UNL1       -0.1545
     25 O          -8.5362  -17.4996   26.6728 O.2     1  UNL1       -0.1545
     26 C          -8.3001  -15.4139   26.9798 C.3     1  UNL1        0.1490
     27 C          -8.9260  -14.5947   28.0693 C.3     1  UNL1        0.0273
     28 C          -7.4328  -14.6984   27.9726 C.3     1  UNL1        0.0273
     29 C          -5.1465  -19.2193   22.3469 C.3     1  UNL1        0.1351
     30 C          -4.0033  -18.4933   21.7019 C.ar    1  UNL1        0.0301
     31 C          -3.6418  -18.7811   20.2748 C.ar    1  UNL1        0.0295
     32 C          -2.4986  -18.0552   19.6296 C.ar    1  UNL1        0.1400
     33 F          -2.1371  -18.3429   18.2025 F       1  UNL1       -0.2042
     34 C          -1.7169  -17.0415   20.4115 C.ar    1  UNL1        0.0319
     35 C          -2.0783  -16.7538   21.8386 C.ar    1  UNL1        0.0317
     36 C          -3.2216  -17.4797   22.4838 C.ar    1  UNL1        0.1381
     37 F          -3.5830  -17.1919   23.9109 F       1  UNL1       -0.2044
@<TRIPOS>BOND
     1     1     2    1
     2     2     3   ar
     3     3     4   ar
     4     4     5   ar
     5     5    12    1
     6    12    13    1
     7    13    14    2
     8    14    15    1
     9    15    16    2
    10    16    17    1
    11    17    18    2
    12     5     6   ar
    13     6    19    1
    14    19    20    2
    15    19    21   am
    16    21    23    1
    17    23    24    2
    18    23    25    2
    19    23    26    1
    20    26    27    1
    21    27    28    1
    22     6     7   ar
    23     7    29    1
    24    29    30    1
    25    30    31   ar
    26    31    32   ar
    27    32    33    1
    28    32    34   ar
    29    34    35   ar
    30    35    36   ar
    31    36    37    1
    32     7     8   ar
    33     8     9   ar
    34     9    10   ar
    35    10    11    1
    36    10     2   ar
    37     8     4   ar
    38    17    12    1
    39    28    26    1
    40    36    30   ar
    41    21    22    1
@<TRIPOS>MOLECULE
*****
 37 41 0 0 0
SMALL
GASTEIGER

@<TRIPOS>ATOM
      1 C           5.1043   -1.8251   26.6395 C.3     1  UNL1        0.0334
      2 C           4.5312   -1.6465   25.2649 C.ar    1  UNL1        0.0057
      3 C           3.5004   -0.5861   25.0140 C.ar    1  UNL1       -0.0008
      4 C           2.9273   -0.4075   23.6393 C.ar    1  UNL1        0.0140
      5 C           1.9051    0.5454   23.0941 C.ar    1  UNL1        0.0120
      6 C           1.7312    0.2525   21.6333 C.ar    1  UNL1        0.1124
      7 N           2.6459   -0.8813   21.2757 N.ar    1  UNL1       -0.3195
      8 C           3.3851   -1.2892   22.5155 C.ar    1  UNL1        0.0622
      9 C           4.4159   -2.3496   22.7664 C.ar    1  UNL1        0.0465
     10 C           4.9890   -2.5282   24.1411 C.ar    1  UNL1        0.1376
     11 F           6.0199   -3.5886   24.3919 F       1  UNL1       -0.2045
     12 C           1.1836    1.6050   23.8729 C.3     1  UNL1        0.1243
     13 C           0.1667    1.2159   24.9046 C.2     1  UNL1       -0.0115
     14 C          -0.5549    2.2754   25.6835 C.2     1  UNL1        0.0141
     15 C          -0.2595    3.7242   25.4306 C.2     1  UNL1        0.0883
     16 N           0.7575    4.1133   24.3989 N.am    1  UNL1       -0.1774
     17 C           1.4790    3.0537   23.6200 C.2     1  UNL1        0.2534
     18 O           2.4960    3.4428   22.5883 O.2     1  UNL1       -0.2723
     19 C           0.8052    0.9679   20.6948 C.2     1  UNL1        0.2796
     20 O          -0.5890    0.4569   20.4822 O.2     1  UNL1       -0.2670
     21 N           1.2733    2.1941   19.9688 N.am    1  UNL1       -0.1841
     22 H           2.1884    2.5295   20.1083 H       1  UNL1        0.1765
     23 S           0.3473    2.9094   19.0303 S.O2    1  UNL1        0.0545
     24 O           0.6917    1.9322   17.9457 O.2     1  UNL1       -0.1545
     25 O           0.0029    3.8866   20.1150 O.2     1  UNL1       -0.1545
     26 C          -0.5788    3.6248   18.0918 C.3     1  UNL1        0.1490
     27 C          -1.9707    3.9612   17.6455 C.3     1  UNL1        0.0273
     28 C          -0.7908    4.5274   16.9127 C.3     1  UNL1        0.0273
     29 C           2.7951   -1.4989   19.9169 C.3     1  UNL1        0.1351
     30 C           4.0291   -1.2368   19.1054 C.ar    1  UNL1        0.0301
     31 C           4.2252    0.0971   18.4480 C.ar    1  UNL1        0.0295
     32 C           5.4591    0.3592   17.6364 C.ar    1  UNL1        0.1400
     33 F           5.6551    1.6932   16.9790 F       1  UNL1       -0.2042
     34 C           6.4971   -0.7126   17.4822 C.ar    1  UNL1        0.0319
     35 C           6.3011   -2.0466   18.1397 C.ar    1  UNL1        0.0317
     36 C           5.0670   -2.3087   18.9513 C.ar    1  UNL1        0.1381
     37 F           4.8711   -3.6426   19.6087 F       1  UNL1       -0.2044
@<TRIPOS>BOND
     1     1     2    1
     2     2     3   ar
     3     3     4   ar
     4     4     5   ar
     5     5    12    1
     6    12    13    1
     7    13    14    2
     8    14    15    1
     9    15    16    2
    10    16    17    1
    11    17    18    2
    12     5     6   ar
    13     6    19    1
    14    19    20    2
    15    19    21   am
    16    21    23    1
    17    23    24    2
    18    23    25    2
    19    23    26    1
    20    26    27    1
    21    27    28    1
    22     6     7   ar
    23     7    29    1
    24    29    30    1
    25    30    31   ar
    26    31    32   ar
    27    32    33    1
    28    32    34   ar
    29    34    35   ar
    30    35    36   ar
    31    36    37    1
    32     7     8   ar
    33     8     9   ar
    34     9    10   ar
    35    10    11    1
    36    10     2   ar
    37     8     4   ar
    38    17    12    1
    39    28    26    1
    40    36    30   ar
    41    21    22    1
@<TRIPOS>MOLECULE
*****
 37 41 0 0 0
SMALL
GASTEIGER

@<TRIPOS>ATOM
      1 C          -2.5156    7.3104   33.2748 C.3     1  UNL1        0.0334
      2 C          -1.3376    6.5101   33.7458 C.ar    1  UNL1        0.0057
      3 C          -0.6963    5.5096   32.8305 C.ar    1  UNL1       -0.0008
      4 C           0.4817    4.7093   33.3015 C.ar    1  UNL1        0.0140
      5 C           1.3148    3.6587   32.6291 C.ar    1  UNL1        0.0120
      6 C           2.3664    3.2095   33.5998 C.ar    1  UNL1        0.1124
      7 N           2.1832    3.9825   34.8722 N.ar    1  UNL1       -0.3195
      8 C           1.0184    4.9095   34.6878 C.ar    1  UNL1        0.0622
      9 C           0.3771    5.9099   35.6031 C.ar    1  UNL1        0.0465
     10 C          -0.8009    6.7102   35.1321 C.ar    1  UNL1        0.1376
     11 F          -1.4421    7.7107   36.0475 F       1  UNL1       -0.2045
     12 C           1.1289    3.1470   31.2313 C.3     1  UNL1        0.1243
     13 C           0.3808    1.8688   30.9939 C.2     1  UNL1       -0.0115
     14 C           0.1949    1.3571   29.5962 C.2     1  UNL1        0.0141
     15 C           0.7571    2.1237   28.4359 C.2     1  UNL1        0.0883
     16 N           1.5052    3.4020   28.6734 N.am    1  UNL1       -0.1774
     17 C           1.6911    3.9137   30.0711 C.2     1  UNL1        0.2534
     18 O           2.4392    5.1919   30.3085 O.2     1  UNL1       -0.2723
     19 C           3.4168    2.1698   33.3433 C.2     1  UNL1        0.2796
     20 O           4.8645    2.5605   33.3022 O.2     1  UNL1       -0.2670
     21 N           3.0196    0.7395   33.1278 N.am    1  UNL1       -0.1841
     22 H           2.0694    0.4831   33.1548 H       1  UNL1        0.1765
     23 S           4.0700   -0.3001   32.8713 S.O2    1  UNL1        0.0545
     24 O           4.0244    0.0155   31.4056 O.2     1  UNL1       -0.1545
     25 O           4.1155   -0.6156   34.3371 O.2     1  UNL1       -0.1545
     26 C           5.1204   -1.3398   32.6149 C.3     1  UNL1        0.1490
     27 C           6.5531   -1.7803   32.6712 C.3     1  UNL1        0.0273
     28 C           5.5071   -2.6999   32.1143 C.3     1  UNL1        0.0273
     29 C           3.0183    3.8516   36.1113 C.3     1  UNL1        0.1351
     30 C           2.6160    2.8885   37.1886 C.ar    1  UNL1        0.0301
     31 C           1.4455    3.1994   38.0738 C.ar    1  UNL1        0.0295
     32 C           1.0432    2.2363   39.1511 C.ar    1  UNL1        0.1400
     33 F          -0.1273    2.5472   40.0362 F       1  UNL1       -0.2042
     34 C           1.8112    0.9623   39.3432 C.ar    1  UNL1        0.0319
     35 C           2.9817    0.6514   38.4581 C.ar    1  UNL1        0.0317
     36 C           3.3840    1.6145   37.3808 C.ar    1  UNL1        0.1381
     37 F           4.5545    1.3036   36.4956 F       1  UNL1       -0.2044
@<TRIPOS>BOND
     1     1     2    1
     2     2     3   ar
     3     3     4   ar
     4     4     5   ar
     5     5    12    1
     6    12    13    1
     7    13    14    2
     8    14    15    1
     9    15    16    2
    10    16    17    1
    11    17    18    2
    12     5     6   ar
    13     6    19    1
    14    19    20    2
    15    19    21   am
    16    21    23    1
    17    23    24    2
    18    23    25    2
    19    23    26    1
    20    26    27    1
    21    27    28    1
    22     6     7   ar
    23     7    29    1
    24    29    30    1
    25    30    31   ar
    26    31    32   ar
    27    32    33    1
    28    32    34   ar
    29    34    35   ar
    30    35    36   ar
    31    36    37    1
    32     7     8   ar
    33     8     9   ar
    34     9    10   ar
    35    10    11    1
    36    10     2   ar
    37     8     4   ar
    38    17    12    1
    39    28    26    1
    40    36    30   ar
    41    21    22    1
@<TRIPOS>MOLECULE
*****
 37 41 0 0 0
SMALL
GASTEIGER

@<TRIPOS>ATOM
      1 C           1.0644    5.2974   34.2808 C.3     1  UNL1        0.0334
      2 C           1.3739    4.0395   33.5245 C.ar    1  UNL1        0.0057
      3 C           2.4477    3.1143   34.0151 C.ar    1  UNL1       -0.0008
      4 C           2.7572    1.8564   33.2588 C.ar    1  UNL1        0.0140
      5 C           3.7530    0.7605   33.4983 C.ar    1  UNL1        0.0120
      6 C           3.6040   -0.2494   32.3993 C.ar    1  UNL1        0.1124
      7 N           2.5162    0.2223   31.4806 N.ar    1  UNL1       -0.3195
      8 C           1.9928    1.5238   32.0118 C.ar    1  UNL1        0.0622
      9 C           0.9190    2.4490   31.5211 C.ar    1  UNL1        0.0465
     10 C           0.6095    3.7069   32.2775 C.ar    1  UNL1        0.1376
     11 F          -0.4644    4.6321   31.7868 F       1  UNL1       -0.2045
     12 C           4.7268    0.6874   34.6369 C.3     1  UNL1        0.1243
     13 C           4.2309    0.4622   36.0345 C.2     1  UNL1       -0.0115
     14 C           5.2046    0.3891   37.1732 C.2     1  UNL1        0.0141
     15 C           6.6742    0.5411   36.9141 C.2     1  UNL1        0.0883
     16 N           7.1701    0.7663   35.5165 N.am    1  UNL1       -0.1774
     17 C           6.1964    0.8394   34.3779 C.2     1  UNL1        0.2534
     18 O           6.6923    1.0646   32.9802 O.2     1  UNL1       -0.2723
     19 C           4.4027   -1.5099   32.2459 C.2     1  UNL1        0.2796
     20 O           3.9108   -2.7885   32.8568 O.2     1  UNL1       -0.2670
     21 N           5.6932   -1.4917   31.4816 N.am    1  UNL1       -0.1841
     22 H           6.0161   -0.6525   31.0806 H       1  UNL1        0.1765
     23 S           6.4918   -2.7521   31.3282 S.O2    1  UNL1        0.0545
     24 O           7.0388   -2.5741   32.7135 O.2     1  UNL1       -0.1545
     25 O           5.9448   -2.9300   29.9428 O.2     1  UNL1       -0.1545
     26 C           7.2904   -4.0126   31.1748 C.3     1  UNL1        0.1490
     27 C           8.5902   -4.6984   30.8743 C.3     1  UNL1        0.0273
     28 C           7.3739   -5.5099   31.2094 C.3     1  UNL1        0.0273
     29 C           2.0360   -0.4835   30.2472 C.3     1  UNL1        0.1351
     30 C           1.4868    0.3068   29.0966 C.ar    1  UNL1        0.0301
     31 C           2.3815    1.2340   28.3286 C.ar    1  UNL1        0.0295
     32 C           1.8324    2.0242   27.1780 C.ar    1  UNL1        0.1400
     33 F           2.7272    2.9514   26.4100 F       1  UNL1       -0.2042
     34 C           0.3885    1.8874   26.7954 C.ar    1  UNL1        0.0319
     35 C          -0.5063    0.9602   27.5633 C.ar    1  UNL1        0.0317
     36 C           0.0429    0.1699   28.7140 C.ar    1  UNL1        0.1381
     37 F          -0.8519   -0.7573   29.4820 F       1  UNL1       -0.2044
@<TRIPOS>BOND
     1     1     2    1
     2     2     3   ar
     3     3     4   ar
     4     4     5   ar
     5     5    12    1
     6    12    13    1
     7    13    14    2
     8    14    15    1
     9    15    16    2
    10    16    17    1
    11    17    18    2
    12     5     6   ar
    13     6    19    1
    14    19    20    2
    15    19    21   am
    16    21    23    1
    17    23    24    2
    18    23    25    2
    19    23    26    1
    20    26    27    1
    21    27    28    1
    22     6     7   ar
    23     7    29    1
    24    29    30    1
    25    30    31   ar
    26    31    32   ar
    27    32    33    1
    28    32    34   ar
    29    34    35   ar
    30    35    36   ar
    31    36    37    1
    32     7     8   ar
    33     8     9   ar
    34     9    10   ar
    35    10    11    1
    36    10     2   ar
    37     8     4   ar
    38    17    12    1
    39    28    26    1
    40    36    30   ar
    41    21    22    1
@<TRIPOS>MOLECULE
*****
 37 41 0 0 0
SMALL
GASTEIGER

@<TRIPOS>ATOM
      1 C           5.2925   -1.4183   26.6196 C.3     1  UNL1        0.0334
      2 C           4.5916   -1.2671   25.3020 C.ar    1  UNL1        0.0057
      3 C           3.7408   -0.0600   25.0394 C.ar    1  UNL1       -0.0008
      4 C           3.0399    0.0912   23.7219 C.ar    1  UNL1        0.0140
      5 C           2.1414    1.1634   23.1802 C.ar    1  UNL1        0.0120
      6 C           1.7361    0.7702   21.7906 C.ar    1  UNL1        0.1124
      7 N           2.3840   -0.5450   21.4734 N.ar    1  UNL1       -0.3195
      8 C           3.1897   -0.9646   22.6670 C.ar    1  UNL1        0.0622
      9 C           4.0406   -2.1717   22.9297 C.ar    1  UNL1        0.0465
     10 C           4.7415   -2.3229   24.2472 C.ar    1  UNL1        0.1376
     11 F           5.5923   -3.5301   24.5099 F       1  UNL1       -0.2045
     12 C           1.7220    2.4099   23.9015 C.3     1  UNL1        0.1243
     13 C           2.4210    3.7079   23.6245 C.2     1  UNL1       -0.0115
     14 C           2.0017    4.9544   24.3457 C.2     1  UNL1        0.0141
     15 C           0.8833    4.9030   25.3441 C.2     1  UNL1        0.0883
     16 N           0.1844    3.6050   25.6211 N.am    1  UNL1       -0.1774
     17 C           0.6037    2.3585   24.8999 C.2     1  UNL1        0.2534
     18 O          -0.0953    1.0605   25.1769 O.2     1  UNL1       -0.2723
     19 C           0.8402    1.5544   20.8782 C.2     1  UNL1        0.2796
     20 O          -0.6171    1.7011   21.2023 O.2     1  UNL1       -0.2670
     21 N           1.4014    2.1919   19.6419 N.am    1  UNL1       -0.1841
     22 H           2.3579    2.0956   19.4292 H       1  UNL1        0.1765
     23 S           0.5055    2.9761   18.7296 S.O2    1  UNL1        0.0545
     24 O           0.1972    1.7269   17.9586 O.2     1  UNL1       -0.1545
     25 O           0.8139    4.2253   19.5007 O.2     1  UNL1       -0.1545
     26 C          -0.3905    3.7604   17.8173 C.3     1  UNL1        0.1490
     27 C          -1.7643    4.0872   17.3116 C.3     1  UNL1        0.0273
     28 C          -0.5685    4.7919   16.7430 C.3     1  UNL1        0.0273
     29 C           2.2497   -1.3069   20.1883 C.3     1  UNL1        0.1351
     30 C           3.4657   -1.8894   19.5312 C.ar    1  UNL1        0.0301
     31 C           3.5493   -3.3664   19.2833 C.ar    1  UNL1        0.0295
     32 C           4.7653   -3.9491   18.6261 C.ar    1  UNL1        0.1400
     33 F           4.8488   -5.4261   18.3782 F       1  UNL1       -0.2042
     34 C           5.8978   -3.0547   18.2168 C.ar    1  UNL1        0.0319
     35 C           5.8143   -1.5777   18.4646 C.ar    1  UNL1        0.0317
     36 C           4.5982   -0.9950   19.1218 C.ar    1  UNL1        0.1381
     37 F           4.5147    0.4820   19.3697 F       1  UNL1       -0.2044
@<TRIPOS>BOND
     1     1     2    1
     2     2     3   ar
     3     3     4   ar
     4     4     5   ar
     5     5    12    1
     6    12    13    1
     7    13    14    2
     8    14    15    1
     9    15    16    2
    10    16    17    1
    11    17    18    2
    12     5     6   ar
    13     6    19    1
    14    19    20    2
    15    19    21   am
    16    21    23    1
    17    23    24    2
    18    23    25    2
    19    23    26    1
    20    26    27    1
    21    27    28    1
    22     6     7   ar
    23     7    29    1
    24    29    30    1
    25    30    31   ar
    26    31    32   ar
    27    32    33    1
    28    32    34   ar
    29    34    35   ar
    30    35    36   ar
    31    36    37    1
    32     7     8   ar
    33     8     9   ar
    34     9    10   ar
    35    10    11    1
    36    10     2   ar
    37     8     4   ar
    38    17    12    1
    39    28    26    1
    40    36    30   ar
    41    21    22    1
@<TRIPOS>MOLECULE
*****
 37 41 0 0 0
SMALL
GASTEIGER

@<TRIPOS>ATOM
      1 C          -2.6954    3.6056   20.1248 C.3     1  UNL1        0.0334
      2 C          -1.8383    3.3363   21.3260 C.ar    1  UNL1        0.0057
      3 C          -0.6149    2.4780   21.1971 C.ar    1  UNL1       -0.0008
      4 C           0.2422    2.2087   22.3983 C.ar    1  UNL1        0.0140
      5 C           1.4979    1.4075   22.5760 C.ar    1  UNL1        0.0120
      6 C           1.9076    1.5013   24.0159 C.ar    1  UNL1        0.1124
      7 N           0.9052    2.3604   24.7281 N.ar    1  UNL1       -0.3195
      8 C          -0.1241    2.7976   23.7283 C.ar    1  UNL1        0.0622
      9 C          -1.3475    3.6558   23.8572 C.ar    1  UNL1        0.0465
     10 C          -2.2046    3.9252   22.6560 C.ar    1  UNL1        0.1376
     11 F          -3.4281    4.7835   22.7849 F       1  UNL1       -0.2045
     12 C           2.2174    0.6463   21.5024 C.3     1  UNL1        0.1243
     13 C           1.6276   -0.6208   20.9577 C.2     1  UNL1       -0.0115
     14 C           2.3471   -1.3821   19.8840 C.2     1  UNL1        0.0141
     15 C           3.6564   -0.8763   19.3551 C.2     1  UNL1        0.0883
     16 N           4.2462    0.3907   19.8998 N.am    1  UNL1       -0.1774
     17 C           3.5268    1.1520   20.9734 C.2     1  UNL1        0.2534
     18 O           4.1166    2.4191   21.5181 O.2     1  UNL1       -0.2723
     19 C           3.1088    0.8502   24.6350 C.2     1  UNL1        0.2796
     20 O           4.2219    1.6949   25.1807 O.2     1  UNL1       -0.2670
     21 N           3.1970   -0.6453   24.7085 N.am    1  UNL1       -0.1841
     22 H           2.4665   -1.1997   24.3503 H       1  UNL1        0.1765
     23 S           4.3982   -1.2963   25.3276 S.O2    1  UNL1        0.0545
     24 O           5.1262   -1.1967   24.0199 O.2     1  UNL1       -0.1545
     25 O           3.6702   -1.3958   26.6353 O.2     1  UNL1       -0.1545
     26 C           5.5994   -1.9473   25.9468 C.3     1  UNL1        0.1490
     27 C           6.3783   -3.1846   26.2819 C.3     1  UNL1        0.0273
     28 C           6.9011   -1.8375   26.6840 C.3     1  UNL1        0.0273
     29 C           0.9280    2.7193   26.1843 C.3     1  UNL1        0.1351
     30 C           0.4937    1.7158   27.2110 C.ar    1  UNL1        0.0301
     31 C           1.5140    0.8620   27.9039 C.ar    1  UNL1        0.0295
     32 C           1.0798   -0.1416   28.9306 C.ar    1  UNL1        0.1400
     33 F           2.1002   -0.9954   29.6234 F       1  UNL1       -0.2042
     34 C          -0.3748   -0.2915   29.2646 C.ar    1  UNL1        0.0319
     35 C          -1.3952    0.5623   28.5718 C.ar    1  UNL1        0.0317
     36 C          -0.9610    1.5659   27.5450 C.ar    1  UNL1        0.1381
     37 F          -1.9814    2.4197   26.8523 F       1  UNL1       -0.2044
@<TRIPOS>BOND
     1     1     2    1
     2     2     3   ar
     3     3     4   ar
     4     4     5   ar
     5     5    12    1
     6    12    13    1
     7    13    14    2
     8    14    15    1
     9    15    16    2
    10    16    17    1
    11    17    18    2
    12     5     6   ar
    13     6    19    1
    14    19    20    2
    15    19    21   am
    16    21    23    1
    17    23    24    2
    18    23    25    2
    19    23    26    1
    20    26    27    1
    21    27    28    1
    22     6     7   ar
    23     7    29    1
    24    29    30    1
    25    30    31   ar
    26    31    32   ar
    27    32    33    1
    28    32    34   ar
    29    34    35   ar
    30    35    36   ar
    31    36    37    1
    32     7     8   ar
    33     8     9   ar
    34     9    10   ar
    35    10    11    1
    36    10     2   ar
    37     8     4   ar
    38    17    12    1
    39    28    26    1
    40    36    30   ar
    41    21    22    1
@<TRIPOS>MOLECULE
*****
 37 41 0 0 0
SMALL
GASTEIGER

@<TRIPOS>ATOM
      1 C          -0.4539    0.9109   29.0134 C.3     1  UNL1        0.0334
      2 C          -0.2868    1.3961   27.6039 C.ar    1  UNL1        0.0057
      3 C          -1.3660    2.2147   26.9597 C.ar    1  UNL1       -0.0008
      4 C          -1.1990    2.7000   25.5502 C.ar    1  UNL1        0.0140
      5 C          -2.0851    3.5190   24.6590 C.ar    1  UNL1        0.0120
      6 C          -1.3864    3.6917   23.3429 C.ar    1  UNL1        0.1124
      7 N          -0.0685    2.9795   23.4208 N.ar    1  UNL1       -0.3195
      8 C           0.0473    2.3666   24.7850 C.ar    1  UNL1        0.0622
      9 C           1.1265    1.5480   25.4292 C.ar    1  UNL1        0.0465
     10 C           0.9595    1.0628   26.8387 C.ar    1  UNL1        0.1376
     11 F           2.0388    0.2441   27.4830 F       1  UNL1       -0.2045
     12 C          -3.4331    4.0686   25.0204 C.3     1  UNL1        0.1243
     13 C          -3.5525    5.1305   26.0731 C.2     1  UNL1       -0.0115
     14 C          -4.9004    5.6802   26.4345 C.2     1  UNL1        0.0141
     15 C          -6.1292    5.1680   25.7432 C.2     1  UNL1        0.0883
     16 N          -6.0098    4.1062   24.6905 N.am    1  UNL1       -0.1774
     17 C          -4.6618    3.5565   24.3290 C.2     1  UNL1        0.2534
     18 O          -4.5425    2.4946   23.2763 O.2     1  UNL1       -0.2723
     19 C          -1.9130    4.4445   22.1572 C.2     1  UNL1        0.2796
     20 O          -1.4784    5.8593   21.9136 O.2     1  UNL1       -0.2670
     21 N          -2.8743    3.7825   21.2150 N.am    1  UNL1       -0.1841
     22 H          -3.1596    2.8539   21.3749 H       1  UNL1        0.1765
     23 S          -3.4009    4.5353   20.0293 S.O2    1  UNL1        0.0545
     24 O          -4.5702    5.0017   20.8448 O.2     1  UNL1       -0.1545
     25 O          -2.2315    4.0688   19.2138 O.2     1  UNL1       -0.1545
     26 C          -3.9275    5.2881   18.8435 C.3     1  UNL1        0.1490
     27 C          -4.0604    6.5671   18.0713 C.3     1  UNL1        0.0273
     28 C          -4.7065    5.3129   17.5620 C.3     1  UNL1        0.0273
     29 C           0.9541    2.8951   22.3267 C.3     1  UNL1        0.1351
     30 C           1.3343    1.5607   21.7567 C.ar    1  UNL1        0.0301
     31 C           2.5577    0.8521   22.2579 C.ar    1  UNL1        0.0295
     32 C           2.9380   -0.4822   21.6881 C.ar    1  UNL1        0.1400
     33 F           4.1615   -1.1907   22.1893 F       1  UNL1       -0.2042
     34 C           2.0949   -1.1082   20.6170 C.ar    1  UNL1        0.0319
     35 C           0.8714   -0.3997   20.1157 C.ar    1  UNL1        0.0317
     36 C           0.4911    0.9348   20.6856 C.ar    1  UNL1        0.1381
     37 F          -0.7323    1.6433   20.1844 F       1  UNL1       -0.2044
@<TRIPOS>BOND
     1     1     2    1
     2     2     3   ar
     3     3     4   ar
     4     4     5   ar
     5     5    12    1
     6    12    13    1
     7    13    14    2
     8    14    15    1
     9    15    16    2
    10    16    17    1
    11    17    18    2
    12     5     6   ar
    13     6    19    1
    14    19    20    2
    15    19    21   am
    16    21    23    1
    17    23    24    2
    18    23    25    2
    19    23    26    1
    20    26    27    1
    21    27    28    1
    22     6     7   ar
    23     7    29    1
    24    29    30    1
    25    30    31   ar
    26    31    32   ar
    27    32    33    1
    28    32    34   ar
    29    34    35   ar
    30    35    36   ar
    31    36    37    1
    32     7     8   ar
    33     8     9   ar
    34     9    10   ar
    35    10    11    1
    36    10     2   ar
    37     8     4   ar
    38    17    12    1
    39    28    26    1
    40    36    30   ar
    41    21    22    1
@<TRIPOS>MOLECULE
*****
 37 41 0 0 0
SMALL
GASTEIGER

@<TRIPOS>ATOM
      1 C           7.7620   -4.7703   30.8095 C.3     1  UNL1        0.0334
      2 C           6.9004   -3.6006   30.4363 C.ar    1  UNL1        0.0057
      3 C           6.4332   -2.6454   31.4943 C.ar    1  UNL1       -0.0008
      4 C           5.5716   -1.4757   31.1210 C.ar    1  UNL1        0.0140
      5 C           4.9638   -0.3752   31.9394 C.ar    1  UNL1        0.0120
      6 C           4.1937    0.5195   31.0139 C.ar    1  UNL1        0.1124
      7 N           4.3255   -0.0281   29.6237 N.ar    1  UNL1       -0.3195
      8 C           5.1770   -1.2612   29.6899 C.ar    1  UNL1        0.0622
      9 C           5.6442   -2.2164   28.6319 C.ar    1  UNL1        0.0465
     10 C           6.5058   -3.3861   29.0051 C.ar    1  UNL1        0.1376
     11 F           6.9730   -4.3413   27.9471 F       1  UNL1       -0.2045
     12 C           5.1020   -0.2001   33.4227 C.3     1  UNL1        0.1243
     13 C           5.8488    0.9789   33.9724 C.2     1  UNL1       -0.0115
     14 C           5.9870    1.1541   35.4557 C.2     1  UNL1        0.0141
     15 C           5.3784    0.1501   36.3893 C.2     1  UNL1        0.0883
     16 N           4.6316   -1.0289   35.8396 N.am    1  UNL1       -0.1774
     17 C           4.4934   -1.2041   34.3563 C.2     1  UNL1        0.2534
     18 O           3.7466   -2.3831   33.8066 O.2     1  UNL1       -0.2723
     19 C           3.4265    1.7463   31.4093 C.2     1  UNL1        0.2796
     20 O           3.9240    3.1035   31.0086 O.2     1  UNL1       -0.2670
     21 N           2.1619    1.6160   32.2053 N.am    1  UNL1       -0.1841
     22 H           1.8354    0.7252   32.4683 H       1  UNL1        0.1765
     23 S           1.3947    2.8428   32.6006 S.O2    1  UNL1        0.0545
     24 O           2.1550    2.9021   33.8922 O.2     1  UNL1       -0.1545
     25 O           0.6344    2.7835   31.3089 O.2     1  UNL1       -0.1545
     26 C           0.6275    4.0697   32.9959 C.3     1  UNL1        0.1490
     27 C           0.5512    5.3712   33.7376 C.3     1  UNL1        0.0273
     28 C          -0.6250    4.8932   32.9388 C.3     1  UNL1        0.0273
     29 C           3.7132    0.5550   28.3847 C.3     1  UNL1        0.1351
     30 C           2.2381    0.8215   28.3310 C.ar    1  UNL1        0.0301
     31 C           1.2673   -0.2499   28.7306 C.ar    1  UNL1        0.0295
     32 C          -0.2079    0.0165   28.6770 C.ar    1  UNL1        0.1400
     33 F          -1.1786   -1.0550   29.0766 F       1  UNL1       -0.2042
     34 C          -0.7123    1.3545   28.2238 C.ar    1  UNL1        0.0319
     35 C           0.2584    2.4260   27.8243 C.ar    1  UNL1        0.0317
     36 C           1.7336    2.1595   27.8779 C.ar    1  UNL1        0.1381
     37 F           2.7043    3.2310   27.4783 F       1  UNL1       -0.2044
@<TRIPOS>BOND
     1     1     2    1
     2     2     3   ar
     3     3     4   ar
     4     4     5   ar
     5     5    12    1
     6    12    13    1
     7    13    14    2
     8    14    15    1
     9    15    16    2
    10    16    17    1
    11    17    18    2
    12     5     6   ar
    13     6    19    1
    14    19    20    2
    15    19    21   am
    16    21    23    1
    17    23    24    2
    18    23    25    2
    19    23    26    1
    20    26    27    1
    21    27    28    1
    22     6     7   ar
    23     7    29    1
    24    29    30    1
    25    30    31   ar
    26    31    32   ar
    27    32    33    1
    28    32    34   ar
    29    34    35   ar
    30    35    36   ar
    31    36    37    1
    32     7     8   ar
    33     8     9   ar
    34     9    10   ar
    35    10    11    1
    36    10     2   ar
    37     8     4   ar
    38    17    12    1
    39    28    26    1
    40    36    30   ar
    41    21    22    1
@<TRIPOS>MOLECULE
*****
 37 41 0 0 0
SMALL
GASTEIGER

@<TRIPOS>ATOM
      1 C           3.4878    1.6087   36.9272 C.3     1  UNL1        0.0334
      2 C           3.3260    1.7726   35.4450 C.ar    1  UNL1        0.0057
      3 C           4.0817    0.8810   34.5049 C.ar    1  UNL1       -0.0008
      4 C           3.9199    1.0448   33.0227 C.ar    1  UNL1        0.0140
      5 C           4.5297    0.3190   31.8601 C.ar    1  UNL1        0.0120
      6 C           3.9889    0.9259   30.5995 C.ar    1  UNL1        0.1124
      7 N           3.0451    2.0269   30.9830 N.ar    1  UNL1       -0.3195
      8 C           3.0024    2.1004   32.4805 C.ar    1  UNL1        0.0622
      9 C           2.2467    2.9921   33.4206 C.ar    1  UNL1        0.0465
     10 C           2.4085    2.8282   34.9028 C.ar    1  UNL1        0.1376
     11 F           1.6528    3.7199   35.8429 F       1  UNL1       -0.2045
     12 C           5.5082   -0.8148   31.9436 C.3     1  UNL1        0.1243
     13 C           6.9459   -0.5931   31.5776 C.2     1  UNL1       -0.0115
     14 C           7.9245   -1.7268   31.6610 C.2     1  UNL1        0.0141
     15 C           7.4654   -3.0822   32.1105 C.2     1  UNL1        0.0883
     16 N           6.0278   -3.3039   32.4765 N.am    1  UNL1       -0.1774
     17 C           5.0491   -2.1702   32.3931 C.2     1  UNL1        0.2534
     18 O           3.6115   -2.3919   32.7591 O.2     1  UNL1       -0.2723
     19 C           4.3318    0.5057   29.2009 C.2     1  UNL1        0.2796
     20 O           5.5195    1.1049   28.5077 O.2     1  UNL1       -0.2670
     21 N           3.4871   -0.5135   28.4957 N.am    1  UNL1       -0.1841
     22 H           2.7076   -0.9067   28.9506 H       1  UNL1        0.1765
     23 S           3.8300   -0.9337   27.0972 S.O2    1  UNL1        0.0545
     24 O           4.7260   -2.0075   27.6395 O.2     1  UNL1       -0.1545
     25 O           2.9340    0.1402   26.5549 O.2     1  UNL1       -0.1545
     26 C           4.1729   -1.3538   25.6986 C.3     1  UNL1        0.1490
     27 C           3.8922   -1.3174   24.2256 C.3     1  UNL1        0.0273
     28 C           5.0476   -2.1178   24.7492 C.3     1  UNL1        0.0273
     29 C           2.2784    2.9010   30.0352 C.3     1  UNL1        0.1351
     30 C           1.1164    2.3398   29.2706 C.ar    1  UNL1        0.0301
     31 C           0.5236    1.0205   29.6684 C.ar    1  UNL1        0.0295
     32 C          -0.6385    0.4593   28.9038 C.ar    1  UNL1        0.1400
     33 F          -1.2312   -0.8600   29.3016 F       1  UNL1       -0.2042
     34 C          -1.2078    1.2173   27.7413 C.ar    1  UNL1        0.0319
     35 C          -0.6151    2.5365   27.3435 C.ar    1  UNL1        0.0317
     36 C           0.5470    3.0978   28.1081 C.ar    1  UNL1        0.1381
     37 F           1.1398    4.4171   27.7103 F       1  UNL1       -0.2044
@<TRIPOS>BOND
     1     1     2    1
     2     2     3   ar
     3     3     4   ar
     4     4     5   ar
     5     5    12    1
     6    12    13    1
     7    13    14    2
     8    14    15    1
     9    15    16    2
    10    16    17    1
    11    17    18    2
    12     5     6   ar
    13     6    19    1
    14    19    20    2
    15    19    21   am
    16    21    23    1
    17    23    24    2
    18    23    25    2
    19    23    26    1
    20    26    27    1
    21    27    28    1
    22     6     7   ar
    23     7    29    1
    24    29    30    1
    25    30    31   ar
    26    31    32   ar
    27    32    33    1
    28    32    34   ar
    29    34    35   ar
    30    35    36   ar
    31    36    37    1
    32     7     8   ar
    33     8     9   ar
    34     9    10   ar
    35    10    11    1
    36    10     2   ar
    37     8     4   ar
    38    17    12    1
    39    28    26    1
    40    36    30   ar
    41    21    22    1
