@<TRIPOS>MOLECULE
*****
 37 41 0 0 0
SMALL
GASTEIGER

@<TRIPOS>ATOM
      1 C          -8.9354  -20.5590   18.3881 C.3     1  UNL1        0.0312
      2 C          -8.1393  -19.9838   19.5219 C.2     1  UNL1        0.0121
      3 C          -6.6482  -19.8678   19.4083 C.2     1  UNL1       -0.0081
      4 C          -5.8521  -19.2927   20.5420 C.2     1  UNL1       -0.0194
      5 C          -6.5472  -18.8334   21.7894 C.2     1  UNL1        0.0425
      6 C          -8.0384  -18.9494   21.9030 C.2     1  UNL1        0.2231
      7 N          -8.9929  -18.5832   23.0007 N.2     1  UNL1       -0.0378
      8 C         -10.3788  -18.9320   22.5453 C.2     1  UNL1        0.3605
      9 N         -10.2810  -19.5138   21.1662 N.2     1  UNL1       -0.0547
     10 C          -8.8345  -19.5246   20.7692 C.3     1  UNL1        0.2975
     11 C         -11.6411  -18.7339   23.3310 C.3     1  UNL1        0.2246
     12 C         -12.8152  -18.0437   22.7025 C.2     1  UNL1        0.0436
     13 C         -14.0775  -17.8455   23.4883 C.2     1  UNL1        0.0288
     14 C         -14.1657  -18.3376   24.9026 C.2     1  UNL1        0.0896
     15 N         -12.9915  -19.0277   25.5311 N.am    1  UNL1       -0.1770
     16 C         -11.7293  -19.2259   24.7453 C.2     1  UNL1        0.2627
     17 O         -10.5551  -19.9161   25.3738 O.2     1  UNL1       -0.2719
     18 N         -12.7272  -17.5516   21.2883 N.pl3   1  UNL1       -0.3335
     19 H         -12.9837  -18.1433   20.5444 H       1  UNL1        0.1466
     20 C         -12.2483  -16.1582   21.0074 C.3     1  UNL1        0.1136
     21 C         -10.8175  -15.9195   20.6257 C.3     1  UNL1        0.1486
     22 N          -9.7865  -15.6852   21.6897 N.ar    1  UNL1       -0.2468
     23 C         -10.0345  -15.6672   23.1689 C.ar    1  UNL1        0.1081
     24 C          -8.7277  -15.3986   23.8548 C.ar    1  UNL1        0.0972
     25 CL         -8.5141  -15.2960   25.3359 Cl      1  UNL1       -0.0789
     26 C          -7.6721  -15.2507   22.7995 C.ar    1  UNL1        0.1330
     27 N          -8.3265  -15.4278   21.4613 N.ar    1  UNL1       -0.1667
     28 C          -4.3609  -19.1767   20.4284 C.3     1  UNL1        0.0252
     29 C          -3.4854  -19.6228   21.5618 C.3     1  UNL1        0.0217
     30 C          -1.9942  -19.5069   21.4482 C.3     1  UNL1        0.0724
     31 N          -1.3785  -18.9448   20.2013 N.3     1  UNL1       -0.2726
     32 C          -2.2540  -18.4987   19.0679 C.3     1  UNL1        0.0724
     33 C          -3.7451  -18.6147   19.1814 C.3     1  UNL1        0.0217
     34 C           0.1126  -18.8288   20.0876 C.3     1  UNL1        0.0750
     35 C           0.7692  -17.4830   20.1761 C.3     1  UNL1        0.0554
     36 C          -0.0704  -16.2417   20.2404 C.3     1  UNL1        0.1947
     37 F          -1.1391  -16.1123   21.2850 F       1  UNL1       -0.2343
@<TRIPOS>BOND
     1     1     2    1
     2     2     3    2
     3     3     4    1
     4     4    28    1
     5    28    29    1
     6    29    30    1
     7    30    31    1
     8    31    34    1
     9    34    35    1
    10    35    36    1
    11    36    37    1
    12    31    32    1
    13    32    33    1
    14     4     5    2
    15     5     6    1
    16     6     7    2
    17     7     8    1
    18     8    11    1
    19    11    12    1
    20    12    18    1
    21    18    20    1
    22    20    21    1
    23    21    22    1
    24    22    23   ar
    25    23    24   ar
    26    24    25    1
    27    24    26   ar
    28    26    27   ar
    29    12    13    2
    30    13    14    1
    31    14    15    2
    32    15    16    1
    33    16    17    2
    34     8     9    2
    35     9    10    1
    36    10     2    1
    37    33    28    1
    38    10     6    1
    39    16    11    1
    40    27    22   ar
    41    18    19    1
@<TRIPOS>MOLECULE
*****
 37 41 0 0 0
SMALL
GASTEIGER

@<TRIPOS>ATOM
      1 C           8.3925   -6.7200   23.4536 C.3     1  UNL1        0.0312
      2 C           7.6946   -5.5428   24.0678 C.2     1  UNL1        0.0121
      3 C           7.5874   -5.4291   25.5596 C.2     1  UNL1       -0.0081
      4 C           6.8895   -4.2520   26.1738 C.2     1  UNL1       -0.0194
      5 C           6.2989   -3.1885   25.2962 C.2     1  UNL1        0.0425
      6 C           6.4061   -3.3022   23.8044 C.2     1  UNL1        0.2231
      7 N           5.9251   -2.4169   22.6932 N.2     1  UNL1       -0.0378
      8 C           6.3256   -3.0469   21.3922 C.2     1  UNL1        0.3605
      9 N           7.0543   -4.3216   21.6993 N.2     1  UNL1       -0.0547
     10 C           7.1040   -4.4793   23.1902 C.3     1  UNL1        0.2975
     11 C           6.0466   -2.4986   20.0242 C.3     1  UNL1        0.2246
     12 C           4.6590   -2.0597   19.6608 C.2     1  UNL1        0.0436
     13 C           4.3801   -1.5113   18.2927 C.2     1  UNL1        0.0288
     14 C           5.4886   -1.4019   17.2881 C.2     1  UNL1        0.0896
     15 N           6.8761   -1.8408   17.6515 N.am    1  UNL1       -0.1770
     16 C           7.1551   -2.3892   19.0196 C.2     1  UNL1        0.2627
     17 O           8.5426   -2.8281   19.3830 O.2     1  UNL1       -0.2719
     18 N           3.5505   -2.1690   20.6653 N.pl3   1  UNL1       -0.3335
     19 H           3.4036   -3.0155   21.1460 H       1  UNL1        0.1466
     20 C           2.6658   -0.9887   20.9375 C.3     1  UNL1        0.1136
     21 C           1.3319   -0.8792   20.2601 C.3     1  UNL1        0.1486
     22 N           0.7637    0.4707   19.9365 N.ar    1  UNL1       -0.2468
     23 C           1.1559    1.3375   18.7769 C.ar    1  UNL1        0.1081
     24 C           0.3380    2.5934   18.8395 C.ar    1  UNL1        0.0972
     25 CL          0.4059    3.7388   17.8733 Cl      1  UNL1       -0.0789
     26 C          -0.5596    2.5028   20.0377 C.ar    1  UNL1        0.1330
     27 N          -0.2966    1.1909   20.7158 N.ar    1  UNL1       -0.1667
     28 C           6.7822   -4.1383   27.6657 C.3     1  UNL1        0.0252
     29 C           6.7909   -5.3749   28.5147 C.3     1  UNL1        0.0217
     30 C           6.6836   -5.2612   30.0065 C.3     1  UNL1        0.0724
     31 N           6.5677   -3.9109   30.6494 N.3     1  UNL1       -0.2726
     32 C           6.5591   -2.6743   29.8004 C.3     1  UNL1        0.0724
     33 C           6.6663   -2.7880   28.3086 C.3     1  UNL1        0.0217
     34 C           6.4604   -3.7971   32.1412 C.3     1  UNL1        0.0750
     35 C           6.0644   -2.4929   32.7673 C.3     1  UNL1        0.0554
     36 C           4.6744   -2.3081   33.3001 C.3     1  UNL1        0.1947
     37 F           3.9171   -3.4833   33.8435 F       1  UNL1       -0.2343
@<TRIPOS>BOND
     1     1     2    1
     2     2     3    2
     3     3     4    1
     4     4    28    1
     5    28    29    1
     6    29    30    1
     7    30    31    1
     8    31    34    1
     9    34    35    1
    10    35    36    1
    11    36    37    1
    12    31    32    1
    13    32    33    1
    14     4     5    2
    15     5     6    1
    16     6     7    2
    17     7     8    1
    18     8    11    1
    19    11    12    1
    20    12    18    1
    21    18    20    1
    22    20    21    1
    23    21    22    1
    24    22    23   ar
    25    23    24   ar
    26    24    25    1
    27    24    26   ar
    28    26    27   ar
    29    12    13    2
    30    13    14    1
    31    14    15    2
    32    15    16    1
    33    16    17    2
    34     8     9    2
    35     9    10    1
    36    10     2    1
    37    33    28    1
    38    10     6    1
    39    16    11    1
    40    27    22   ar
    41    18    19    1
@<TRIPOS>MOLECULE
*****
 37 41 0 0 0
SMALL
GASTEIGER

@<TRIPOS>ATOM
      1 C          -8.9137  -20.6445   18.2854 C.3     1  UNL1        0.0312
      2 C          -8.1317  -20.0007   19.3918 C.2     1  UNL1        0.0121
      3 C          -6.6400  -19.8841   19.2865 C.2     1  UNL1       -0.0081
      4 C          -5.8581  -19.2404   20.3928 C.2     1  UNL1       -0.0194
      5 C          -6.5678  -18.7132   21.6046 C.2     1  UNL1        0.0425
      6 C          -8.0596  -18.8298   21.7100 C.2     1  UNL1        0.2231
      7 N          -9.0267  -18.4054   22.7751 N.2     1  UNL1       -0.0378
      8 C         -10.4064  -18.7870   22.3270 C.2     1  UNL1        0.3605
      9 N         -10.2920  -19.4471   20.9849 N.2     1  UNL1       -0.0547
     10 C          -8.8415  -19.4736   20.6036 C.3     1  UNL1        0.2975
     11 C         -11.6775  -18.5499   23.0874 C.3     1  UNL1        0.2246
     12 C         -11.7231  -18.7939   24.5667 C.2     1  UNL1        0.0436
     13 C         -12.9942  -18.5568   25.3271 C.2     1  UNL1        0.0288
     14 C         -14.2197  -18.0759   24.6081 C.2     1  UNL1        0.0896
     15 N         -14.1741  -17.8320   23.1288 N.am    1  UNL1       -0.1770
     16 C         -12.9030  -18.0690   22.3685 C.2     1  UNL1        0.2627
     17 O         -12.8574  -17.8251   20.8891 O.2     1  UNL1       -0.2719
     18 N         -10.4976  -19.2748   25.2857 N.pl3   1  UNL1       -0.3335
     19 H         -10.2325  -20.2211   25.2276 H       1  UNL1        0.1466
     20 C          -9.6762  -18.3139   26.0931 C.3     1  UNL1        0.1136
     21 C          -9.4839  -16.9054   25.6145 C.3     1  UNL1        0.1486
     22 N          -8.1045  -16.3211   25.5378 N.ar    1  UNL1       -0.2468
     23 C          -7.3003  -16.1203   24.2877 C.ar    1  UNL1        0.1081
     24 C          -5.9859  -15.5101   24.6751 C.ar    1  UNL1        0.0972
     25 CL         -4.8747  -15.1410   23.7375 Cl      1  UNL1       -0.0789
     26 C          -5.9777  -15.3338   26.1646 C.ar    1  UNL1        0.1330
     27 N          -7.2871  -15.8350   26.6979 N.ar    1  UNL1       -0.1667
     28 C          -4.3662  -19.1237   20.2874 C.3     1  UNL1        0.0252
     29 C          -3.4944  -19.6237   21.4010 C.3     1  UNL1        0.0217
     30 C          -2.0026  -19.5071   21.2956 C.3     1  UNL1        0.0724
     31 N          -1.3828  -18.8905   20.0768 N.3     1  UNL1       -0.2726
     32 C          -2.2547  -18.3905   18.9633 C.3     1  UNL1        0.0724
     33 C          -3.7464  -18.5072   19.0686 C.3     1  UNL1        0.0217
     34 C           0.1089  -18.7738   19.9714 C.3     1  UNL1        0.0750
     35 C           0.7766  -17.4520   20.2102 C.3     1  UNL1        0.0554
     36 C          -0.0476  -16.2029   20.3121 C.3     1  UNL1        0.1947
     37 F          -1.1704  -16.1240   21.3037 F       1  UNL1       -0.2343
@<TRIPOS>BOND
     1     1     2    1
     2     2     3    2
     3     3     4    1
     4     4    28    1
     5    28    29    1
     6    29    30    1
     7    30    31    1
     8    31    34    1
     9    34    35    1
    10    35    36    1
    11    36    37    1
    12    31    32    1
    13    32    33    1
    14     4     5    2
    15     5     6    1
    16     6     7    2
    17     7     8    1
    18     8    11    1
    19    11    12    1
    20    12    18    1
    21    18    20    1
    22    20    21    1
    23    21    22    1
    24    22    23   ar
    25    23    24   ar
    26    24    25    1
    27    24    26   ar
    28    26    27   ar
    29    12    13    2
    30    13    14    1
    31    14    15    2
    32    15    16    1
    33    16    17    2
    34     8     9    2
    35     9    10    1
    36    10     2    1
    37    33    28    1
    38    10     6    1
    39    16    11    1
    40    27    22   ar
    41    18    19    1
@<TRIPOS>MOLECULE
*****
 37 41 0 0 0
SMALL
GASTEIGER

@<TRIPOS>ATOM
      1 C          -1.5619   -0.6276   29.0924 C.3     1  UNL1        0.0312
      2 C          -0.7782    0.5271   28.5424 C.2     1  UNL1        0.0121
      3 C          -0.6989    0.7415   27.0600 C.2     1  UNL1       -0.0081
      4 C           0.0847    1.8962   26.5100 C.2     1  UNL1       -0.0194
      5 C           0.7892    2.8366   27.4425 C.2     1  UNL1        0.0425
      6 C           0.7099    2.6222   28.9250 C.2     1  UNL1        0.2231
      7 N           1.2953    3.3776   30.0811 N.2     1  UNL1       -0.0378
      8 C           0.8734    2.6898   31.3455 C.2     1  UNL1        0.3605
      9 N           0.0273    1.5092   30.9709 N.2     1  UNL1       -0.0547
     10 C          -0.0738    1.4674   29.4749 C.3     1  UNL1        0.2975
     11 C           1.2343    3.1089   32.7398 C.3     1  UNL1        0.2246
     12 C           2.1362    2.2467   33.5724 C.2     1  UNL1        0.0436
     13 C           2.4971    2.6659   34.9667 C.2     1  UNL1        0.0288
     14 C           1.9561    3.9472   35.5285 C.2     1  UNL1        0.0896
     15 N           1.0542    4.8094   34.6959 N.am    1  UNL1       -0.1770
     16 C           0.6933    4.3902   33.3016 C.2     1  UNL1        0.2627
     17 O          -0.2086    5.2524   32.4690 O.2     1  UNL1       -0.2719
     18 N           2.6773    0.9654   33.0108 N.pl3   1  UNL1       -0.3335
     19 H           2.0971    0.1727   32.9457 H       1  UNL1        0.1466
     20 C           4.1023    0.8918   32.5483 C.3     1  UNL1        0.1136
     21 C           4.4735    1.3851   31.1812 C.3     1  UNL1        0.1486
     22 N           3.8959    0.7262   29.9637 N.ar    1  UNL1       -0.2468
     23 C           4.2141    1.0723   28.5393 C.ar    1  UNL1        0.1081
     24 C           3.4135    0.1656   27.6521 C.ar    1  UNL1        0.0972
     25 CL          3.4240    0.1653   26.1521 Cl      1  UNL1       -0.0789
     26 C           2.6005   -0.7407   28.5282 C.ar    1  UNL1        0.1330
     27 N           2.8986   -0.3942   29.9569 N.ar    1  UNL1       -0.1667
     28 C           0.1640    2.1106   25.0275 C.3     1  UNL1        0.0252
     29 C           0.8565    1.1019   24.1597 C.3     1  UNL1        0.0217
     30 C           0.9358    1.3163   22.6773 C.3     1  UNL1        0.0724
     31 N           0.3226    2.5394   22.0625 N.3     1  UNL1       -0.2726
     32 C          -0.3699    3.5481   22.9302 C.3     1  UNL1        0.0724
     33 C          -0.4492    3.3337   24.4127 C.3     1  UNL1        0.0217
     34 C           0.4018    2.7538   20.5801 C.3     1  UNL1        0.0750
     35 C           0.4800    1.5757   19.6549 C.3     1  UNL1        0.0554
     36 C           1.5651    1.5039   18.6218 C.3     1  UNL1        0.1947
     37 F           1.7934    0.2315   17.8610 F       1  UNL1       -0.2343
@<TRIPOS>BOND
     1     1     2    1
     2     2     3    2
     3     3     4    1
     4     4    28    1
     5    28    29    1
     6    29    30    1
     7    30    31    1
     8    31    34    1
     9    34    35    1
    10    35    36    1
    11    36    37    1
    12    31    32    1
    13    32    33    1
    14     4     5    2
    15     5     6    1
    16     6     7    2
    17     7     8    1
    18     8    11    1
    19    11    12    1
    20    12    18    1
    21    18    20    1
    22    20    21    1
    23    21    22    1
    24    22    23   ar
    25    23    24   ar
    26    24    25    1
    27    24    26   ar
    28    26    27   ar
    29    12    13    2
    30    13    14    1
    31    14    15    2
    32    15    16    1
    33    16    17    2
    34     8     9    2
    35     9    10    1
    36    10     2    1
    37    33    28    1
    38    10     6    1
    39    16    11    1
    40    27    22   ar
    41    18    19    1
@<TRIPOS>MOLECULE
*****
 37 41 0 0 0
SMALL
GASTEIGER

@<TRIPOS>ATOM
      1 C           4.0651   -4.3612   19.0313 C.3     1  UNL1        0.0312
      2 C           3.8507   -3.2636   20.0308 C.2     1  UNL1        0.0121
      3 C           2.9142   -2.1350   19.7160 C.2     1  UNL1       -0.0081
      4 C           2.6997   -1.0373   20.7155 C.2     1  UNL1       -0.0194
      5 C           3.4219   -1.0682   22.0300 C.2     1  UNL1        0.0425
      6 C           4.3584   -2.1968   22.3448 C.2     1  UNL1        0.2231
      7 N           5.2029   -2.4943   23.5482 N.2     1  UNL1       -0.0378
      8 C           5.9392   -3.7758   23.2924 C.2     1  UNL1        0.3605
      9 N           5.5499   -4.2704   21.9309 N.2     1  UNL1       -0.0547
     10 C           4.5728   -3.2945   21.3452 C.3     1  UNL1        0.2975
     11 C           6.8969   -4.4453   24.2330 C.3     1  UNL1        0.2246
     12 C           6.8006   -4.1908   25.7082 C.2     1  UNL1        0.0436
     13 C           7.7583   -4.8604   26.6487 C.2     1  UNL1        0.0288
     14 C           8.8122   -5.7843   26.1142 C.2     1  UNL1        0.0896
     15 N           8.9085   -6.0387   24.6391 N.am    1  UNL1       -0.1770
     16 C           7.9508   -5.3692   23.6985 C.2     1  UNL1        0.2627
     17 O           8.0470   -5.6236   22.2234 O.2     1  UNL1       -0.2719
     18 N           5.7468   -3.2670   26.2428 N.pl3   1  UNL1       -0.3335
     19 H           5.0004   -2.9854   25.6658 H       1  UNL1        0.1466
     20 C           5.8301   -2.7721   27.6563 C.3     1  UNL1        0.1136
     21 C           5.5099   -1.3407   27.9699 C.3     1  UNL1        0.1486
     22 N           4.2377   -0.9962   28.6860 N.ar    1  UNL1       -0.2468
     23 C           2.8867   -0.8344   28.0546 C.ar    1  UNL1        0.1081
     24 C           1.9071   -0.4913   29.1376 C.ar    1  UNL1        0.0972
     25 CL          0.4395   -0.2421   28.9524 Cl      1  UNL1       -0.0789
     26 C           2.6526   -0.4411   30.4381 C.ar    1  UNL1        0.1330
     27 N           4.0930   -0.7532   30.1591 N.ar    1  UNL1       -0.1667
     28 C           1.7631    0.0913   20.4007 C.3     1  UNL1        0.0252
     29 C           1.0078    0.7694   21.5051 C.3     1  UNL1        0.0217
     30 C           0.0713    1.8980   21.1903 C.3     1  UNL1        0.0724
     31 N          -0.1100    2.3486   19.7711 N.3     1  UNL1       -0.2726
     32 C           0.6454    1.6705   18.6667 C.3     1  UNL1        0.0724
     33 C           1.5819    0.5419   18.9815 C.3     1  UNL1        0.0217
     34 C          -1.0465    3.4771   19.4562 C.3     1  UNL1        0.0750
     35 C          -2.1300    3.8454   20.4260 C.3     1  UNL1        0.0554
     36 C          -3.5215    3.3207   20.2307 C.3     1  UNL1        0.1947
     37 F          -4.1636    3.3834   18.8765 F       1  UNL1       -0.2343
@<TRIPOS>BOND
     1     1     2    1
     2     2     3    2
     3     3     4    1
     4     4    28    1
     5    28    29    1
     6    29    30    1
     7    30    31    1
     8    31    34    1
     9    34    35    1
    10    35    36    1
    11    36    37    1
    12    31    32    1
    13    32    33    1
    14     4     5    2
    15     5     6    1
    16     6     7    2
    17     7     8    1
    18     8    11    1
    19    11    12    1
    20    12    18    1
    21    18    20    1
    22    20    21    1
    23    21    22    1
    24    22    23   ar
    25    23    24   ar
    26    24    25    1
    27    24    26   ar
    28    26    27   ar
    29    12    13    2
    30    13    14    1
    31    14    15    2
    32    15    16    1
    33    16    17    2
    34     8     9    2
    35     9    10    1
    36    10     2    1
    37    33    28    1
    38    10     6    1
    39    16    11    1
    40    27    22   ar
    41    18    19    1
@<TRIPOS>MOLECULE
*****
 37 41 0 0 0
SMALL
GASTEIGER

@<TRIPOS>ATOM
      1 C           4.2302   -4.5463   18.9955 C.3     1  UNL1        0.0312
      2 C           4.0179   -3.4350   19.9804 C.2     1  UNL1        0.0121
      3 C           3.0755   -2.3143   19.6549 C.2     1  UNL1       -0.0081
      4 C           2.8631   -1.2031   20.6398 C.2     1  UNL1       -0.0194
      5 C           3.5931   -1.2125   21.9502 C.2     1  UNL1        0.0425
      6 C           4.5354   -2.3333   22.2757 C.2     1  UNL1        0.2231
      7 N           5.3880   -2.6104   23.4783 N.2     1  UNL1       -0.0378
      8 C           6.1273   -3.8930   23.2366 C.2     1  UNL1        0.3605
      9 N           5.7317   -4.4085   21.8847 N.2     1  UNL1       -0.0547
     10 C           4.7478   -3.4445   21.2908 C.3     1  UNL1        0.2975
     11 C           7.0929   -4.5455   24.1811 C.3     1  UNL1        0.2246
     12 C           6.9713   -4.3121   25.6578 C.2     1  UNL1        0.0436
     13 C           7.9369   -4.9647   26.6022 C.2     1  UNL1        0.0288
     14 C           9.0239   -5.8506   26.0699 C.2     1  UNL1        0.0896
     15 N           9.1455   -6.0841   24.5932 N.am    1  UNL1       -0.1770
     16 C           8.1799   -5.4315   23.6488 C.2     1  UNL1        0.2627
     17 O           8.3015   -5.6649   22.1721 O.2     1  UNL1       -0.2719
     18 N           5.8843   -3.4261   26.1901 N.pl3   1  UNL1       -0.3335
     19 H           5.1231   -3.1815   25.6157 H       1  UNL1        0.1466
     20 C           5.9569   -2.9129   27.5977 C.3     1  UNL1        0.1136
     21 C           5.3583   -1.5814   27.9423 C.3     1  UNL1        0.1486
     22 N           4.7781   -0.7177   26.8618 N.ar    1  UNL1       -0.2468
     23 C           3.3218   -0.4241   26.6546 C.ar    1  UNL1        0.1081
     24 C           3.1960    0.4791   25.4635 C.ar    1  UNL1        0.0972
     25 CL          1.9164    1.0224   24.9002 Cl      1  UNL1       -0.0789
     26 C           4.5745    0.7437   24.9347 C.ar    1  UNL1        0.1330
     27 N           5.5524    0.0040   25.7989 N.ar    1  UNL1       -0.1667
     28 C           1.9207   -0.0823   20.3143 C.3     1  UNL1        0.0252
     29 C           1.0406    0.4923   21.3844 C.3     1  UNL1        0.0217
     30 C           0.0983    1.6130   21.0590 C.3     1  UNL1        0.0724
     31 N           0.0360    2.1591   19.6633 N.3     1  UNL1       -0.2726
     32 C           0.9161    1.5845   18.5931 C.3     1  UNL1        0.0724
     33 C           1.8584    0.4638   18.9186 C.3     1  UNL1        0.0217
     34 C          -0.9063    3.2798   19.3378 C.3     1  UNL1        0.0750
     35 C          -1.9374    3.7077   20.3397 C.3     1  UNL1        0.0554
     36 C          -3.3705    3.3025   20.1607 C.3     1  UNL1        0.1947
     37 F          -4.1902    2.8995   21.3506 F       1  UNL1       -0.2343
@<TRIPOS>BOND
     1     1     2    1
     2     2     3    2
     3     3     4    1
     4     4    28    1
     5    28    29    1
     6    29    30    1
     7    30    31    1
     8    31    34    1
     9    34    35    1
    10    35    36    1
    11    36    37    1
    12    31    32    1
    13    32    33    1
    14     4     5    2
    15     5     6    1
    16     6     7    2
    17     7     8    1
    18     8    11    1
    19    11    12    1
    20    12    18    1
    21    18    20    1
    22    20    21    1
    23    21    22    1
    24    22    23   ar
    25    23    24   ar
    26    24    25    1
    27    24    26   ar
    28    26    27   ar
    29    12    13    2
    30    13    14    1
    31    14    15    2
    32    15    16    1
    33    16    17    2
    34     8     9    2
    35     9    10    1
    36    10     2    1
    37    33    28    1
    38    10     6    1
    39    16    11    1
    40    27    22   ar
    41    18    19    1
@<TRIPOS>MOLECULE
*****
 37 41 0 0 0
SMALL
GASTEIGER

@<TRIPOS>ATOM
      1 C           6.6120    1.6002   30.3688 C.3     1  UNL1        0.0312
      2 C           6.0983    0.6513   31.4107 C.2     1  UNL1        0.0121
      3 C           5.4964    1.1828   32.6777 C.2     1  UNL1       -0.0081
      4 C           4.9827    0.2340   33.7196 C.2     1  UNL1       -0.0194
      5 C           5.0709   -1.2465   33.4947 C.2     1  UNL1        0.0425
      6 C           5.6728   -1.7780   32.2277 C.2     1  UNL1        0.2231
      7 N           5.8930   -3.1759   31.7305 N.2     1  UNL1       -0.0378
      8 C           6.5427   -3.0910   30.3812 C.2     1  UNL1        0.3605
      9 N           6.7242   -1.6406   30.0445 N.2     1  UNL1       -0.0547
     10 C           6.1865   -0.8291   31.1857 C.3     1  UNL1        0.2975
     11 C           6.9412   -4.2526   29.5198 C.3     1  UNL1        0.2246
     12 C           6.3997   -4.3734   28.1262 C.2     1  UNL1        0.0436
     13 C           6.7982   -5.5350   27.2649 C.2     1  UNL1        0.0288
     14 C           7.7381   -6.5758   27.7971 C.2     1  UNL1        0.0896
     15 N           8.2796   -6.4550   29.1907 N.am    1  UNL1       -0.1770
     16 C           7.8811   -5.2934   30.0520 C.2     1  UNL1        0.2627
     17 O           8.4227   -5.1725   31.4456 O.2     1  UNL1       -0.2719
     18 N           5.4597   -3.3327   27.5939 N.pl3   1  UNL1       -0.3335
     19 H           4.5286   -3.3015   27.9121 H       1  UNL1        0.1466
     20 C           5.9384   -2.3394   26.5770 C.3     1  UNL1        0.1136
     21 C           5.1287   -1.1096   26.2909 C.3     1  UNL1        0.1486
     22 N           4.1876   -0.5731   27.3284 N.ar    1  UNL1       -0.2468
     23 C           4.2331    0.7978   27.9354 C.ar    1  UNL1        0.1081
     24 C           3.1093    0.9048   28.9232 C.ar    1  UNL1        0.0972
     25 CL          2.7829    2.1058   29.7606 Cl      1  UNL1       -0.0789
     26 C           2.3693   -0.3998   28.9267 C.ar    1  UNL1        0.1330
     27 N           3.0357   -1.3133   27.9410 N.ar    1  UNL1       -0.1667
     28 C           4.3808    0.7655   34.9866 C.3     1  UNL1        0.0252
     29 C           3.3675    1.8700   34.9298 C.3     1  UNL1        0.0217
     30 C           2.7656    2.4016   36.1968 C.3     1  UNL1        0.0724
     31 N           3.1770    1.8286   37.5205 N.3     1  UNL1       -0.2726
     32 C           4.1903    0.7241   37.5774 C.3     1  UNL1        0.0724
     33 C           4.7922    0.1926   36.3104 C.3     1  UNL1        0.0217
     34 C           2.5751    2.3600   38.7875 C.3     1  UNL1        0.0750
     35 C           1.2074    1.9143   39.2127 C.3     1  UNL1        0.0554
     36 C           0.8716    0.4528   39.2466 C.3     1  UNL1        0.1947
     37 F           1.5876   -0.4594   40.1980 F       1  UNL1       -0.2343
@<TRIPOS>BOND
     1     1     2    1
     2     2     3    2
     3     3     4    1
     4     4    28    1
     5    28    29    1
     6    29    30    1
     7    30    31    1
     8    31    34    1
     9    34    35    1
    10    35    36    1
    11    36    37    1
    12    31    32    1
    13    32    33    1
    14     4     5    2
    15     5     6    1
    16     6     7    2
    17     7     8    1
    18     8    11    1
    19    11    12    1
    20    12    18    1
    21    18    20    1
    22    20    21    1
    23    21    22    1
    24    22    23   ar
    25    23    24   ar
    26    24    25    1
    27    24    26   ar
    28    26    27   ar
    29    12    13    2
    30    13    14    1
    31    14    15    2
    32    15    16    1
    33    16    17    2
    34     8     9    2
    35     9    10    1
    36    10     2    1
    37    33    28    1
    38    10     6    1
    39    16    11    1
    40    27    22   ar
    41    18    19    1
@<TRIPOS>MOLECULE
*****
 37 41 0 0 0
SMALL
GASTEIGER

@<TRIPOS>ATOM
      1 C           4.0745   -3.8638   18.9287 C.3     1  UNL1        0.0312
      2 C           3.9237   -3.0333   20.1686 C.2     1  UNL1        0.0121
      3 C           2.9251   -1.9146   20.2052 C.2     1  UNL1       -0.0081
      4 C           2.7742   -1.0841   21.4450 C.2     1  UNL1       -0.0194
      5 C           3.6220   -1.3722   22.6486 C.2     1  UNL1        0.0425
      6 C           4.6206   -2.4909   22.6120 C.2     1  UNL1        0.2231
      7 N           5.5878   -3.0067   23.6360 N.2     1  UNL1       -0.0378
      8 C           6.3363   -4.1561   23.0288 C.2     1  UNL1        0.3605
      9 N           5.8318   -4.3506   21.6297 N.2     1  UNL1       -0.0547
     10 C           4.7714   -3.3214   21.3721 C.3     1  UNL1        0.2975
     11 C           7.4023   -4.9683   23.7025 C.3     1  UNL1        0.2246
     12 C           7.4013   -5.1168   25.1952 C.2     1  UNL1        0.0436
     13 C           8.4673   -5.9291   25.8688 C.2     1  UNL1        0.0288
     14 C           9.5344   -6.5929   25.0499 C.2     1  UNL1        0.0896
     15 N           9.5355   -6.4445   23.5573 N.am    1  UNL1       -0.1770
     16 C           8.4694   -5.6322   22.8836 C.2     1  UNL1        0.2627
     17 O           8.4705   -5.4837   21.3910 O.2     1  UNL1       -0.2719
     18 N           6.3342   -4.4530   26.0141 N.pl3   1  UNL1       -0.3335
     19 H           5.3858   -4.5781   25.7814 H       1  UNL1        0.1466
     20 C           6.7121   -3.5986   27.1877 C.3     1  UNL1        0.1136
     21 C           6.2831   -3.9912   28.5703 C.3     1  UNL1        0.1486
     22 N           7.2981   -4.4830   29.5592 N.ar    1  UNL1       -0.2468
     23 C           7.5643   -5.9168   29.9103 C.ar    1  UNL1        0.1081
     24 C           8.6559   -5.9471   30.9388 C.ar    1  UNL1        0.0972
     25 CL          9.2371   -7.1767   31.5716 Cl      1  UNL1       -0.0789
     26 C           9.0642   -4.5322   31.2233 C.ar    1  UNL1        0.1330
     27 N           8.2250   -3.6272   30.3707 N.ar    1  UNL1       -0.1667
     28 C           1.7756    0.0347   21.4815 C.3     1  UNL1        0.0252
     29 C           0.9293    0.3242   20.2774 C.3     1  UNL1        0.0217
     30 C          -0.0693    1.4429   20.3138 C.3     1  UNL1        0.0724
     31 N          -0.2216    2.2720   21.5545 N.3     1  UNL1       -0.2726
     32 C           0.6246    1.9825   22.7587 C.3     1  UNL1        0.0724
     33 C           1.6232    0.8638   22.7222 C.3     1  UNL1        0.0217
     34 C          -1.2202    3.3907   21.5911 C.3     1  UNL1        0.0750
     35 C          -2.4257    3.3494   20.6995 C.3     1  UNL1        0.0554
     36 C          -3.7962    3.5283   21.2824 C.3     1  UNL1        0.1947
     37 F          -4.9266    2.6562   20.8222 F       1  UNL1       -0.2343
@<TRIPOS>BOND
     1     1     2    1
     2     2     3    2
     3     3     4    1
     4     4    28    1
     5    28    29    1
     6    29    30    1
     7    30    31    1
     8    31    34    1
     9    34    35    1
    10    35    36    1
    11    36    37    1
    12    31    32    1
    13    32    33    1
    14     4     5    2
    15     5     6    1
    16     6     7    2
    17     7     8    1
    18     8    11    1
    19    11    12    1
    20    12    18    1
    21    18    20    1
    22    20    21    1
    23    21    22    1
    24    22    23   ar
    25    23    24   ar
    26    24    25    1
    27    24    26   ar
    28    26    27   ar
    29    12    13    2
    30    13    14    1
    31    14    15    2
    32    15    16    1
    33    16    17    2
    34     8     9    2
    35     9    10    1
    36    10     2    1
    37    33    28    1
    38    10     6    1
    39    16    11    1
    40    27    22   ar
    41    18    19    1
@<TRIPOS>MOLECULE
*****
 37 41 0 0 0
SMALL
GASTEIGER

@<TRIPOS>ATOM
      1 C           4.1115   -4.2917   19.0367 C.3     1  UNL1        0.0312
      2 C           3.9203   -3.2488   20.0977 C.2     1  UNL1        0.0121
      3 C           2.9536   -2.1233   19.8776 C.2     1  UNL1       -0.0081
      4 C           2.7624   -1.0804   20.9386 C.2     1  UNL1       -0.0194
      5 C           3.5380   -1.1631   22.2199 C.2     1  UNL1        0.0425
      6 C           4.5048   -2.2886   22.4401 C.2     1  UNL1        0.2231
      7 N           5.4024   -2.6298   23.5924 N.2     1  UNL1       -0.0378
      8 C           6.1483   -3.8835   23.2435 C.2     1  UNL1        0.3605
      9 N           5.7117   -4.3172   21.8755 N.2     1  UNL1       -0.0547
     10 C           4.6959   -3.3315   21.3790 C.3     1  UNL1        0.2975
     11 C           7.1542   -4.5811   24.1103 C.3     1  UNL1        0.2246
     12 C           7.1782   -4.3233   25.5878 C.2     1  UNL1        0.0436
     13 C           8.1842   -5.0210   26.4546 C.2     1  UNL1        0.0288
     14 C           9.1662   -5.9764   25.8440 C.2     1  UNL1        0.0896
     15 N           9.1422   -6.2342   24.3665 N.am    1  UNL1       -0.1770
     16 C           8.1362   -5.5365   23.4997 C.2     1  UNL1        0.2627
     17 O           8.1123   -5.7943   22.0222 O.2     1  UNL1       -0.2719
     18 N           6.1963   -3.3679   26.1985 N.pl3   1  UNL1       -0.3335
     19 H           5.7691   -2.6779   25.6412 H       1  UNL1        0.1466
     20 C           5.8652   -3.4638   27.6584 C.3     1  UNL1        0.1136
     21 C           6.5655   -2.5781   28.6459 C.3     1  UNL1        0.1486
     22 N           6.3401   -2.7694   30.1165 N.ar    1  UNL1       -0.2468
     23 C           5.5484   -1.8635   31.0123 C.ar    1  UNL1        0.1081
     24 C           5.5859   -2.4344   32.3989 C.ar    1  UNL1        0.0972
     25 CL          4.9246   -1.8493   33.6115 Cl      1  UNL1       -0.0789
     26 C           6.4006   -3.6932   32.3601 C.ar    1  UNL1        0.1330
     27 N           6.8668   -3.9003   30.9494 N.ar    1  UNL1       -0.1667
     28 C           1.7956    0.0452   20.7184 C.3     1  UNL1        0.0252
     29 C           1.1435    0.7142   21.8919 C.3     1  UNL1        0.0217
     30 C           0.1767    1.8397   21.6718 C.3     1  UNL1        0.0724
     31 N          -0.1379    2.2963   20.2780 N.3     1  UNL1       -0.2726
     32 C           0.5142    1.6274   19.1045 C.3     1  UNL1        0.0724
     33 C           1.4810    0.5018   19.3246 C.3     1  UNL1        0.0217
     34 C          -1.1046    3.4219   20.0578 C.3     1  UNL1        0.0750
     35 C          -2.5679    3.2149   20.3151 C.3     1  UNL1        0.0554
     36 C          -3.1413    3.5148   21.6683 C.3     1  UNL1        0.1947
     37 F          -4.4328    2.8809   22.0928 F       1  UNL1       -0.2343
@<TRIPOS>BOND
     1     1     2    1
     2     2     3    2
     3     3     4    1
     4     4    28    1
     5    28    29    1
     6    29    30    1
     7    30    31    1
     8    31    34    1
     9    34    35    1
    10    35    36    1
    11    36    37    1
    12    31    32    1
    13    32    33    1
    14     4     5    2
    15     5     6    1
    16     6     7    2
    17     7     8    1
    18     8    11    1
    19    11    12    1
    20    12    18    1
    21    18    20    1
    22    20    21    1
    23    21    22    1
    24    22    23   ar
    25    23    24   ar
    26    24    25    1
    27    24    26   ar
    28    26    27   ar
    29    12    13    2
    30    13    14    1
    31    14    15    2
    32    15    16    1
    33    16    17    2
    34     8     9    2
    35     9    10    1
    36    10     2    1
    37    33    28    1
    38    10     6    1
    39    16    11    1
    40    27    22   ar
    41    18    19    1
