@<TRIPOS>MOLECULE
*****
 38 42 0 0 0
SMALL
GASTEIGER

@<TRIPOS>ATOM
      1 N           7.4698   -3.8907   22.7468 N.am    1  UNL1       -0.3018
      2 C           6.3585   -3.9550   21.7414 C.2     1  UNL1        0.2425
      3 O           4.9485   -3.6637   22.1623 O.2     1  UNL1       -0.2733
      4 H           8.3952   -4.0819   22.4706 H       1  UNL1        0.1495
      5 N           6.7487   -3.0323   26.1903 N.3     1  UNL1       -0.2711
      6 C           7.2987   -2.2941   25.0060 C.3     1  UNL1        0.0933
      7 C           7.1711   -3.5352   24.1731 C.3     1  UNL1        0.1035
      8 C           6.6211   -4.2733   25.3574 C.3     1  UNL1        0.0933
      9 C           5.8525   -1.9658   30.4693 C.3     1  UNL1        0.0240
     10 C           6.9722   -2.9120   30.1507 C.3     1  UNL1        0.0058
     11 C           7.2708   -3.2674   28.7245 C.3     1  UNL1        0.0163
     12 C           6.4500   -2.6768   27.6166 C.3     1  UNL1        0.0576
     13 C           5.3304   -1.7308   27.9351 C.3     1  UNL1        0.0163
     14 C           5.0317   -1.3753   29.3614 C.3     1  UNL1        0.0058
     15 C           4.9569   -0.8994   34.7483 C.ar    1  UNL1        0.2250
     16 C           6.1755   -0.3407   34.0755 C.ar    1  UNL1        0.0574
     17 C           6.4740   -0.6962   32.6491 C.ar    1  UNL1        0.0020
     18 C           5.5539   -1.6104   31.8956 C.ar    1  UNL1       -0.0031
     19 C           4.3353   -2.1691   32.5685 C.ar    1  UNL1        0.0977
     20 N           4.0368   -1.8136   33.9948 N.ar    1  UNL1       -0.2105
     21 C           5.6137    0.3148   36.9493 C.3     1  UNL1        0.2542
     22 O           4.6584   -0.5439   36.1747 O.3     1  UNL1       -0.4561
     23 C           6.6572   -4.3105   20.3151 C.3     1  UNL1        0.1747
     24 N           5.6463   -4.0263   19.2438 N.pl3   1  UNL1       -0.3080
     25 H           4.9561   -4.6945   19.0287 H       1  UNL1        0.1487
     26 C           5.6873   -2.7241   18.5004 C.ar    1  UNL1        0.1708
     27 N           6.7777   -2.2709   17.5754 N.ar    1  UNL1       -0.0621
     28 O           6.4092   -0.9132   17.0549 O.2     1  UNL1       -0.3522
     29 C           5.0912   -0.5274   17.6581 C.ar    1  UNL1        0.1781
     30 C           4.2397    0.6985   17.5093 C.ar    1  UNL1        0.0402
     31 C           2.9419    0.8051   18.2539 C.ar    1  UNL1        0.0071
     32 C           2.4957   -0.3142   19.1473 C.ar    1  UNL1        0.0717
     33 C           3.3472   -1.5400   19.2961 C.ar    1  UNL1        0.0099
     34 C           4.6450   -1.6466   18.5515 C.ar    1  UNL1        0.0717
     35 C           1.1979   -0.2075   19.8920 C.3     1  UNL1        0.4186
     36 F          -0.0998   -0.1009   20.6366 F       1  UNL1       -0.1659
     37 F           0.6172    0.5941   18.7650 F       1  UNL1       -0.1659
     38 F           1.7787   -1.0092   21.0189 F       1  UNL1       -0.1659
@<TRIPOS>BOND
     1    21    22    1
     2    22    15    1
     3    15    16   ar
     4    16    17   ar
     5    17    18   ar
     6     9    18    1
     7     9    10    1
     8    10    11    1
     9    11    12    1
    10    12     5    1
    11     5     6    1
    12     6     7    1
    13     7     1    1
    14     1     2   am
    15     2     3    2
    16     2    23    1
    17    23    24    1
    18    24    26    1
    19    26    27   ar
    20    27    28   ar
    21    28    29   ar
    22    29    30   ar
    23    30    31   ar
    24    31    32   ar
    25    32    35    1
    26    35    36    1
    27    35    37    1
    28    35    38    1
    29    32    33   ar
    30    33    34   ar
    31     7     8    1
    32    12    13    1
    33    13    14    1
    34    18    19   ar
    35    19    20   ar
    36    20    15   ar
    37    14     9    1
    38     8     5    1
    39    34    26   ar
    40    34    29   ar
    41     1     4    1
    42    24    25    1
@<TRIPOS>MOLECULE
*****
 38 42 0 0 0
SMALL
GASTEIGER

@<TRIPOS>ATOM
      1 N           5.9190   -2.7521   28.0193 N.am    1  UNL1       -0.3018
      2 C           6.9349   -2.2733   27.0250 C.2     1  UNL1        0.2425
      3 O           7.8915   -1.1797   27.3976 O.2     1  UNL1       -0.2733
      4 H           5.2911   -3.4699   27.7747 H       1  UNL1        0.1495
      5 N           5.7761   -1.2678   31.3194 N.3     1  UNL1       -0.2711
      6 C           4.9913   -1.1105   30.0508 C.3     1  UNL1        0.0933
      7 C           5.8598   -2.1373   29.3862 C.3     1  UNL1        0.1035
      8 C           6.6445   -2.2945   30.6548 C.3     1  UNL1        0.0933
      9 C           5.5986    0.5766   35.4202 C.3     1  UNL1        0.0240
     10 C           6.5205    1.1440   34.3818 C.3     1  UNL1        0.0058
     11 C           6.5797    0.5292   33.0150 C.3     1  UNL1        0.0163
     12 C           5.7169   -0.6530   32.6863 C.3     1  UNL1        0.0576
     13 C           4.7950   -1.2204   33.7246 C.3     1  UNL1        0.0163
     14 C           4.7358   -0.6056   35.0916 C.3     1  UNL1        0.0058
     15 C           5.4216    2.4213   39.5209 C.ar    1  UNL1        0.2250
     16 C           6.6668    2.5486   38.6944 C.ar    1  UNL1        0.0574
     17 C           6.7258    1.9337   37.3275 C.ar    1  UNL1        0.0020
     18 C           5.5395    1.1914   36.7871 C.ar    1  UNL1       -0.0031
     19 C           4.2943    1.0642   37.6136 C.ar    1  UNL1        0.0977
     20 N           4.2353    1.6791   38.9805 N.ar    1  UNL1       -0.2105
     21 C           4.9103    4.4569   41.0522 C.3     1  UNL1        0.2542
     22 O           5.3626    3.0362   40.8878 O.3     1  UNL1       -0.4561
     23 C           6.9940   -2.8881   25.6580 C.3     1  UNL1        0.1747
     24 N           5.7389   -3.3861   25.0047 N.pl3   1  UNL1       -0.3080
     25 H           5.5055   -4.3414   25.0510 H       1  UNL1        0.1487
     26 C           4.8395   -2.4285   24.2806 C.ar    1  UNL1        0.1708
     27 N           4.2159   -1.1940   24.8613 N.ar    1  UNL1       -0.0621
     28 O           3.3968   -0.5399   23.7883 O.2     1  UNL1       -0.3522
     29 C           3.5142   -1.3702   22.5446 C.ar    1  UNL1        0.1781
     30 C           2.9243   -1.2142   21.1743 C.ar    1  UNL1        0.0402
     31 C           3.2260   -2.2253   20.1083 C.ar    1  UNL1        0.0071
     32 C           4.1177   -3.3926   20.4126 C.ar    1  UNL1        0.0717
     33 C           4.7075   -3.5486   21.7828 C.ar    1  UNL1        0.0099
     34 C           4.4058   -2.5374   22.8488 C.ar    1  UNL1        0.0717
     35 C           4.4194   -4.4038   19.3465 C.3     1  UNL1        0.4186
     36 F           4.7211   -5.4150   18.2805 F       1  UNL1       -0.1659
     37 F           5.8711   -4.3666   19.7220 F       1  UNL1       -0.1659
     38 F           2.9677   -4.4410   18.9710 F       1  UNL1       -0.1659
@<TRIPOS>BOND
     1    21    22    1
     2    22    15    1
     3    15    16   ar
     4    16    17   ar
     5    17    18   ar
     6     9    18    1
     7     9    10    1
     8    10    11    1
     9    11    12    1
    10    12     5    1
    11     5     6    1
    12     6     7    1
    13     7     1    1
    14     1     2   am
    15     2     3    2
    16     2    23    1
    17    23    24    1
    18    24    26    1
    19    26    27   ar
    20    27    28   ar
    21    28    29   ar
    22    29    30   ar
    23    30    31   ar
    24    31    32   ar
    25    32    35    1
    26    35    36    1
    27    35    37    1
    28    35    38    1
    29    32    33   ar
    30    33    34   ar
    31     7     8    1
    32    12    13    1
    33    13    14    1
    34    18    19   ar
    35    19    20   ar
    36    20    15   ar
    37    14     9    1
    38     8     5    1
    39    34    26   ar
    40    34    29   ar
    41     1     4    1
    42    24    25    1
@<TRIPOS>MOLECULE
*****
 38 42 0 0 0
SMALL
GASTEIGER

@<TRIPOS>ATOM
      1 N           3.5112   -1.6338   26.7592 N.am    1  UNL1       -0.3018
      2 C           4.2521   -0.8913   25.6869 C.2     1  UNL1        0.2425
      3 O           4.9550    0.3931   26.0127 O.2     1  UNL1       -0.2733
      4 H           3.0499   -2.4768   26.5454 H       1  UNL1        0.1495
      5 N           3.4194   -0.3251   30.1346 N.3     1  UNL1       -0.2711
      6 C           2.3944   -0.5935   29.0728 C.3     1  UNL1        0.0933
      7 C           3.4732   -1.0917   28.1573 C.3     1  UNL1        0.1035
      8 C           4.4981   -0.8233   29.2191 C.3     1  UNL1        0.0933
      9 C           3.3053    1.3010   34.3290 C.3     1  UNL1        0.0240
     10 C           2.5818    2.0169   33.2270 C.3     1  UNL1        0.0058
     11 C           2.6198    1.4748   31.8290 C.3     1  UNL1        0.0163
     12 C           3.3813    0.2169   31.5327 C.3     1  UNL1        0.0576
     13 C           4.1048   -0.4989   32.6346 C.3     1  UNL1        0.0163
     14 C           4.0668    0.0431   34.0327 C.3     1  UNL1        0.0058
     15 C           3.1912    2.9273   38.5232 C.ar    1  UNL1        0.2250
     16 C           3.9317    1.6558   38.2318 C.ar    1  UNL1        0.0574
     17 C           3.9697    1.1138   36.8336 C.ar    1  UNL1        0.0020
     18 C           3.2672    1.8432   35.7270 C.ar    1  UNL1       -0.0031
     19 C           2.5268    3.1146   36.0186 C.ar    1  UNL1        0.0977
     20 N           2.4887    3.6567   37.4167 N.ar    1  UNL1       -0.2105
     21 C           4.0665    4.5920   40.3156 C.3     1  UNL1        0.2542
     22 O           3.1532    3.4693   39.9214 O.3     1  UNL1       -0.4561
     23 C           4.2901   -1.4334   24.2888 C.3     1  UNL1        0.1747
     24 N           4.6995   -2.8561   24.0468 N.pl3   1  UNL1       -0.3080
     25 H           4.6899   -3.5039   24.7881 H       1  UNL1        0.1487
     26 C           5.1235   -3.2916   22.6755 C.ar    1  UNL1        0.1708
     27 N           6.1972   -4.2905   22.3603 N.ar    1  UNL1       -0.0621
     28 O           6.2855   -4.4209   20.8686 O.2     1  UNL1       -0.3522
     29 C           5.2664   -3.5027   20.2619 C.ar    1  UNL1        0.1781
     30 C           4.8995   -3.2119   18.8368 C.ar    1  UNL1        0.0402
     31 C           3.8145   -2.2232   18.5285 C.ar    1  UNL1        0.0071
     32 C           3.0963   -1.5252   19.6452 C.ar    1  UNL1        0.0717
     33 C           3.4632   -1.8160   21.0703 C.ar    1  UNL1        0.0099
     34 C           4.5482   -2.8047   21.3786 C.ar    1  UNL1        0.0717
     35 C           2.0113   -0.5364   19.3368 C.3     1  UNL1        0.4186
     36 F           0.9262    0.4523   19.0285 F       1  UNL1       -0.1659
     37 F           2.8187   -0.0086   18.1882 F       1  UNL1       -0.1659
     38 F           1.2039   -1.0643   20.4855 F       1  UNL1       -0.1659
@<TRIPOS>BOND
     1    21    22    1
     2    22    15    1
     3    15    16   ar
     4    16    17   ar
     5    17    18   ar
     6     9    18    1
     7     9    10    1
     8    10    11    1
     9    11    12    1
    10    12     5    1
    11     5     6    1
    12     6     7    1
    13     7     1    1
    14     1     2   am
    15     2     3    2
    16     2    23    1
    17    23    24    1
    18    24    26    1
    19    26    27   ar
    20    27    28   ar
    21    28    29   ar
    22    29    30   ar
    23    30    31   ar
    24    31    32   ar
    25    32    35    1
    26    35    36    1
    27    35    37    1
    28    35    38    1
    29    32    33   ar
    30    33    34   ar
    31     7     8    1
    32    12    13    1
    33    13    14    1
    34    18    19   ar
    35    19    20   ar
    36    20    15   ar
    37    14     9    1
    38     8     5    1
    39    34    26   ar
    40    34    29   ar
    41     1     4    1
    42    24    25    1
@<TRIPOS>MOLECULE
*****
 38 42 0 0 0
SMALL
GASTEIGER

@<TRIPOS>ATOM
      1 N           2.4696   -0.1294   26.1809 N.am    1  UNL1       -0.3018
      2 C           3.7150   -0.5568   25.4624 C.2     1  UNL1        0.2425
      3 O           5.0221   -0.6138   26.1960 O.2     1  UNL1       -0.2733
      4 H           1.6117   -0.0919   25.6994 H       1  UNL1        0.1495
      5 N           2.6186    0.7647   29.6870 N.3     1  UNL1       -0.2711
      6 C           2.0200   -0.3671   28.9055 C.3     1  UNL1        0.0933
      7 C           2.5314    0.2410   27.6332 C.3     1  UNL1        0.1035
      8 C           3.1299    1.3727   28.4147 C.3     1  UNL1        0.0933
      9 C           2.8038    1.8757   34.0438 C.3     1  UNL1        0.0240
     10 C           3.7718    0.8765   33.4827 C.3     1  UNL1        0.0058
     11 C           3.7100    0.5062   32.0305 C.3     1  UNL1        0.0163
     12 C           2.6804    1.1350   31.1393 C.3     1  UNL1        0.0576
     13 C           1.7124    2.1342   31.7003 C.3     1  UNL1        0.0163
     14 C           1.7742    2.5045   33.1525 C.3     1  UNL1        0.0058
     15 C           2.9892    2.9867   38.4005 C.ar    1  UNL1        0.2250
     16 C           2.1950    3.8274   37.4453 C.ar    1  UNL1        0.0574
     17 C           2.1332    3.4570   35.9930 C.ar    1  UNL1        0.0020
     18 C           2.8657    2.2460   35.4960 C.ar    1  UNL1       -0.0031
     19 C           3.6599    1.4054   36.4513 C.ar    1  UNL1        0.0977
     20 N           3.7216    1.7757   37.9035 N.ar    1  UNL1       -0.2105
     21 C           3.9325    4.4844   40.3024 C.3     1  UNL1        0.2542
     22 O           3.0510    3.3571   39.8527 O.3     1  UNL1       -0.4561
     23 C           3.6533   -0.9271   24.0101 C.3     1  UNL1        0.1747
     24 N           2.4501   -0.5599   23.1930 N.pl3   1  UNL1       -0.3080
     25 H           1.5461   -0.7139   23.5512 H       1  UNL1        0.1487
     26 C           2.6244    0.0419   21.8300 C.ar    1  UNL1        0.1708
     27 N           2.3638    1.4713   21.4575 N.ar    1  UNL1       -0.0621
     28 O           2.6682    1.6327   19.9976 O.2     1  UNL1       -0.3522
     29 C           3.1168    0.3029   19.4679 C.ar    1  UNL1        0.1781
     30 C           3.5465   -0.1396   18.1006 C.ar    1  UNL1        0.0402
     31 C           3.9491   -1.5653   17.8659 C.ar    1  UNL1        0.0071
     32 C           3.9220   -2.5485   18.9984 C.ar    1  UNL1        0.0717
     33 C           3.4923   -2.1060   20.3657 C.ar    1  UNL1        0.0099
     34 C           3.0897   -0.6802   20.6004 C.ar    1  UNL1        0.0717
     35 C           4.3246   -3.9743   18.7636 C.3     1  UNL1        0.4186
     36 F           4.7272   -5.4001   18.5288 F       1  UNL1       -0.1659
     37 F           5.7323   -3.5324   18.4933 F       1  UNL1       -0.1659
     38 F           2.9170   -4.4163   19.0339 F       1  UNL1       -0.1659
@<TRIPOS>BOND
     1    21    22    1
     2    22    15    1
     3    15    16   ar
     4    16    17   ar
     5    17    18   ar
     6     9    18    1
     7     9    10    1
     8    10    11    1
     9    11    12    1
    10    12     5    1
    11     5     6    1
    12     6     7    1
    13     7     1    1
    14     1     2   am
    15     2     3    2
    16     2    23    1
    17    23    24    1
    18    24    26    1
    19    26    27   ar
    20    27    28   ar
    21    28    29   ar
    22    29    30   ar
    23    30    31   ar
    24    31    32   ar
    25    32    35    1
    26    35    36    1
    27    35    37    1
    28    35    38    1
    29    32    33   ar
    30    33    34   ar
    31     7     8    1
    32    12    13    1
    33    13    14    1
    34    18    19   ar
    35    19    20   ar
    36    20    15   ar
    37    14     9    1
    38     8     5    1
    39    34    26   ar
    40    34    29   ar
    41     1     4    1
    42    24    25    1
@<TRIPOS>MOLECULE
*****
 38 42 0 0 0
SMALL
GASTEIGER

@<TRIPOS>ATOM
      1 N          -0.2152    2.4761   23.8805 N.am    1  UNL1       -0.3018
      2 C           0.5817    1.4854   23.0847 C.2     1  UNL1        0.2425
      3 O           1.6329    0.6541   23.7584 O.2     1  UNL1       -0.2733
      4 H          -0.9052    3.0216   23.4383 H       1  UNL1        0.1495
      5 N           0.3988    2.8610   27.4286 N.3     1  UNL1       -0.2711
      6 C          -0.7467    2.3626   26.5984 C.3     1  UNL1        0.0933
      7 C           0.0392    2.6355   25.3502 C.3     1  UNL1        0.1035
      8 C           1.1847    3.1339   26.1804 C.3     1  UNL1        0.0933
      9 C           1.1620    3.3393   31.8376 C.3     1  UNL1        0.0240
     10 C           0.9040    4.5467   30.9856 C.3     1  UNL1        0.0058
     11 C           0.6496    4.3872   29.5161 C.3     1  UNL1        0.0163
     12 C           0.6532    3.0204   28.8983 C.3     1  UNL1        0.0576
     13 C           0.9113    1.8130   29.7501 C.3     1  UNL1        0.0163
     14 C           1.1657    1.9725   31.2197 C.3     1  UNL1        0.0058
     15 C           1.9250    3.8182   36.2464 C.ar    1  UNL1        0.2250
     16 C           1.2786    4.9285   35.4723 C.ar    1  UNL1        0.0574
     17 C           1.0243    4.7688   34.0026 C.ar    1  UNL1        0.0020
     18 C           1.4164    3.4989   33.3071 C.ar    1  UNL1       -0.0031
     19 C           2.0628    2.3886   34.0814 C.ar    1  UNL1        0.0977
     20 N           2.3171    2.5483   35.5510 N.ar    1  UNL1       -0.2105
     21 C           2.1082    2.7856   38.6234 C.3     1  UNL1        0.2542
     22 O           2.1794    3.9779   37.7161 O.3     1  UNL1       -0.4561
     23 C           0.3273    1.3259   21.6150 C.3     1  UNL1        0.1747
     24 N           0.9145    0.1612   20.8742 N.pl3   1  UNL1       -0.3080
     25 H           0.5253   -0.7368   20.9807 H       1  UNL1        0.1487
     26 C           2.0949    0.3648   19.9712 C.ar    1  UNL1        0.1708
     27 N           2.5842    1.6806   19.4428 N.ar    1  UNL1       -0.0621
     28 O           3.7848    1.4172   18.5831 O.2     1  UNL1       -0.3522
     29 C           4.0376   -0.0613   18.5802 C.ar    1  UNL1        0.1781
     30 C           5.0838   -0.8994   17.9071 C.ar    1  UNL1        0.0402
     31 C           5.0856   -2.3879   18.0920 C.ar    1  UNL1        0.0071
     32 C           4.0411   -3.0384   18.9500 C.ar    1  UNL1        0.0717
     33 C           2.9949   -2.2003   19.6230 C.ar    1  UNL1        0.0099
     34 C           2.9931   -0.7118   19.4381 C.ar    1  UNL1        0.0717
     35 C           4.0429   -4.5270   19.1348 C.3     1  UNL1        0.4186
     36 F           4.0447   -6.0155   19.3197 F       1  UNL1       -0.1659
     37 F           5.5248   -4.4966   19.3653 F       1  UNL1       -0.1659
     38 F           2.5611   -4.5574   18.9044 F       1  UNL1       -0.1659
@<TRIPOS>BOND
     1    21    22    1
     2    22    15    1
     3    15    16   ar
     4    16    17   ar
     5    17    18   ar
     6     9    18    1
     7     9    10    1
     8    10    11    1
     9    11    12    1
    10    12     5    1
    11     5     6    1
    12     6     7    1
    13     7     1    1
    14     1     2   am
    15     2     3    2
    16     2    23    1
    17    23    24    1
    18    24    26    1
    19    26    27   ar
    20    27    28   ar
    21    28    29   ar
    22    29    30   ar
    23    30    31   ar
    24    31    32   ar
    25    32    35    1
    26    35    36    1
    27    35    37    1
    28    35    38    1
    29    32    33   ar
    30    33    34   ar
    31     7     8    1
    32    12    13    1
    33    13    14    1
    34    18    19   ar
    35    19    20   ar
    36    20    15   ar
    37    14     9    1
    38     8     5    1
    39    34    26   ar
    40    34    29   ar
    41     1     4    1
    42    24    25    1
@<TRIPOS>MOLECULE
*****
 38 42 0 0 0
SMALL
GASTEIGER

@<TRIPOS>ATOM
      1 N           3.5519   -0.2054   32.5823 N.am    1  UNL1       -0.3018
      2 C           4.3402   -1.2759   33.2769 C.2     1  UNL1        0.2425
      3 O           5.0128   -2.3512   32.4761 O.2     1  UNL1       -0.2733
      4 H           3.1104    0.5003   33.1079 H       1  UNL1        0.1495
      5 N           3.2727   -0.2171   28.9717 N.3     1  UNL1       -0.2711
      6 C           4.3527    0.1361   29.9509 C.3     1  UNL1        0.0933
      7 C           3.4362   -0.2103   31.0868 C.3     1  UNL1        0.1035
      8 C           2.3562   -0.5635   30.1076 C.3     1  UNL1        0.0933
      9 C           2.9256   -0.2317   24.4851 C.3     1  UNL1        0.0240
     10 C           3.7292   -1.2916   25.1788 C.3     1  UNL1        0.0058
     11 C           3.8448   -1.2867   26.6742 C.3     1  UNL1        0.0163
     12 C           3.1570   -0.2220   27.4762 C.3     1  UNL1        0.0576
     13 C           2.3534    0.8378   26.7827 C.3     1  UNL1        0.0163
     14 C           2.2377    0.8330   25.2871 C.3     1  UNL1        0.0058
     15 C           2.5789   -0.2468   19.9986 C.ar    1  UNL1        0.2250
     16 C           3.2682   -1.3786   20.7013 C.ar    1  UNL1        0.0574
     17 C           3.3838   -1.3735   22.1968 C.ar    1  UNL1        0.0020
     18 C           2.8100   -0.2367   22.9897 C.ar    1  UNL1       -0.0031
     19 C           2.1206    0.8951   22.2869 C.ar    1  UNL1        0.0977
     20 N           2.0051    0.8900   20.7913 N.ar    1  UNL1       -0.2105
     21 C           3.7002   -0.2898   17.6554 C.3     1  UNL1        0.2542
     22 O           2.4633   -0.2519   18.5031 O.3     1  UNL1       -0.4561
     23 C           4.4559   -1.2711   34.7725 C.3     1  UNL1        0.1747
     24 N           5.1873   -0.1592   35.4645 N.pl3   1  UNL1       -0.3080
     25 H           6.0350   -0.3427   35.9304 H       1  UNL1        0.1487
     26 C           4.6273    1.2322   35.4467 C.ar    1  UNL1        0.1708
     27 N           4.9808    2.3124   34.4679 N.ar    1  UNL1       -0.0621
     28 O           4.1874    3.5355   34.8209 O.2     1  UNL1       -0.3522
     29 C           3.3435    3.2111   36.0179 C.ar    1  UNL1        0.1781
     30 C           2.3626    4.0281   36.8055 C.ar    1  UNL1        0.0402
     31 C           1.6537    3.4215   37.9800 C.ar    1  UNL1        0.0071
     32 C           1.9256    1.9980   38.3668 C.ar    1  UNL1        0.0717
     33 C           2.9064    1.1810   37.5791 C.ar    1  UNL1        0.0099
     34 C           3.6154    1.7876   36.4046 C.ar    1  UNL1        0.0717
     35 C           1.2166    1.3914   39.5413 C.3     1  UNL1        0.4186
     36 F           0.5076    0.7849   40.7158 F       1  UNL1       -0.1659
     37 F           2.2667    0.3236   39.6238 F       1  UNL1       -0.1659
     38 F           0.1664    2.4592   39.4588 F       1  UNL1       -0.1659
@<TRIPOS>BOND
     1    21    22    1
     2    22    15    1
     3    15    16   ar
     4    16    17   ar
     5    17    18   ar
     6     9    18    1
     7     9    10    1
     8    10    11    1
     9    11    12    1
    10    12     5    1
    11     5     6    1
    12     6     7    1
    13     7     1    1
    14     1     2   am
    15     2     3    2
    16     2    23    1
    17    23    24    1
    18    24    26    1
    19    26    27   ar
    20    27    28   ar
    21    28    29   ar
    22    29    30   ar
    23    30    31   ar
    24    31    32   ar
    25    32    35    1
    26    35    36    1
    27    35    37    1
    28    35    38    1
    29    32    33   ar
    30    33    34   ar
    31     7     8    1
    32    12    13    1
    33    13    14    1
    34    18    19   ar
    35    19    20   ar
    36    20    15   ar
    37    14     9    1
    38     8     5    1
    39    34    26   ar
    40    34    29   ar
    41     1     4    1
    42    24    25    1
@<TRIPOS>MOLECULE
*****
 38 42 0 0 0
SMALL
GASTEIGER

@<TRIPOS>ATOM
      1 N           0.2505    1.8306   23.5878 N.am    1  UNL1       -0.3018
      2 C           0.8674    1.1272   22.4153 C.2     1  UNL1        0.2425
      3 O           2.0071    0.1752   22.6266 O.2     1  UNL1       -0.2733
      4 H          -0.4976    2.4554   23.4491 H       1  UNL1        0.1495
      5 N           1.5126    1.2302   26.9285 N.3     1  UNL1       -0.2711
      6 C           0.1501    1.2871   26.3038 C.3     1  UNL1        0.0933
      7 C           0.7733    1.5819   24.9715 C.3     1  UNL1        0.1035
      8 C           2.1358    1.5250   25.5963 C.3     1  UNL1        0.0933
      9 C           3.0812    0.4842   31.0798 C.3     1  UNL1        0.0240
     10 C           2.9686    1.8873   30.5614 C.3     1  UNL1        0.0058
     11 C           2.4457    2.1359   29.1777 C.3     1  UNL1        0.0163
     12 C           2.0355    0.9815   28.3123 C.3     1  UNL1        0.0576
     13 C           2.1481   -0.4216   28.8306 C.3     1  UNL1        0.0163
     14 C           2.6710   -0.6702   30.2144 C.3     1  UNL1        0.0058
     15 C           4.6498   -0.2612   35.2311 C.ar    1  UNL1        0.2250
     16 C           4.2343    1.1212   34.8234 C.ar    1  UNL1        0.0574
     17 C           3.7114    1.3696   33.4396 C.ar    1  UNL1        0.0020
     18 C           3.6041    0.2356   32.4635 C.ar    1  UNL1       -0.0031
     19 C           4.0196   -1.1468   32.8713 C.ar    1  UNL1        0.0977
     20 N           4.5424   -1.3952   34.2551 N.ar    1  UNL1       -0.2105
     21 C           6.5417   -0.0302   36.9967 C.3     1  UNL1        0.2542
     22 O           5.1726   -0.5097   36.6149 O.3     1  UNL1       -0.4561
     23 C           0.3445    1.3759   21.0316 C.3     1  UNL1        0.1747
     24 N           0.6572    0.4104   19.9269 N.pl3   1  UNL1       -0.3080
     25 H          -0.0086   -0.2636   19.6591 H       1  UNL1        0.1487
     26 C           1.9843    0.4719   19.2303 C.ar    1  UNL1        0.1708
     27 N           2.6176    1.7000   18.6467 N.ar    1  UNL1       -0.0621
     28 O           3.9357    1.3031   18.0508 O.2     1  UNL1       -0.3522
     29 C           4.1170   -0.1702   18.2661 C.ar    1  UNL1        0.1781
     30 C           5.2244   -1.1104   17.8926 C.ar    1  UNL1        0.0402
     31 C           5.1258   -2.5643   18.2480 C.ar    1  UNL1        0.0071
     32 C           3.9197   -3.0781   18.9770 C.ar    1  UNL1        0.0717
     33 C           2.8123   -2.1379   19.3505 C.ar    1  UNL1        0.0099
     34 C           2.9109   -0.6840   18.9951 C.ar    1  UNL1        0.0717
     35 C           3.8211   -4.5321   19.3324 C.3     1  UNL1        0.4186
     36 F           3.7225   -5.9860   19.6878 F       1  UNL1       -0.1659
     37 F           5.2183   -4.4938   19.8766 F       1  UNL1       -0.1659
     38 F           2.4239   -4.5703   18.7882 F       1  UNL1       -0.1659
@<TRIPOS>BOND
     1    21    22    1
     2    22    15    1
     3    15    16   ar
     4    16    17   ar
     5    17    18   ar
     6     9    18    1
     7     9    10    1
     8    10    11    1
     9    11    12    1
    10    12     5    1
    11     5     6    1
    12     6     7    1
    13     7     1    1
    14     1     2   am
    15     2     3    2
    16     2    23    1
    17    23    24    1
    18    24    26    1
    19    26    27   ar
    20    27    28   ar
    21    28    29   ar
    22    29    30   ar
    23    30    31   ar
    24    31    32   ar
    25    32    35    1
    26    35    36    1
    27    35    37    1
    28    35    38    1
    29    32    33   ar
    30    33    34   ar
    31     7     8    1
    32    12    13    1
    33    13    14    1
    34    18    19   ar
    35    19    20   ar
    36    20    15   ar
    37    14     9    1
    38     8     5    1
    39    34    26   ar
    40    34    29   ar
    41     1     4    1
    42    24    25    1
@<TRIPOS>MOLECULE
*****
 38 42 0 0 0
SMALL
GASTEIGER

@<TRIPOS>ATOM
      1 N           0.8365    3.5084   30.4898 N.am    1  UNL1       -0.3018
      2 C           1.2544    2.9964   31.8363 C.2     1  UNL1        0.2425
      3 O           2.0591    1.7350   31.9424 O.2     1  UNL1       -0.2733
      4 H           0.3083    4.3363   30.4201 H       1  UNL1        0.1495
      5 N           1.7703    1.6990   27.4951 N.3     1  UNL1       -0.2711
      6 C           0.6630    1.5861   28.5006 C.3     1  UNL1        0.0933
      7 C           1.2233    2.7590   29.2494 C.3     1  UNL1        0.1035
      8 C           2.3306    2.8718   28.2439 C.3     1  UNL1        0.0933
      9 C           2.9309   -0.5494   23.7738 C.3     1  UNL1        0.0240
     10 C           3.5834   -0.8792   25.0836 C.3     1  UNL1        0.0058
     11 C           3.1966   -0.1297   26.3240 C.3     1  UNL1        0.0163
     12 C           2.1572    0.9495   26.2547 C.3     1  UNL1        0.0576
     13 C           1.5046    1.2793   24.9450 C.3     1  UNL1        0.0163
     14 C           1.8915    0.5299   23.7045 C.3     1  UNL1        0.0058
     15 C           4.0915   -2.7978   20.0526 C.ar    1  UNL1        0.2250
     16 C           3.0410   -1.7292   19.9862 C.ar    1  UNL1        0.0574
     17 C           2.6541   -0.9798   21.2266 C.ar    1  UNL1        0.0020
     18 C           3.3178   -1.2989   22.5335 C.ar    1  UNL1       -0.0031
     19 C           4.3683   -2.3675   22.5998 C.ar    1  UNL1        0.0977
     20 N           4.7552   -3.1170   21.3594 N.ar    1  UNL1       -0.2105
     21 C           4.4521   -5.0470   18.8032 C.3     1  UNL1        0.2542
     22 O           4.4783   -3.5473   18.8122 O.3     1  UNL1       -0.4561
     23 C           0.8675    3.7458   33.0767 C.3     1  UNL1        0.1747
     24 N           1.9269    4.2261   34.0240 N.pl3   1  UNL1       -0.3080
     25 H           2.5159    4.9718   33.7667 H       1  UNL1        0.1487
     26 C           2.0889    3.5700   35.3631 C.ar    1  UNL1        0.1708
     27 N           1.4004    3.9755   36.6326 N.ar    1  UNL1       -0.0621
     28 O           1.8538    3.0494   37.7220 O.2     1  UNL1       -0.3522
     29 C           2.8225    2.0715   37.1258 C.ar    1  UNL1        0.1781
     30 C           3.5911    0.9297   37.7220 C.ar    1  UNL1        0.0402
     31 C           4.5049    0.1096   36.8604 C.ar    1  UNL1        0.0071
     32 C           4.6502    0.4314   35.4025 C.ar    1  UNL1        0.0717
     33 C           3.8816    1.5733   34.8063 C.ar    1  UNL1        0.0099
     34 C           2.9678    2.3933   35.6679 C.ar    1  UNL1        0.0717
     35 C           5.5640   -0.3887   34.5409 C.3     1  UNL1        0.4186
     36 F           6.4779   -1.2087   33.6793 F       1  UNL1       -0.1659
     37 F           4.4523   -1.3638   34.2898 F       1  UNL1       -0.1659
     38 F           6.6758    0.5865   34.7919 F       1  UNL1       -0.1659
@<TRIPOS>BOND
     1    21    22    1
     2    22    15    1
     3    15    16   ar
     4    16    17   ar
     5    17    18   ar
     6     9    18    1
     7     9    10    1
     8    10    11    1
     9    11    12    1
    10    12     5    1
    11     5     6    1
    12     6     7    1
    13     7     1    1
    14     1     2   am
    15     2     3    2
    16     2    23    1
    17    23    24    1
    18    24    26    1
    19    26    27   ar
    20    27    28   ar
    21    28    29   ar
    22    29    30   ar
    23    30    31   ar
    24    31    32   ar
    25    32    35    1
    26    35    36    1
    27    35    37    1
    28    35    38    1
    29    32    33   ar
    30    33    34   ar
    31     7     8    1
    32    12    13    1
    33    13    14    1
    34    18    19   ar
    35    19    20   ar
    36    20    15   ar
    37    14     9    1
    38     8     5    1
    39    34    26   ar
    40    34    29   ar
    41     1     4    1
    42    24    25    1
@<TRIPOS>MOLECULE
*****
 38 42 0 0 0
SMALL
GASTEIGER

@<TRIPOS>ATOM
      1 N           5.8090   -2.8834   27.3894 N.am    1  UNL1       -0.3018
      2 C           6.5497   -2.1629   26.3022 C.2     1  UNL1        0.2425
      3 O           7.2239   -0.8550   26.5935 O.2     1  UNL1       -0.2733
      4 H           5.3665   -3.7418   27.1982 H       1  UNL1        0.1495
      5 N           5.6485   -1.4654   30.7177 N.3     1  UNL1       -0.2711
      6 C           6.4575   -2.5455   30.0629 C.3     1  UNL1        0.0933
      7 C           5.7425   -2.2960   28.7680 C.3     1  UNL1        0.1035
      8 C           4.9335   -1.2159   29.4228 C.3     1  UNL1        0.0933
      9 C           5.4490    0.2968   34.8535 C.3     1  UNL1        0.0240
     10 C           4.6700   -0.9431   34.5281 C.3     1  UNL1        0.0058
     11 C           4.7365   -1.5304   33.1495 C.3     1  UNL1        0.0163
     12 C           5.5820   -0.8780   32.0963 C.3     1  UNL1        0.0576
     13 C           6.3610    0.3619   32.4216 C.3     1  UNL1        0.0163
     14 C           6.2945    0.9493   33.8002 C.3     1  UNL1        0.0058
     15 C           5.2490    2.0587   38.9894 C.ar    1  UNL1        0.2250
     16 C           4.0479    1.3749   38.4066 C.ar    1  UNL1        0.0574
     17 C           4.1146    0.7876   37.0280 C.ar    1  UNL1        0.0020
     18 C           5.3824    0.8841   36.2321 C.ar    1  UNL1       -0.0031
     19 C           6.5835    1.5680   36.8149 C.ar    1  UNL1        0.0977
     20 N           6.5168    2.1553   38.1935 N.ar    1  UNL1       -0.2105
     21 C           4.9883    4.1227   40.5456 C.3     1  UNL1        0.2542
     22 O           5.1823    2.6460   40.3680 O.3     1  UNL1       -0.4561
     23 C           6.6162   -2.7503   24.9236 C.3     1  UNL1        0.1747
     24 N           5.3801   -3.3149   24.2884 N.pl3   1  UNL1       -0.3080
     25 H           4.6074   -3.5598   24.8472 H       1  UNL1        0.1487
     26 C           5.3212   -3.5062   22.8018 C.ar    1  UNL1        0.1708
     27 N           6.1539   -4.4642   22.0025 N.ar    1  UNL1       -0.0621
     28 O           5.7665   -4.3232   20.5603 O.2     1  UNL1       -0.3522
     29 C           4.6945   -3.2781   20.4682 C.ar    1  UNL1        0.1781
     30 C           3.9334   -2.7210   19.3019 C.ar    1  UNL1        0.0402
     31 C           2.8970   -1.6590   19.5210 C.ar    1  UNL1        0.0071
     32 C           2.6218   -1.1540   20.9063 C.ar    1  UNL1        0.0717
     33 C           3.3829   -1.7111   22.0727 C.ar    1  UNL1        0.0099
     34 C           4.4192   -2.7732   21.8536 C.ar    1  UNL1        0.0717
     35 C           1.5853   -0.0920   21.1254 C.3     1  UNL1        0.4186
     36 F           0.5489    0.9700   21.3444 F       1  UNL1       -0.1659
     37 F           2.3497    0.4086   22.3150 F       1  UNL1       -0.1659
     38 F           0.8210   -0.5926   19.9358 F       1  UNL1       -0.1659
@<TRIPOS>BOND
     1    21    22    1
     2    22    15    1
     3    15    16   ar
     4    16    17   ar
     5    17    18   ar
     6     9    18    1
     7     9    10    1
     8    10    11    1
     9    11    12    1
    10    12     5    1
    11     5     6    1
    12     6     7    1
    13     7     1    1
    14     1     2   am
    15     2     3    2
    16     2    23    1
    17    23    24    1
    18    24    26    1
    19    26    27   ar
    20    27    28   ar
    21    28    29   ar
    22    29    30   ar
    23    30    31   ar
    24    31    32   ar
    25    32    35    1
    26    35    36    1
    27    35    37    1
    28    35    38    1
    29    32    33   ar
    30    33    34   ar
    31     7     8    1
    32    12    13    1
    33    13    14    1
    34    18    19   ar
    35    19    20   ar
    36    20    15   ar
    37    14     9    1
    38     8     5    1
    39    34    26   ar
    40    34    29   ar
    41     1     4    1
    42    24    25    1
