@<TRIPOS>MOLECULE
*****
 23 26 0 0 0
SMALL
GASTEIGER

@<TRIPOS>ATOM
      1 C          -6.3101  -17.7970   22.7276 C.ar    1  UNL1        0.1512
      2 N          -5.6732  -16.6630   23.4749 N.ar    1  UNL1       -0.2076
      3 C          -6.5114  -15.5135   23.9503 C.ar    1  UNL1        0.2002
      4 N          -7.9865  -15.4979   23.6784 N.ar    1  UNL1       -0.2207
      5 C          -8.6234  -16.6319   22.9311 C.ar    1  UNL1        0.1226
      6 C          -7.7852  -17.7814   22.4557 C.ar    1  UNL1        0.1515
      7 N          -8.6859  -18.7507   21.7491 N.ar    1  UNL1       -0.1606
      8 N         -10.0807  -18.2003   21.7879 N.ar    1  UNL1       -0.2266
      9 C         -11.3810  -18.7223   21.2524 C.ar    1  UNL1        0.1004
     10 C         -12.6426  -17.9348   21.4474 C.ar    1  UNL1        0.0207
     11 C         -12.6040  -16.6253   22.1779 C.ar    1  UNL1        0.0032
     12 C         -11.3037  -16.1032   22.7134 C.ar    1  UNL1        0.0208
     13 C         -10.0421  -16.8908   22.5184 C.ar    1  UNL1        0.1021
     14 N          -5.4719  -18.9465   22.2521 N.pl3   1  UNL1       -0.3184
     15 H          -5.7341  -19.8701   22.4700 H       1  UNL1        0.1482
     16 C          -1.3141  -18.1054   18.3989 C.3     1  UNL1        0.0000
     17 C          -1.7592  -18.1734   19.8297 C.3     1  UNL1        0.0001
     18 C          -0.3081  -17.8466   20.0236 C.3     1  UNL1        0.0000
     19 C          -1.7003  -18.1279   21.3280 C.3     1  UNL1        0.0017
     20 C          -2.9379  -18.3856   22.1354 C.3     1  UNL1        0.0195
     21 C          -4.2344  -18.6888   21.4447 C.3     1  UNL1        0.0704
     22 C          -4.2934  -18.7343   19.9465 C.3     1  UNL1        0.0195
     23 C          -3.0558  -18.4766   19.1391 C.3     1  UNL1        0.0017
@<TRIPOS>BOND
     1    16    17    1
     2    17    18    1
     3    17    19    1
     4    19    20    1
     5    20    21    1
     6    21    14    1
     7    14     1    1
     8     1     2   ar
     9     2     3   ar
    10     3     4   ar
    11     4     5   ar
    12     5     6   ar
    13     6     7   ar
    14     7     8   ar
    15     8     9   ar
    16     9    10   ar
    17    10    11   ar
    18    11    12   ar
    19    12    13   ar
    20    21    22    1
    21    22    23    1
    22    23    17    1
    23     6     1   ar
    24    13     8   ar
    25    13     5   ar
    26    14    15    1
@<TRIPOS>MOLECULE
*****
 23 26 0 0 0
SMALL
GASTEIGER

@<TRIPOS>ATOM
      1 C          -9.1438  -17.8665   21.2574 C.ar    1  UNL1        0.1512
      2 N          -9.9683  -18.5732   20.2227 N.ar    1  UNL1       -0.2076
      3 C          -9.3373  -19.6092   19.3403 C.ar    1  UNL1        0.2002
      4 N          -7.8818  -19.9384   19.4927 N.ar    1  UNL1       -0.2207
      5 C          -7.0573  -19.2316   20.5274 C.ar    1  UNL1        0.1226
      6 C          -7.6883  -18.1956   21.4097 C.ar    1  UNL1        0.1515
      7 N          -6.6314  -17.6682   22.3342 N.ar    1  UNL1       -0.1606
      8 N          -5.3471  -18.3781   22.0232 N.ar    1  UNL1       -0.2266
      9 C          -3.9721  -18.2696   22.6126 C.ar    1  UNL1        0.1004
     10 C          -2.8603  -19.1273   22.0853 C.ar    1  UNL1        0.0207
     11 C          -3.1235  -20.0935   20.9686 C.ar    1  UNL1        0.0032
     12 C          -4.4985  -20.2021   20.3792 C.ar    1  UNL1        0.0208
     13 C          -5.6104  -19.3444   20.9065 C.ar    1  UNL1        0.1021
     14 N          -9.7749  -16.8305   22.1397 N.pl3   1  UNL1       -0.3184
     15 H         -10.5234  -16.2869   21.8030 H       1  UNL1        0.1482
     16 C          -7.3861  -15.2580   27.1059 C.3     1  UNL1        0.0000
     17 C          -8.2467  -16.2074   26.3261 C.3     1  UNL1        0.0001
     18 C          -8.3268  -16.8388   27.6845 C.3     1  UNL1        0.0000
     19 C          -9.1351  -17.3762   26.0182 C.3     1  UNL1        0.0017
     20 C          -9.6445  -17.5839   24.6227 C.3     1  UNL1        0.0195
     21 C          -9.2655  -16.6228   23.5352 C.3     1  UNL1        0.0704
     22 C          -8.3771  -15.4540   23.8431 C.3     1  UNL1        0.0195
     23 C          -7.8677  -15.2464   25.2386 C.3     1  UNL1        0.0017
@<TRIPOS>BOND
     1    16    17    1
     2    17    18    1
     3    17    19    1
     4    19    20    1
     5    20    21    1
     6    21    14    1
     7    14     1    1
     8     1     2   ar
     9     2     3   ar
    10     3     4   ar
    11     4     5   ar
    12     5     6   ar
    13     6     7   ar
    14     7     8   ar
    15     8     9   ar
    16     9    10   ar
    17    10    11   ar
    18    11    12   ar
    19    12    13   ar
    20    21    22    1
    21    22    23    1
    22    23    17    1
    23     6     1   ar
    24    13     8   ar
    25    13     5   ar
    26    14    15    1
@<TRIPOS>MOLECULE
*****
 23 26 0 0 0
SMALL
GASTEIGER

@<TRIPOS>ATOM
      1 C          -7.4293  -19.8643   21.1856 C.ar    1  UNL1        0.1512
      2 N          -7.3653  -19.9190   19.6879 N.ar    1  UNL1       -0.2076
      3 C          -8.5753  -19.5715   18.8724 C.ar    1  UNL1        0.2002
      4 N          -9.8493  -19.1692   19.5545 N.ar    1  UNL1       -0.2207
      5 C          -9.9133  -19.1145   21.0521 C.ar    1  UNL1        0.1226
      6 C          -8.7033  -19.4620   21.8676 C.ar    1  UNL1        0.1515
      7 N          -9.0641  -19.3185   23.3165 N.ar    1  UNL1       -0.1606
      8 N         -10.4971  -18.8823   23.3964 N.ar    1  UNL1       -0.2266
      9 C         -11.3918  -18.5836   24.5627 C.ar    1  UNL1        0.1004
     10 C         -12.8113  -18.1589   24.3294 C.ar    1  UNL1        0.0207
     11 C         -13.3362  -18.0328   22.9299 C.ar    1  UNL1        0.0032
     12 C         -12.4415  -18.3315   21.7636 C.ar    1  UNL1        0.0208
     13 C         -11.0219  -18.7562   21.9969 C.ar    1  UNL1        0.1021
     14 N          -6.2193  -20.2118   22.0011 N.pl3   1  UNL1       -0.3184
     15 H          -6.2754  -20.9114   22.6915 H       1  UNL1        0.1482
     16 C          -1.1523  -18.0905   20.3681 C.3     1  UNL1        0.0000
     17 C          -2.3333  -18.0564   21.2923 C.3     1  UNL1        0.0001
     18 C          -1.5296  -16.9214   21.8546 C.3     1  UNL1        0.0000
     19 C          -3.2352  -17.6281   22.4118 C.3     1  UNL1        0.0017
     20 C          -4.5305  -18.3466   22.6481 C.3     1  UNL1        0.0195
     21 C          -4.9241  -19.4933   21.7649 C.3     1  UNL1        0.0704
     22 C          -4.0222  -19.9216   20.6453 C.3     1  UNL1        0.0195
     23 C          -2.7268  -19.2031   20.4091 C.3     1  UNL1        0.0017
@<TRIPOS>BOND
     1    16    17    1
     2    17    18    1
     3    17    19    1
     4    19    20    1
     5    20    21    1
     6    21    14    1
     7    14     1    1
     8     1     2   ar
     9     2     3   ar
    10     3     4   ar
    11     4     5   ar
    12     5     6   ar
    13     6     7   ar
    14     7     8   ar
    15     8     9   ar
    16     9    10   ar
    17    10    11   ar
    18    11    12   ar
    19    12    13   ar
    20    21    22    1
    21    22    23    1
    22    23    17    1
    23     6     1   ar
    24    13     8   ar
    25    13     5   ar
    26    14    15    1
@<TRIPOS>MOLECULE
*****
 23 26 0 0 0
SMALL
GASTEIGER

@<TRIPOS>ATOM
      1 C          -6.3972  -19.0529   22.1535 C.ar    1  UNL1        0.1512
      2 N          -6.9399  -20.3061   21.5331 N.ar    1  UNL1       -0.2076
      3 C          -6.1228  -21.0587   20.5253 C.ar    1  UNL1        0.2002
      4 N          -4.7629  -20.5582   20.1378 N.ar    1  UNL1       -0.2207
      5 C          -4.2201  -19.3050   20.7581 C.ar    1  UNL1        0.1226
      6 C          -5.0373  -18.5523   21.7659 C.ar    1  UNL1        0.1515
      7 N          -4.2450  -17.3567   22.2052 N.ar    1  UNL1       -0.1606
      8 N          -2.9383  -17.3705   21.4689 N.ar    1  UNL1       -0.2266
      9 C          -1.7604  -16.4422   21.4972 C.ar    1  UNL1        0.1004
     10 C          -0.5672  -16.7179   20.6312 C.ar    1  UNL1        0.0207
     11 C          -0.5518  -17.9220   19.7368 C.ar    1  UNL1        0.0032
     12 C          -1.7296  -18.8503   19.7084 C.ar    1  UNL1        0.0208
     13 C          -2.9229  -18.5746   20.5745 C.ar    1  UNL1        0.1021
     14 N          -7.2143  -18.3002   23.1613 N.pl3   1  UNL1       -0.3184
     15 H          -6.7763  -17.8854   23.9393 H       1  UNL1        0.1482
     16 C         -12.9340  -18.0592   23.4243 C.3     1  UNL1        0.0000
     17 C         -11.6680  -17.9383   22.6289 C.3     1  UNL1        0.0001
     18 C         -12.6766  -17.6326   21.5614 C.3     1  UNL1        0.0000
     19 C         -10.7523  -17.7113   21.4626 C.3     1  UNL1        0.0017
     20 C          -9.2677  -17.8319   21.6401 C.3     1  UNL1        0.0195
     21 C          -8.6988  -18.1796   22.9838 C.3     1  UNL1        0.0704
     22 C          -9.6145  -18.4066   24.1501 C.3     1  UNL1        0.0195
     23 C         -11.0991  -18.2860   23.9726 C.3     1  UNL1        0.0017
@<TRIPOS>BOND
     1    16    17    1
     2    17    18    1
     3    17    19    1
     4    19    20    1
     5    20    21    1
     6    21    14    1
     7    14     1    1
     8     1     2   ar
     9     2     3   ar
    10     3     4   ar
    11     4     5   ar
    12     5     6   ar
    13     6     7   ar
    14     7     8   ar
    15     8     9   ar
    16     9    10   ar
    17    10    11   ar
    18    11    12   ar
    19    12    13   ar
    20    21    22    1
    21    22    23    1
    22    23    17    1
    23     6     1   ar
    24    13     8   ar
    25    13     5   ar
    26    14    15    1
@<TRIPOS>MOLECULE
*****
 23 26 0 0 0
SMALL
GASTEIGER

@<TRIPOS>ATOM
      1 C          -8.7078  -18.0478   21.2091 C.ar    1  UNL1        0.1512
      2 N          -9.5043  -18.7349   20.1398 N.ar    1  UNL1       -0.2076
      3 C          -8.8379  -19.7168   19.2223 C.ar    1  UNL1        0.2002
      4 N          -7.3750  -20.0116   19.3742 N.ar    1  UNL1       -0.2207
      5 C          -6.5785  -19.3245   20.4435 C.ar    1  UNL1        0.1226
      6 C          -7.2449  -18.3426   21.3609 C.ar    1  UNL1        0.1515
      7 N          -6.2102  -17.8238   22.3150 N.ar    1  UNL1       -0.1606
      8 N          -4.9043  -18.4850   21.9872 N.ar    1  UNL1       -0.2266
      9 C          -3.5374  -18.3624   22.5924 C.ar    1  UNL1        0.1004
     10 C          -2.3981  -19.1672   22.0410 C.ar    1  UNL1        0.0207
     11 C          -2.6257  -20.0948   20.8844 C.ar    1  UNL1        0.0032
     12 C          -3.9926  -20.2174   20.2791 C.ar    1  UNL1        0.0208
     13 C          -5.1319  -19.4125   20.8305 C.ar    1  UNL1        0.1021
     14 N          -9.3742  -17.0659   22.1265 N.pl3   1  UNL1       -0.3184
     15 H          -8.9682  -16.1823   22.2806 H       1  UNL1        0.1482
     16 C         -14.7104  -18.0922   23.9469 C.3     1  UNL1        0.0000
     17 C         -13.2293  -18.1586   24.1745 C.3     1  UNL1        0.0001
     18 C         -13.7169  -18.7833   25.4482 C.3     1  UNL1        0.0000
     19 C         -11.9174  -18.4421   24.8445 C.3     1  UNL1        0.0017
     20 C         -10.6324  -18.0778   24.1619 C.3     1  UNL1        0.0195
     21 C         -10.6592  -17.4301   22.8092 C.3     1  UNL1        0.0704
     22 C         -11.9710  -17.1467   22.1391 C.3     1  UNL1        0.0195
     23 C         -13.2560  -17.5109   22.8218 C.3     1  UNL1        0.0017
@<TRIPOS>BOND
     1    16    17    1
     2    17    18    1
     3    17    19    1
     4    19    20    1
     5    20    21    1
     6    21    14    1
     7    14     1    1
     8     1     2   ar
     9     2     3   ar
    10     3     4   ar
    11     4     5   ar
    12     5     6   ar
    13     6     7   ar
    14     7     8   ar
    15     8     9   ar
    16     9    10   ar
    17    10    11   ar
    18    11    12   ar
    19    12    13   ar
    20    21    22    1
    21    22    23    1
    22    23    17    1
    23     6     1   ar
    24    13     8   ar
    25    13     5   ar
    26    14    15    1
@<TRIPOS>MOLECULE
*****
 23 26 0 0 0
SMALL
GASTEIGER

@<TRIPOS>ATOM
      1 C          -7.9293  -17.2645   22.6405 C.ar    1  UNL1        0.1512
      2 N          -8.0936  -16.1950   23.6793 N.ar    1  UNL1       -0.2076
      3 C          -6.8925  -15.6594   24.4008 C.ar    1  UNL1        0.2002
      4 N          -5.5271  -16.1934   24.0835 N.ar    1  UNL1       -0.2207
      5 C          -5.3628  -17.2629   23.0447 C.ar    1  UNL1        0.1226
      6 C          -6.5639  -17.7985   22.3232 C.ar    1  UNL1        0.1515
      7 N          -6.0951  -18.8444   21.3557 N.ar    1  UNL1       -0.1606
      8 N          -4.6043  -18.9553   21.4791 N.ar    1  UNL1       -0.2266
      9 C          -3.6005  -19.8200   20.7759 C.ar    1  UNL1        0.1004
     10 C          -2.1441  -19.7072   21.1166 C.ar    1  UNL1        0.0207
     11 C          -1.6915  -18.7298   22.1605 C.ar    1  UNL1        0.0032
     12 C          -2.6953  -17.8651   22.8637 C.ar    1  UNL1        0.0208
     13 C          -4.1517  -17.9778   22.5231 C.ar    1  UNL1        0.1021
     14 N          -9.1304  -17.8001   21.9191 N.pl3   1  UNL1       -0.3184
     15 H          -9.0618  -18.0547   20.9705 H       1  UNL1        0.1482
     16 C         -14.5105  -17.9866   23.8839 C.3     1  UNL1        0.0000
     17 C         -13.0470  -18.2429   24.0900 C.3     1  UNL1        0.0001
     18 C         -13.5838  -18.7254   25.4050 C.3     1  UNL1        0.0000
     19 C         -11.7699  -18.6668   24.7530 C.3     1  UNL1        0.0017
     20 C         -10.4644  -18.5191   24.0293 C.3     1  UNL1        0.0195
     21 C         -10.4358  -17.9477   22.6427 C.3     1  UNL1        0.0704
     22 C         -11.7130  -17.5238   21.9797 C.3     1  UNL1        0.0195
     23 C         -13.0185  -17.6714   22.7034 C.3     1  UNL1        0.0017
@<TRIPOS>BOND
     1    16    17    1
     2    17    18    1
     3    17    19    1
     4    19    20    1
     5    20    21    1
     6    21    14    1
     7    14     1    1
     8     1     2   ar
     9     2     3   ar
    10     3     4   ar
    11     4     5   ar
    12     5     6   ar
    13     6     7   ar
    14     7     8   ar
    15     8     9   ar
    16     9    10   ar
    17    10    11   ar
    18    11    12   ar
    19    12    13   ar
    20    21    22    1
    21    22    23    1
    22    23    17    1
    23     6     1   ar
    24    13     8   ar
    25    13     5   ar
    26    14    15    1
@<TRIPOS>MOLECULE
*****
 23 26 0 0 0
SMALL
GASTEIGER

@<TRIPOS>ATOM
      1 C          -7.6418  -19.4082   20.2974 C.ar    1  UNL1        0.1512
      2 N          -6.7975  -20.5333   19.7763 N.ar    1  UNL1       -0.2076
      3 C          -5.4220  -20.7579   20.3309 C.ar    1  UNL1        0.2002
      4 N          -4.8907  -19.8573   21.4064 N.ar    1  UNL1       -0.2207
      5 C          -5.7349  -18.7322   21.9274 C.ar    1  UNL1        0.1226
      6 C          -7.1104  -18.5077   21.3729 C.ar    1  UNL1        0.1515
      7 N          -7.7073  -17.3260   22.0782 N.ar    1  UNL1       -0.1606
      8 N          -6.7007  -16.8203   23.0686 N.ar    1  UNL1       -0.2266
      9 C          -6.7365  -15.6807   24.0433 C.ar    1  UNL1        0.1004
     10 C          -5.5534  -15.4102   24.9248 C.ar    1  UNL1        0.0207
     11 C          -4.3344  -16.2793   24.8316 C.ar    1  UNL1        0.0032
     12 C          -4.2985  -17.4189   23.8569 C.ar    1  UNL1        0.0208
     13 C          -5.4816  -17.6894   22.9754 C.ar    1  UNL1        0.1021
     14 N          -9.0173  -19.1837   19.7428 N.pl3   1  UNL1       -0.3184
     15 H          -9.2041  -19.3782   18.7960 H       1  UNL1        0.1482
     16 C         -13.1658  -16.4135   22.5638 C.3     1  UNL1        0.0000
     17 C         -12.2899  -17.6211   22.4070 C.3     1  UNL1        0.0001
     18 C         -13.0854  -18.0308   23.6110 C.3     1  UNL1        0.0000
     19 C         -11.6903  -18.9710   22.6684 C.3     1  UNL1        0.0017
     20 C         -10.5994  -19.4919   21.7803 C.3     1  UNL1        0.0195
     21 C         -10.1081  -18.6629   20.6309 C.3     1  UNL1        0.0704
     22 C         -10.7077  -17.3129   20.3694 C.3     1  UNL1        0.0195
     23 C         -11.7986  -16.7921   21.2575 C.3     1  UNL1        0.0017
@<TRIPOS>BOND
     1    16    17    1
     2    17    18    1
     3    17    19    1
     4    19    20    1
     5    20    21    1
     6    21    14    1
     7    14     1    1
     8     1     2   ar
     9     2     3   ar
    10     3     4   ar
    11     4     5   ar
    12     5     6   ar
    13     6     7   ar
    14     7     8   ar
    15     8     9   ar
    16     9    10   ar
    17    10    11   ar
    18    11    12   ar
    19    12    13   ar
    20    21    22    1
    21    22    23    1
    22    23    17    1
    23     6     1   ar
    24    13     8   ar
    25    13     5   ar
    26    14    15    1
@<TRIPOS>MOLECULE
*****
 23 26 0 0 0
SMALL
GASTEIGER

@<TRIPOS>ATOM
      1 C          -5.9899  -16.6641   24.0174 C.ar    1  UNL1        0.1512
      2 N          -6.5169  -15.5140   24.8234 N.ar    1  UNL1       -0.2076
      3 C          -7.9026  -14.9966   24.5747 C.ar    1  UNL1        0.2002
      4 N          -8.7614  -15.6292   23.5200 N.ar    1  UNL1       -0.2207
      5 C          -8.2344  -16.7792   22.7140 C.ar    1  UNL1        0.1226
      6 C          -6.8486  -17.2966   22.9627 C.ar    1  UNL1        0.1515
      7 N          -6.6026  -18.4354   22.0178 N.ar    1  UNL1       -0.1606
      8 N          -7.8363  -18.6217   21.1852 N.ar    1  UNL1       -0.2266
      9 C          -8.1716  -19.5911   20.0908 C.ar    1  UNL1        0.1004
     10 C          -9.5155  -19.5370   19.4267 C.ar    1  UNL1        0.0207
     11 C         -10.5240  -18.5135   19.8570 C.ar    1  UNL1        0.0032
     12 C         -10.1887  -17.5440   20.9514 C.ar    1  UNL1        0.0208
     13 C          -8.8448  -17.5981   21.6154 C.ar    1  UNL1        0.1021
     14 N          -4.6041  -17.1815   24.2661 N.pl3   1  UNL1       -0.3184
     15 H          -4.3107  -17.3816   25.1843 H       1  UNL1        0.1482
     16 C          -1.2836  -18.9220   19.9317 C.3     1  UNL1        0.0000
     17 C          -1.7875  -17.8194   20.8150 C.3     1  UNL1        0.0001
     18 C          -0.8529  -17.0424   19.9359 C.3     1  UNL1        0.0000
     19 C          -1.9667  -16.4468   21.3930 C.3     1  UNL1        0.0017
     20 C          -2.9056  -16.2342   22.5434 C.3     1  UNL1        0.0195
     21 C          -3.6652  -17.3941   23.1158 C.3     1  UNL1        0.0704
     22 C          -3.4860  -18.7667   22.5377 C.3     1  UNL1        0.0195
     23 C          -2.5471  -18.9793   21.3874 C.3     1  UNL1        0.0017
@<TRIPOS>BOND
     1    16    17    1
     2    17    18    1
     3    17    19    1
     4    19    20    1
     5    20    21    1
     6    21    14    1
     7    14     1    1
     8     1     2   ar
     9     2     3   ar
    10     3     4   ar
    11     4     5   ar
    12     5     6   ar
    13     6     7   ar
    14     7     8   ar
    15     8     9   ar
    16     9    10   ar
    17    10    11   ar
    18    11    12   ar
    19    12    13   ar
    20    21    22    1
    21    22    23    1
    22    23    17    1
    23     6     1   ar
    24    13     8   ar
    25    13     5   ar
    26    14    15    1
@<TRIPOS>MOLECULE
*****
 23 26 0 0 0
SMALL
GASTEIGER

@<TRIPOS>ATOM
      1 C         -12.1485   -5.1986   19.0952 C.ar    1  UNL1        0.1512
      2 N         -10.9120   -5.5003   18.3016 N.ar    1  UNL1       -0.2076
      3 C         -10.8291   -6.7605   17.4923 C.ar    1  UNL1        0.2002
      4 N         -11.9828   -7.7190   17.4766 N.ar    1  UNL1       -0.2207
      5 C         -13.2194   -7.4173   18.2702 C.ar    1  UNL1        0.1226
      6 C         -13.3023   -6.1571   19.0795 C.ar    1  UNL1        0.1515
      7 N         -14.6404   -6.1283   19.7567 N.ar    1  UNL1       -0.1606
      8 N         -15.3845   -7.3707   19.3660 N.ar    1  UNL1       -0.2266
      9 C         -16.7483   -7.8796   19.7281 C.ar    1  UNL1        0.1004
     10 C         -17.2338   -9.1851   19.1714 C.ar    1  UNL1        0.0207
     11 C         -16.3556   -9.9817   18.2527 C.ar    1  UNL1        0.0032
     12 C         -14.9918   -9.4729   17.8906 C.ar    1  UNL1        0.0208
     13 C         -14.5063   -8.1674   18.4473 C.ar    1  UNL1        0.1021
     14 N         -12.2314   -3.9383   19.9045 N.pl3   1  UNL1       -0.3184
     15 H         -12.1598   -3.9778   20.8856 H       1  UNL1        0.1482
     16 C         -12.0168    1.0545   17.0996 C.3     1  UNL1        0.0000
     17 C         -12.8074    0.0225   17.8479 C.3     1  UNL1        0.0001
     18 C         -13.8923    1.0134   17.5460 C.3     1  UNL1        0.0000
     19 C         -13.9749   -0.6653   18.4914 C.3     1  UNL1        0.0017
     20 C         -13.7829   -1.9856   19.1769 C.3     1  UNL1        0.0195
     21 C         -12.4234   -2.6181   19.2190 C.3     1  UNL1        0.0704
     22 C         -11.2559   -1.9303   18.5756 C.3     1  UNL1        0.0195
     23 C         -11.4479   -0.6100   17.8900 C.3     1  UNL1        0.0017
@<TRIPOS>BOND
     1    16    17    1
     2    17    18    1
     3    17    19    1
     4    19    20    1
     5    20    21    1
     6    21    14    1
     7    14     1    1
     8     1     2   ar
     9     2     3   ar
    10     3     4   ar
    11     4     5   ar
    12     5     6   ar
    13     6     7   ar
    14     7     8   ar
    15     8     9   ar
    16     9    10   ar
    17    10    11   ar
    18    11    12   ar
    19    12    13   ar
    20    21    22    1
    21    22    23    1
    22    23    17    1
    23     6     1   ar
    24    13     8   ar
    25    13     5   ar
    26    14    15    1
