@<TRIPOS>MOLECULE
*****
 29 32 0 0 0
SMALL
GASTEIGER

@<TRIPOS>ATOM
      1 C          -8.2769  -18.2019   21.5739 C.ar    1  UNL1        0.2014
      2 N          -9.4050  -19.1466   21.2825 N.ar    1  UNL1       -0.2136
      3 C         -10.6880  -18.4667   21.6590 C.ar    1  UNL1        0.0999
      4 C         -12.1181  -18.9142   21.5924 C.ar    1  UNL1        0.0207
      5 C         -13.2130  -17.9967   22.0498 C.ar    1  UNL1        0.0016
      6 C         -12.8779  -16.6318   22.5738 C.ar    1  UNL1        0.0016
      7 C         -11.4477  -16.1843   22.6405 C.ar    1  UNL1        0.0188
      8 C         -10.3528  -17.1018   22.1831 C.ar    1  UNL1        0.0801
      9 N          -8.8627  -16.9382   22.1305 N.ar    1  UNL1       -0.2954
     10 C          -3.9032  -19.0160   20.8970 C.3     1  UNL1        0.0610
     11 C          -4.8717  -19.1255   19.7569 C.3     1  UNL1        0.0375
     12 C          -6.3296  -18.8541   19.9825 C.3     1  UNL1        0.0949
     13 N          -6.8190  -18.4733   21.3483 N.pl3   1  UNL1       -0.2794
     14 C          -5.8505  -18.3638   22.4884 C.3     1  UNL1        0.0949
     15 C          -4.3926  -18.6352   22.2628 C.3     1  UNL1        0.0375
     16 C          -1.7347  -20.3102   21.5074 C.3     1  UNL1        0.0897
     17 N          -2.4453  -19.2874   20.6714 N.3     1  UNL1       -0.2706
     18 C          -1.6980  -18.5360   19.6099 C.3     1  UNL1        0.1042
     19 C          -0.6618  -17.5228   19.9968 C.3     1  UNL1        0.1544
     20 O           0.6650  -17.9738   20.5320 O.3     1  UNL1       -0.3805
     21 H           0.5366  -18.4100   21.3888 H       1  UNL1        0.2105
     22 C          -8.0934  -15.7239   22.5592 C.3     1  UNL1        0.1354
     23 C          -7.6808  -15.5647   23.9924 C.ar    1  UNL1        0.0006
     24 C          -8.7114  -15.6253   25.0807 C.ar    1  UNL1       -0.0001
     25 C          -8.2988  -15.4662   26.5141 C.ar    1  UNL1        0.0294
     26 C          -6.8557  -15.2465   26.8591 C.ar    1  UNL1        0.1401
     27 F          -6.4431  -15.0873   28.2925 F       1  UNL1       -0.2042
     28 C          -5.8251  -15.1859   25.7709 C.ar    1  UNL1        0.0294
     29 C          -6.2377  -15.3450   24.3375 C.ar    1  UNL1       -0.0001
@<TRIPOS>BOND
     1    16    17    1
     2    17    18    1
     3    18    19    1
     4    19    20    1
     5    17    10    1
     6    10    11    1
     7    11    12    1
     8    12    13    1
     9    13     1    1
    10     1     2   ar
    11     2     3   ar
    12     3     4   ar
    13     4     5   ar
    14     5     6   ar
    15     6     7   ar
    16     7     8   ar
    17     8     9   ar
    18     9    22    1
    19    22    23    1
    20    23    24   ar
    21    24    25   ar
    22    25    26   ar
    23    26    27    1
    24    26    28   ar
    25    28    29   ar
    26    13    14    1
    27    14    15    1
    28    15    10    1
    29     9     1   ar
    30    29    23   ar
    31     8     3   ar
    32    20    21    1
@<TRIPOS>MOLECULE
*****
 29 32 0 0 0
SMALL
GASTEIGER

@<TRIPOS>ATOM
      1 C          -6.5524  -18.0806   22.4106 C.ar    1  UNL1        0.2014
      2 N          -5.9155  -19.3111   21.8359 N.ar    1  UNL1       -0.2136
      3 C          -4.4271  -19.1439   21.9174 C.ar    1  UNL1        0.0999
      4 C          -3.2929  -20.0338   21.5032 C.ar    1  UNL1        0.0207
      5 C          -1.8758  -19.5900   21.7141 C.ar    1  UNL1        0.0016
      6 C          -1.5927  -18.2562   22.3393 C.ar    1  UNL1        0.0016
      7 C          -2.7269  -17.3663   22.7536 C.ar    1  UNL1        0.0188
      8 C          -4.1440  -17.8101   22.5426 C.ar    1  UNL1        0.0801
      9 N          -5.4575  -17.1530   22.8475 N.ar    1  UNL1       -0.2954
     10 C         -10.9715  -17.3079   22.7628 C.3     1  UNL1        0.0610
     11 C         -10.1432  -16.5025   21.8062 C.3     1  UNL1        0.0375
     12 C          -8.6702  -16.7601   21.6888 C.3     1  UNL1        0.0949
     13 N          -8.0254  -17.8230   22.5280 N.pl3   1  UNL1       -0.2794
     14 C          -8.8538  -18.6284   23.4846 C.3     1  UNL1        0.0949
     15 C         -10.3268  -18.3709   23.6020 C.3     1  UNL1        0.0375
     16 C         -12.9944  -15.6883   22.5761 C.3     1  UNL1        0.0897
     17 N         -12.4446  -17.0503   22.8801 N.3     1  UNL1       -0.2706
     18 C         -13.3679  -18.1548   23.3016 C.3     1  UNL1        0.1042
     19 C         -13.8855  -18.2038   24.7086 C.3     1  UNL1        0.1544
     20 O         -15.3022  -18.6203   24.9725 O.3     1  UNL1       -0.3805
     21 H         -15.9079  -17.9608   24.5995 H       1  UNL1        0.2105
     22 C          -5.6435  -15.8049   23.4783 C.3     1  UNL1        0.1354
     23 C          -6.4822  -15.6642   24.7139 C.ar    1  UNL1        0.0006
     24 C          -5.8599  -15.8424   26.0671 C.ar    1  UNL1       -0.0001
     25 C          -6.6985  -15.7018   27.3028 C.ar    1  UNL1        0.0294
     26 C          -8.1595  -15.3830   27.1853 C.ar    1  UNL1        0.1401
     27 F          -8.9982  -15.2424   28.4210 F       1  UNL1       -0.2042
     28 C          -8.7818  -15.2048   25.8322 C.ar    1  UNL1        0.0294
     29 C          -7.9432  -15.3454   24.5965 C.ar    1  UNL1       -0.0001
@<TRIPOS>BOND
     1    16    17    1
     2    17    18    1
     3    18    19    1
     4    19    20    1
     5    17    10    1
     6    10    11    1
     7    11    12    1
     8    12    13    1
     9    13     1    1
    10     1     2   ar
    11     2     3   ar
    12     3     4   ar
    13     4     5   ar
    14     5     6   ar
    15     6     7   ar
    16     7     8   ar
    17     8     9   ar
    18     9    22    1
    19    22    23    1
    20    23    24   ar
    21    24    25   ar
    22    25    26   ar
    23    26    27    1
    24    26    28   ar
    25    28    29   ar
    26    13    14    1
    27    14    15    1
    28    15    10    1
    29     9     1   ar
    30    29    23   ar
    31     8     3   ar
    32    20    21    1
@<TRIPOS>MOLECULE
*****
 29 32 0 0 0
SMALL
GASTEIGER

@<TRIPOS>ATOM
      1 C          -5.1567  -16.3417   24.0406 C.ar    1  UNL1        0.2014
      2 N          -4.8802  -16.0605   25.4878 N.ar    1  UNL1       -0.2136
      3 C          -6.1788  -15.7000   26.1464 C.ar    1  UNL1        0.0999
      4 C          -6.5181  -15.3261   27.5588 C.ar    1  UNL1        0.0207
      5 C          -7.9365  -15.0107   27.9310 C.ar    1  UNL1        0.0016
      6 C          -9.0156  -15.0691   26.8908 C.ar    1  UNL1        0.0016
      7 C          -8.6764  -15.4430   25.4784 C.ar    1  UNL1        0.0188
      8 C          -7.2580  -15.7585   25.1062 C.ar    1  UNL1        0.0801
      9 N          -6.6262  -16.1551   23.8047 N.ar    1  UNL1       -0.2954
     10 C          -2.1122  -17.5357   20.9494 C.3     1  UNL1        0.0610
     11 C          -3.1340  -18.5287   21.4185 C.3     1  UNL1        0.0375
     12 C          -4.1488  -18.1307   22.4489 C.3     1  UNL1        0.0949
     13 N          -4.1419  -16.7397   23.0102 N.pl3   1  UNL1       -0.2794
     14 C          -3.1202  -15.7468   22.5411 C.3     1  UNL1        0.0949
     15 C          -2.1054  -16.1448   21.5107 C.3     1  UNL1        0.0375
     16 C           0.3500  -18.0460   20.2961 C.3     1  UNL1        0.0897
     17 N          -1.0974  -17.9337   19.9190 N.3     1  UNL1       -0.2706
     18 C          -1.5300  -18.2195   18.5115 C.3     1  UNL1        0.1042
     19 C          -2.3303  -17.2033   17.7519 C.3     1  UNL1        0.1544
     20 O          -3.6857  -16.7935   18.2471 O.3     1  UNL1       -0.3805
     21 H          -4.2913  -17.5493   18.1946 H       1  UNL1        0.2105
     22 C          -7.3390  -16.3336   22.4970 C.3     1  UNL1        0.1354
     23 C          -8.3447  -17.4346   22.3352 C.ar    1  UNL1        0.0006
     24 C          -7.9875  -18.8395   22.7210 C.ar    1  UNL1       -0.0001
     25 C          -8.9932  -19.9406   22.5591 C.ar    1  UNL1        0.0294
     26 C         -10.3562  -19.6367   22.0115 C.ar    1  UNL1        0.1401
     27 F         -11.3619  -20.7378   21.8497 F       1  UNL1       -0.2042
     28 C         -10.7135  -18.2319   21.6258 C.ar    1  UNL1        0.0294
     29 C          -9.7077  -17.1309   21.7876 C.ar    1  UNL1       -0.0001
@<TRIPOS>BOND
     1    16    17    1
     2    17    18    1
     3    18    19    1
     4    19    20    1
     5    17    10    1
     6    10    11    1
     7    11    12    1
     8    12    13    1
     9    13     1    1
    10     1     2   ar
    11     2     3   ar
    12     3     4   ar
    13     4     5   ar
    14     5     6   ar
    15     6     7   ar
    16     7     8   ar
    17     8     9   ar
    18     9    22    1
    19    22    23    1
    20    23    24   ar
    21    24    25   ar
    22    25    26   ar
    23    26    27    1
    24    26    28   ar
    25    28    29   ar
    26    13    14    1
    27    14    15    1
    28    15    10    1
    29     9     1   ar
    30    29    23   ar
    31     8     3   ar
    32    20    21    1
@<TRIPOS>MOLECULE
*****
 29 32 0 0 0
SMALL
GASTEIGER

@<TRIPOS>ATOM
      1 C          -7.2905  -18.7457   22.1737 C.ar    1  UNL1        0.2014
      2 N          -8.1143  -19.9992   22.1744 N.ar    1  UNL1       -0.2136
      3 C          -9.4201  -19.6954   22.8471 C.ar    1  UNL1        0.0999
      4 C         -10.6222  -20.5450   23.1354 C.ar    1  UNL1        0.0207
      5 C         -11.8076  -19.9533   23.8387 C.ar    1  UNL1        0.0016
      6 C         -11.7909  -18.5119   24.2537 C.ar    1  UNL1        0.0016
      7 C         -10.5888  -17.6623   23.9655 C.ar    1  UNL1        0.0188
      8 C          -9.4034  -18.2541   23.2622 C.ar    1  UNL1        0.0801
      9 N          -8.0872  -17.6671   22.8460 N.ar    1  UNL1       -0.2954
     10 C          -3.1552  -18.2991   20.4562 C.3     1  UNL1        0.0610
     11 C          -3.3989  -18.0145   21.9087 C.3     1  UNL1        0.0375
     12 C          -4.7773  -18.1634   22.4812 C.3     1  UNL1        0.0949
     13 N          -5.9121  -18.5968   21.6012 N.pl3   1  UNL1       -0.2794
     14 C          -5.6684  -18.8814   20.1488 C.3     1  UNL1        0.0949
     15 C          -4.2900  -18.7325   19.5763 C.3     1  UNL1        0.0375
     16 C          -1.5719  -18.2006   18.3987 C.3     1  UNL1        0.0897
     17 N          -1.7768  -18.1502   19.8838 N.3     1  UNL1       -0.2706
     18 C          -0.6031  -17.9511   20.7963 C.3     1  UNL1        0.1042
     19 C           0.7382  -17.5958   20.2266 C.3     1  UNL1        0.1544
     20 O           1.9880  -17.9298   20.9859 O.3     1  UNL1       -0.3805
     21 H           2.0170  -17.4111   21.8050 H       1  UNL1        0.2105
     22 C          -7.6454  -16.2503   23.0638 C.3     1  UNL1        0.1354
     23 C          -7.3404  -15.7645   24.4497 C.ar    1  UNL1        0.0006
     24 C          -5.9269  -15.4476   24.8393 C.ar    1  UNL1       -0.0001
     25 C          -5.6219  -14.9617   26.2253 C.ar    1  UNL1        0.0294
     26 C          -6.7304  -14.7926   27.2216 C.ar    1  UNL1        0.1401
     27 F          -6.4253  -14.3067   28.6076 F       1  UNL1       -0.2042
     28 C          -8.1438  -15.1095   26.8321 C.ar    1  UNL1        0.0294
     29 C          -8.4488  -15.5954   25.4461 C.ar    1  UNL1       -0.0001
@<TRIPOS>BOND
     1    16    17    1
     2    17    18    1
     3    18    19    1
     4    19    20    1
     5    17    10    1
     6    10    11    1
     7    11    12    1
     8    12    13    1
     9    13     1    1
    10     1     2   ar
    11     2     3   ar
    12     3     4   ar
    13     4     5   ar
    14     5     6   ar
    15     6     7   ar
    16     7     8   ar
    17     8     9   ar
    18     9    22    1
    19    22    23    1
    20    23    24   ar
    21    24    25   ar
    22    25    26   ar
    23    26    27    1
    24    26    28   ar
    25    28    29   ar
    26    13    14    1
    27    14    15    1
    28    15    10    1
    29     9     1   ar
    30    29    23   ar
    31     8     3   ar
    32    20    21    1
@<TRIPOS>MOLECULE
*****
 29 32 0 0 0
SMALL
GASTEIGER

@<TRIPOS>ATOM
      1 C         -14.9879   -3.2885   17.7620 C.ar    1  UNL1        0.2014
      2 N         -15.4005   -2.2774   16.7336 N.ar    1  UNL1       -0.2136
      3 C         -14.4400   -1.1273   16.8029 C.ar    1  UNL1        0.0999
      4 C         -14.3516    0.1546   16.0290 C.ar    1  UNL1        0.0207
      5 C         -13.2571    1.1361   16.3263 C.ar    1  UNL1        0.0016
      6 C         -12.2509    0.8358   17.3975 C.ar    1  UNL1        0.0016
      7 C         -12.3392   -0.4460   18.1713 C.ar    1  UNL1        0.0188
      8 C         -13.4338   -1.4276   17.8741 C.ar    1  UNL1        0.0801
      9 N         -13.7724   -2.7633   18.4668 N.ar    1  UNL1       -0.2954
     10 C         -17.0368   -7.2090   18.5875 C.3     1  UNL1        0.0610
     11 C         -17.1992   -6.0625   19.5410 C.3     1  UNL1        0.0375
     12 C         -16.5162   -4.7557   19.2658 C.3     1  UNL1        0.0949
     13 N         -15.6709   -4.5953   18.0371 N.pl3   1  UNL1       -0.2794
     14 C         -15.5085   -5.7418   17.0836 C.3     1  UNL1        0.0949
     15 C         -16.1915   -7.0486   17.3588 C.3     1  UNL1        0.0375
     16 C         -18.6161   -8.6568   20.0572 C.3     1  UNL1        0.0897
     17 N         -17.7198   -8.5158   18.8627 N.3     1  UNL1       -0.2706
     18 C         -17.5066   -9.6817   17.9434 C.3     1  UNL1        0.1042
     19 C         -16.5906  -10.7984   18.3483 C.3     1  UNL1        0.1544
     20 O         -17.1050  -11.9170   19.2052 O.3     1  UNL1       -0.3805
     21 H         -17.3379  -11.5722   20.0815 H       1  UNL1        0.2105
     22 C         -13.0265   -3.4527   19.5706 C.3     1  UNL1        0.1354
     23 C         -12.0405   -4.5357   19.2471 C.ar    1  UNL1        0.0006
     24 C         -10.6043   -4.1894   18.9873 C.ar    1  UNL1       -0.0001
     25 C          -9.6182   -5.2724   18.6638 C.ar    1  UNL1        0.0294
     26 C         -10.0684   -6.7019   18.6000 C.ar    1  UNL1        0.1401
     27 F          -9.0823   -7.7850   18.2765 F       1  UNL1       -0.2042
     28 C         -11.5045   -7.0483   18.8598 C.ar    1  UNL1        0.0294
     29 C         -12.4906   -5.9652   19.1833 C.ar    1  UNL1       -0.0001
@<TRIPOS>BOND
     1    16    17    1
     2    17    18    1
     3    18    19    1
     4    19    20    1
     5    17    10    1
     6    10    11    1
     7    11    12    1
     8    12    13    1
     9    13     1    1
    10     1     2   ar
    11     2     3   ar
    12     3     4   ar
    13     4     5   ar
    14     5     6   ar
    15     6     7   ar
    16     7     8   ar
    17     8     9   ar
    18     9    22    1
    19    22    23    1
    20    23    24   ar
    21    24    25   ar
    22    25    26   ar
    23    26    27    1
    24    26    28   ar
    25    28    29   ar
    26    13    14    1
    27    14    15    1
    28    15    10    1
    29     9     1   ar
    30    29    23   ar
    31     8     3   ar
    32    20    21    1
@<TRIPOS>MOLECULE
*****
 29 32 0 0 0
SMALL
GASTEIGER

@<TRIPOS>ATOM
      1 C          -5.2227  -16.4267   23.9677 C.ar    1  UNL1        0.2014
      2 N          -4.8614  -15.9019   25.3257 N.ar    1  UNL1       -0.2136
      3 C          -6.1343  -15.6084   26.0630 C.ar    1  UNL1        0.0999
      4 C          -6.3963  -15.0728   27.4393 C.ar    1  UNL1        0.0207
      5 C          -7.8064  -14.8805   27.9134 C.ar    1  UNL1        0.0016
      6 C          -8.9544  -15.2239   27.0111 C.ar    1  UNL1        0.0016
      7 C          -8.6924  -15.7595   25.6347 C.ar    1  UNL1        0.0188
      8 C          -7.2824  -15.9517   25.1607 C.ar    1  UNL1        0.0801
      9 N          -6.7190  -16.4575   23.8657 N.ar    1  UNL1       -0.2954
     10 C          -2.3266  -17.6873   20.7626 C.3     1  UNL1        0.0610
     11 C          -2.2308  -16.3160   21.3627 C.3     1  UNL1        0.0375
     12 C          -3.1962  -15.8958   22.4311 C.3     1  UNL1        0.0949
     13 N          -4.2574  -16.8469   22.8993 N.pl3   1  UNL1       -0.2794
     14 C          -4.3531  -18.2182   22.2992 C.3     1  UNL1        0.0949
     15 C          -3.3877  -18.6385   21.2308 C.3     1  UNL1        0.0375
     16 C          -1.7811  -18.0885   18.2543 C.3     1  UNL1        0.0897
     17 N          -1.3612  -18.1076   19.6942 N.3     1  UNL1       -0.2706
     18 C           0.0241  -18.5468   20.0657 C.3     1  UNL1        0.1042
     19 C           1.1135  -17.5297   20.2342 C.3     1  UNL1        0.1544
     20 O           2.2827  -17.8238   21.1268 O.3     1  UNL1       -0.3805
     21 H           1.9792  -17.8904   22.0457 H       1  UNL1        0.2105
     22 C          -7.5125  -16.9139   22.6775 C.3     1  UNL1        0.1354
     23 C          -8.9677  -17.2441   22.8293 C.ar    1  UNL1        0.0006
     24 C          -9.3807  -18.5418   23.4582 C.ar    1  UNL1       -0.0001
     25 C         -10.8359  -18.8722   23.6101 C.ar    1  UNL1        0.0294
     26 C         -11.8783  -17.9047   23.1331 C.ar    1  UNL1        0.1401
     27 F         -13.3336  -18.2350   23.2849 F       1  UNL1       -0.2042
     28 C         -11.4654  -16.6071   22.5042 C.ar    1  UNL1        0.0294
     29 C         -10.0101  -16.2767   22.3523 C.ar    1  UNL1       -0.0001
@<TRIPOS>BOND
     1    16    17    1
     2    17    18    1
     3    18    19    1
     4    19    20    1
     5    17    10    1
     6    10    11    1
     7    11    12    1
     8    12    13    1
     9    13     1    1
    10     1     2   ar
    11     2     3   ar
    12     3     4   ar
    13     4     5   ar
    14     5     6   ar
    15     6     7   ar
    16     7     8   ar
    17     8     9   ar
    18     9    22    1
    19    22    23    1
    20    23    24   ar
    21    24    25   ar
    22    25    26   ar
    23    26    27    1
    24    26    28   ar
    25    28    29   ar
    26    13    14    1
    27    14    15    1
    28    15    10    1
    29     9     1   ar
    30    29    23   ar
    31     8     3   ar
    32    20    21    1
@<TRIPOS>MOLECULE
*****
 29 32 0 0 0
SMALL
GASTEIGER

@<TRIPOS>ATOM
      1 C         -15.0136   -5.8493   18.5575 C.ar    1  UNL1        0.2014
      2 N         -16.2352   -5.9686   19.4196 N.ar    1  UNL1       -0.2136
      3 C         -16.6956   -7.3956   19.3762 C.ar    1  UNL1        0.0999
      4 C         -17.8471   -8.0991   20.0313 C.ar    1  UNL1        0.0207
      5 C         -18.0614   -9.5651   19.7975 C.ar    1  UNL1        0.0016
      6 C         -17.1242  -10.3277   18.9085 C.ar    1  UNL1        0.0016
      7 C         -15.9727   -9.6242   18.2535 C.ar    1  UNL1        0.0188
      8 C         -15.7584   -8.1582   18.4873 C.ar    1  UNL1        0.0801
      9 N         -14.7189   -7.2025   17.9813 N.ar    1  UNL1       -0.2954
     10 C         -12.6479   -2.0914   17.8279 C.3     1  UNL1        0.0610
     11 C         -12.4089   -2.8990   19.0691 C.3     1  UNL1        0.0375
     12 C         -13.1975   -4.1516   19.3123 C.3     1  UNL1        0.0949
     13 N         -14.2250   -4.5967   18.3143 N.pl3   1  UNL1       -0.2794
     14 C         -14.4640   -3.7891   17.0731 C.3     1  UNL1        0.0949
     15 C         -13.6755   -2.5365   16.8299 C.3     1  UNL1        0.0375
     16 C         -10.5183   -0.9145   16.9171 C.3     1  UNL1        0.0897
     17 N         -11.8594   -0.8388   17.5847 N.3     1  UNL1       -0.2706
     18 C         -12.4119    0.4895   18.0092 C.3     1  UNL1        0.1042
     19 C         -12.6673    1.5569   16.9867 C.3     1  UNL1        0.1544
     20 O         -12.0408    2.9109   17.1434 O.3     1  UNL1       -0.3805
     21 H         -12.4065    3.3474   17.9286 H       1  UNL1        0.2105
     22 C         -13.5839   -7.5407   17.0607 C.3     1  UNL1        0.1354
     23 C         -12.3152   -6.7421   17.1095 C.ar    1  UNL1        0.0006
     24 C         -11.9686   -5.8151   15.9822 C.ar    1  UNL1       -0.0001
     25 C         -10.6998   -5.0165   16.0309 C.ar    1  UNL1        0.0294
     26 C          -9.7775   -5.1448   17.2069 C.ar    1  UNL1        0.1401
     27 F          -8.5088   -4.3462   17.2555 F       1  UNL1       -0.2042
     28 C         -10.1241   -6.0717   18.3341 C.ar    1  UNL1        0.0294
     29 C         -11.3929   -6.8704   18.2854 C.ar    1  UNL1       -0.0001
@<TRIPOS>BOND
     1    16    17    1
     2    17    18    1
     3    18    19    1
     4    19    20    1
     5    17    10    1
     6    10    11    1
     7    11    12    1
     8    12    13    1
     9    13     1    1
    10     1     2   ar
    11     2     3   ar
    12     3     4   ar
    13     4     5   ar
    14     5     6   ar
    15     6     7   ar
    16     7     8   ar
    17     8     9   ar
    18     9    22    1
    19    22    23    1
    20    23    24   ar
    21    24    25   ar
    22    25    26   ar
    23    26    27    1
    24    26    28   ar
    25    28    29   ar
    26    13    14    1
    27    14    15    1
    28    15    10    1
    29     9     1   ar
    30    29    23   ar
    31     8     3   ar
    32    20    21    1
@<TRIPOS>MOLECULE
*****
 29 32 0 0 0
SMALL
GASTEIGER

@<TRIPOS>ATOM
      1 C          -6.3623  -18.4861   22.3316 C.ar    1  UNL1        0.2014
      2 N          -5.3665  -17.4084   22.6432 N.ar    1  UNL1       -0.2136
      3 C          -4.0151  -17.8831   22.1979 C.ar    1  UNL1        0.0999
      4 C          -2.6591  -17.2441   22.2509 C.ar    1  UNL1        0.0207
      5 C          -1.4637  -17.9761   21.7171 C.ar    1  UNL1        0.0016
      6 C          -1.6242  -19.3472   21.1303 C.ar    1  UNL1        0.0016
      7 C          -2.9802  -19.9862   21.0772 C.ar    1  UNL1        0.0188
      8 C          -4.1756  -19.2542   21.6110 C.ar    1  UNL1        0.0801
      9 N          -5.6263  -19.6268   21.6937 N.ar    1  UNL1       -0.2954
     10 C         -10.7817  -18.3251   23.1643 C.3     1  UNL1        0.0610
     11 C         -10.0850  -17.1330   22.5781 C.3     1  UNL1        0.0375
     12 C          -8.6119  -17.1867   22.3006 C.3     1  UNL1        0.0949
     13 N          -7.8354  -18.4324   22.6092 N.pl3   1  UNL1       -0.2794
     14 C          -8.5321  -19.6245   23.1953 C.3     1  UNL1        0.0949
     15 C         -10.0052  -19.5708   23.4729 C.3     1  UNL1        0.0375
     16 C         -13.1983  -17.7683   22.3900 C.3     1  UNL1        0.0897
     17 N         -12.2548  -18.2714   23.4419 N.3     1  UNL1       -0.2706
     18 C         -12.7843  -18.7208   24.7714 C.3     1  UNL1        0.1042
     19 C         -14.2040  -18.4224   25.1529 C.3     1  UNL1        0.1544
     20 O         -14.6952  -18.7521   26.5314 O.3     1  UNL1       -0.3805
     21 H         -14.6930  -19.7144   26.6538 H       1  UNL1        0.2105
     22 C          -6.2342  -20.9142   21.2213 C.3     1  UNL1        0.1354
     23 C          -7.1293  -20.9239   20.0178 C.ar    1  UNL1        0.0006
     24 C          -7.9322  -19.7053   19.6704 C.ar    1  UNL1       -0.0001
     25 C          -8.8274  -19.7149   18.4669 C.ar    1  UNL1        0.0294
     26 C          -8.9198  -20.9431   17.6107 C.ar    1  UNL1        0.1401
     27 F          -9.8150  -20.9527   16.4072 F       1  UNL1       -0.2042
     28 C          -8.1170  -22.1616   17.9581 C.ar    1  UNL1        0.0294
     29 C          -7.2218  -22.1520   19.1616 C.ar    1  UNL1       -0.0001
@<TRIPOS>BOND
     1    16    17    1
     2    17    18    1
     3    18    19    1
     4    19    20    1
     5    17    10    1
     6    10    11    1
     7    11    12    1
     8    12    13    1
     9    13     1    1
    10     1     2   ar
    11     2     3   ar
    12     3     4   ar
    13     4     5   ar
    14     5     6   ar
    15     6     7   ar
    16     7     8   ar
    17     8     9   ar
    18     9    22    1
    19    22    23    1
    20    23    24   ar
    21    24    25   ar
    22    25    26   ar
    23    26    27    1
    24    26    28   ar
    25    28    29   ar
    26    13    14    1
    27    14    15    1
    28    15    10    1
    29     9     1   ar
    30    29    23   ar
    31     8     3   ar
    32    20    21    1
@<TRIPOS>MOLECULE
*****
 29 32 0 0 0
SMALL
GASTEIGER

@<TRIPOS>ATOM
      1 C           4.6048    0.2099   35.2358 C.ar    1  UNL1        0.2014
      2 N           4.3037   -0.0541   36.6814 N.ar    1  UNL1       -0.2136
      3 C           3.4875    1.0919   37.2016 C.ar    1  UNL1        0.0999
      4 C           2.9032    1.3757   38.5536 C.ar    1  UNL1        0.0207
      5 C           2.1155    2.6317   38.7816 C.ar    1  UNL1        0.0016
      6 C           1.9122    3.6039   37.6576 C.ar    1  UNL1        0.0016
      7 C           2.4965    3.3201   36.3055 C.ar    1  UNL1        0.0188
      8 C           3.2841    2.0641   36.0776 C.ar    1  UNL1        0.0801
      9 N           3.9746    1.5189   34.8626 N.ar    1  UNL1       -0.2954
     10 C           6.9811   -2.4573   32.4991 C.3     1  UNL1        0.0610
     11 C           5.5220   -2.7226   32.7240 C.3     1  UNL1        0.0375
     12 C           4.7299   -1.8336   33.6362 C.3     1  UNL1        0.0949
     13 N           5.3969   -0.6792   34.3236 N.pl3   1  UNL1       -0.2794
     14 C           6.8560   -0.4138   34.0987 C.3     1  UNL1        0.0949
     15 C           7.6481   -1.3029   33.1865 C.3     1  UNL1        0.0375
     16 C           9.2707   -3.3640   31.6712 C.3     1  UNL1        0.0897
     17 N           7.7732   -3.3463   31.5869 N.3     1  UNL1       -0.2706
     18 C           7.0679   -4.2176   30.5903 C.3     1  UNL1        0.1042
     19 C           6.9459   -5.6921   30.8369 C.3     1  UNL1        0.1544
     20 O           6.5768   -6.1965   32.2006 O.3     1  UNL1       -0.3805
     21 H           7.2871   -5.9854   32.8266 H       1  UNL1        0.2105
     22 C           4.0260    2.1688   33.5117 C.3     1  UNL1        0.1354
     23 C           2.9224    1.9332   32.5236 C.ar    1  UNL1        0.0006
     24 C           3.1205    0.9655   31.3946 C.ar    1  UNL1       -0.0001
     25 C           2.0169    0.7298   30.4064 C.ar    1  UNL1        0.0294
     26 C           0.7152    1.4618   30.5472 C.ar    1  UNL1        0.1401
     27 F          -0.3884    1.2261   29.5590 F       1  UNL1       -0.2042
     28 C           0.5171    2.4294   31.6761 C.ar    1  UNL1        0.0294
     29 C           1.6207    2.6651   32.6643 C.ar    1  UNL1       -0.0001
@<TRIPOS>BOND
     1    16    17    1
     2    17    18    1
     3    18    19    1
     4    19    20    1
     5    17    10    1
     6    10    11    1
     7    11    12    1
     8    12    13    1
     9    13     1    1
    10     1     2   ar
    11     2     3   ar
    12     3     4   ar
    13     4     5   ar
    14     5     6   ar
    15     6     7   ar
    16     7     8   ar
    17     8     9   ar
    18     9    22    1
    19    22    23    1
    20    23    24   ar
    21    24    25   ar
    22    25    26   ar
    23    26    27    1
    24    26    28   ar
    25    28    29   ar
    26    13    14    1
    27    14    15    1
    28    15    10    1
    29     9     1   ar
    30    29    23   ar
    31     8     3   ar
    32    20    21    1
