@<TRIPOS>MOLECULE
*****
 35 39 0 0 0
SMALL
GASTEIGER

@<TRIPOS>ATOM
      1 N          -5.7271  -19.8585   22.2948 N.pl3   1  UNL1       -0.3125
      2 H          -5.6103  -20.5459   22.9899 H       1  UNL1        0.1522
      3 C          -7.7691  -16.5043   24.4924 C.ar    1  UNL1        0.1389
      4 C          -7.0888  -15.1746   24.6308 C.ar    1  UNL1        0.0384
      5 C          -5.7278  -14.9630   24.0366 C.ar    1  UNL1        0.0223
      6 C          -5.0472  -16.0811   23.3041 C.ar    1  UNL1        0.0826
      7 N          -3.6862  -15.8695   22.7100 N.ar    1  UNL1       -0.2452
      8 C          -3.0055  -16.9875   21.9775 C.ar    1  UNL1        0.0833
      9 C          -1.6446  -16.7759   21.3833 C.ar    1  UNL1        0.0305
     10 C          -0.9639  -17.8941   20.6508 C.ar    1  UNL1        0.0592
     11 CL          0.3971  -17.6825   20.0567 Cl      1  UNL1       -0.0822
     12 C          -1.6442  -19.2237   20.5124 C.ar    1  UNL1        0.0115
     13 C          -3.0052  -19.4353   21.1065 C.ar    1  UNL1        0.0036
     14 C          -3.6858  -18.3173   21.8391 C.ar    1  UNL1        0.0312
     15 C          -5.0468  -18.5289   22.4332 C.ar    1  UNL1        0.0513
     16 C          -5.7275  -17.4107   23.1658 C.ar    1  UNL1        0.0341
     17 C          -7.0884  -17.6223   23.7599 C.ar    1  UNL1        0.0396
     18 C          -9.5863  -18.0998   25.4421 C.3     1  UNL1        0.2525
     19 O          -9.1301  -16.7159   25.0865 O.3     1  UNL1       -0.4714
     20 C          -6.5854  -20.1408   21.0975 C.ar    1  UNL1        0.0482
     21 C          -6.1843  -21.2072   20.1218 C.ar    1  UNL1        0.0177
     22 C          -7.0425  -21.4896   18.9245 C.ar    1  UNL1        0.0376
     23 C          -8.3019  -20.7056   18.7028 C.ar    1  UNL1        0.1310
     24 O          -9.1602  -20.9879   17.5054 O.3     1  UNL1       -0.5058
     25 C          -8.7031  -19.6391   19.6785 C.ar    1  UNL1        0.0288
     26 C          -7.8448  -19.3568   20.8758 C.ar    1  UNL1        0.0147
     27 H          -8.9096  -21.6540   16.8960 H       1  UNL1        0.2922
     28 C          -9.9625  -18.8551   19.4567 C.3     1  UNL1        0.1023
     29 N         -10.8938  -18.5921   20.6028 N.3     1  UNL1       -0.2664
     30 C         -11.8276  -17.4191   20.5565 C.3     1  UNL1        0.0899
     31 C         -12.7589  -17.1562   21.7026 C.3     1  UNL1        0.0897
     32 N         -12.7564  -18.0661   22.8950 N.3     1  UNL1       -0.2691
     33 C         -13.6876  -17.8032   24.0411 C.3     1  UNL1        0.0897
     34 C         -11.8226  -19.2391   22.9414 C.3     1  UNL1        0.0897
     35 C         -10.8912  -19.5021   21.7953 C.3     1  UNL1        0.0899
@<TRIPOS>BOND
     1    18    19    1
     2    19     3    1
     3     3     4   ar
     4     4     5   ar
     5     5     6   ar
     6     6     7   ar
     7     7     8   ar
     8     8     9   ar
     9     9    10   ar
    10    10    11    1
    11    10    12   ar
    12    12    13   ar
    13    13    14   ar
    14    14    15   ar
    15    15     1    1
    16     1    20    1
    17    20    21   ar
    18    21    22   ar
    19    22    23   ar
    20    23    24    1
    21    23    25   ar
    22    25    28    1
    23    28    29    1
    24    29    30    1
    25    30    31    1
    26    31    32    1
    27    32    33    1
    28    32    34    1
    29    34    35    1
    30    25    26   ar
    31    15    16   ar
    32    16    17   ar
    33    17     3   ar
    34    16     6   ar
    35    14     8   ar
    36    26    20   ar
    37    35    29    1
    38     1     2    1
    39    24    27    1
@<TRIPOS>MOLECULE
*****
 35 39 0 0 0
SMALL
GASTEIGER

@<TRIPOS>ATOM
      1 N           7.4035   -2.5310   25.8279 N.pl3   1  UNL1       -0.3125
      2 H           8.2377   -2.0336   25.6668 H       1  UNL1        0.1522
      3 C           8.3038   -6.2801   23.5077 C.ar    1  UNL1        0.1389
      4 C           8.3443   -7.6050   24.2097 C.ar    1  UNL1        0.0384
      5 C           8.0847   -7.6803   25.6851 C.ar    1  UNL1        0.0223
      6 C           7.7846   -6.4306   26.4586 C.ar    1  UNL1        0.0826
      7 N           7.5249   -6.5059   27.9340 N.ar    1  UNL1       -0.2452
      8 C           7.2248   -5.2562   28.7074 C.ar    1  UNL1        0.0833
      9 C           6.9652   -5.3315   30.1829 C.ar    1  UNL1        0.0305
     10 C           6.6651   -4.0817   30.9563 C.ar    1  UNL1        0.0592
     11 CL          6.4055   -4.1570   32.4317 Cl      1  UNL1       -0.0822
     12 C           6.6246   -2.7568   30.2543 C.ar    1  UNL1        0.0115
     13 C           6.8842   -2.6815   28.7788 C.ar    1  UNL1        0.0036
     14 C           7.1843   -3.9312   28.0054 C.ar    1  UNL1        0.0312
     15 C           7.4439   -3.8559   26.5300 C.ar    1  UNL1        0.0513
     16 C           7.7441   -5.1057   25.7565 C.ar    1  UNL1        0.0341
     17 C           8.0037   -5.0304   24.2811 C.ar    1  UNL1        0.0396
     18 C           8.5629   -4.8755   21.3375 C.3     1  UNL1        0.2525
     19 O           8.5634   -6.2048   22.0322 O.3     1  UNL1       -0.4714
     20 C           6.0920   -1.9638   25.3715 C.ar    1  UNL1        0.0482
     21 C           5.4005   -2.5435   24.1732 C.ar    1  UNL1        0.0177
     22 C           4.0891   -1.9763   23.7168 C.ar    1  UNL1        0.0376
     23 C           3.4690   -0.8295   24.4586 C.ar    1  UNL1        0.1310
     24 O           2.1575   -0.2623   24.0021 O.3     1  UNL1       -0.5058
     25 C           4.1605   -0.2498   25.6569 C.ar    1  UNL1        0.0288
     26 C           5.4719   -0.8169   26.1134 C.ar    1  UNL1        0.0147
     27 H           1.7256   -0.6244   23.2536 H       1  UNL1        0.2922
     28 C           3.5404    0.8970   26.3987 C.3     1  UNL1        0.1023
     29 N           2.2285    0.7135   27.1022 N.3     1  UNL1       -0.2664
     30 C           2.1481   -0.1497   28.3264 C.3     1  UNL1        0.0899
     31 C           0.8361   -0.3332   29.0299 C.3     1  UNL1        0.0897
     32 N          -0.3956    0.3465   28.5093 N.3     1  UNL1       -0.2691
     33 C          -1.7075    0.1630   29.2129 C.3     1  UNL1        0.0897
     34 C          -0.3153    1.2096   27.2852 C.3     1  UNL1        0.0897
     35 C           0.9968    1.3932   26.5817 C.3     1  UNL1        0.0899
@<TRIPOS>BOND
     1    18    19    1
     2    19     3    1
     3     3     4   ar
     4     4     5   ar
     5     5     6   ar
     6     6     7   ar
     7     7     8   ar
     8     8     9   ar
     9     9    10   ar
    10    10    11    1
    11    10    12   ar
    12    12    13   ar
    13    13    14   ar
    14    14    15   ar
    15    15     1    1
    16     1    20    1
    17    20    21   ar
    18    21    22   ar
    19    22    23   ar
    20    23    24    1
    21    23    25   ar
    22    25    28    1
    23    28    29    1
    24    29    30    1
    25    30    31    1
    26    31    32    1
    27    32    33    1
    28    32    34    1
    29    34    35    1
    30    25    26   ar
    31    15    16   ar
    32    16    17   ar
    33    17     3   ar
    34    16     6   ar
    35    14     8   ar
    36    26    20   ar
    37    35    29    1
    38     1     2    1
    39    24    27    1
@<TRIPOS>MOLECULE
*****
 35 39 0 0 0
SMALL
GASTEIGER

@<TRIPOS>ATOM
      1 N           4.4415   -1.9784   33.5475 N.pl3   1  UNL1       -0.3125
      2 H           3.8805   -2.6579   33.9865 H       1  UNL1        0.1522
      3 C           2.4987   -0.1685   29.9144 C.ar    1  UNL1        0.1389
      4 C           2.0800    1.2718   29.9269 C.ar    1  UNL1        0.0384
      5 C           2.3090    2.1088   31.1504 C.ar    1  UNL1        0.0223
      6 C           2.9565    1.5055   32.3614 C.ar    1  UNL1        0.0826
      7 N           3.1855    2.3426   33.5850 N.ar    1  UNL1       -0.2452
      8 C           3.8331    1.7393   34.7960 C.ar    1  UNL1        0.0833
      9 C           4.0620    2.5763   36.0195 C.ar    1  UNL1        0.0305
     10 C           4.7096    1.9729   37.2306 C.ar    1  UNL1        0.0592
     11 CL          4.9385    2.8099   38.4541 Cl      1  UNL1       -0.0822
     12 C           5.1283    0.5326   37.2181 C.ar    1  UNL1        0.0115
     13 C           4.8994   -0.3044   35.9945 C.ar    1  UNL1        0.0036
     14 C           4.2518    0.2989   34.7835 C.ar    1  UNL1        0.0312
     15 C           4.0229   -0.5381   33.5600 C.ar    1  UNL1        0.0513
     16 C           3.3752    0.0652   32.3489 C.ar    1  UNL1        0.0341
     17 C           3.1463   -0.7718   31.1254 C.ar    1  UNL1        0.0396
     18 C           3.3450   -1.1248   27.6519 C.3     1  UNL1        0.2525
     19 O           2.2698   -1.0055   28.6909 O.3     1  UNL1       -0.4714
     20 C           5.7150   -2.3834   32.8661 C.ar    1  UNL1        0.0482
     21 C           6.8032   -1.3742   32.6489 C.ar    1  UNL1        0.0177
     22 C           8.0766   -1.7792   31.9675 C.ar    1  UNL1        0.0376
     23 C           8.2619   -3.1934   31.5033 C.ar    1  UNL1        0.1310
     24 O           9.5353   -3.5984   30.8220 O.3     1  UNL1       -0.5058
     25 C           7.1737   -4.2028   31.7205 C.ar    1  UNL1        0.0288
     26 C           5.9002   -3.7978   32.4019 C.ar    1  UNL1        0.0147
     27 H          10.2151   -2.9679   30.6863 H       1  UNL1        0.2922
     28 C           7.3590   -5.6170   31.2564 C.3     1  UNL1        0.1023
     29 N           7.4664   -5.9173   29.7907 N.3     1  UNL1       -0.2664
     30 C           6.4855   -5.3163   28.8281 C.3     1  UNL1        0.0899
     31 C           6.5929   -5.6166   27.3624 C.3     1  UNL1        0.0897
     32 N           7.6813   -6.5179   26.8593 N.3     1  UNL1       -0.2691
     33 C           7.7887   -6.8182   25.3936 C.3     1  UNL1        0.0897
     34 C           8.6622   -7.1189   27.8218 C.3     1  UNL1        0.0897
     35 C           8.5548   -6.8186   29.2876 C.3     1  UNL1        0.0899
@<TRIPOS>BOND
     1    18    19    1
     2    19     3    1
     3     3     4   ar
     4     4     5   ar
     5     5     6   ar
     6     6     7   ar
     7     7     8   ar
     8     8     9   ar
     9     9    10   ar
    10    10    11    1
    11    10    12   ar
    12    12    13   ar
    13    13    14   ar
    14    14    15   ar
    15    15     1    1
    16     1    20    1
    17    20    21   ar
    18    21    22   ar
    19    22    23   ar
    20    23    24    1
    21    23    25   ar
    22    25    28    1
    23    28    29    1
    24    29    30    1
    25    30    31    1
    26    31    32    1
    27    32    33    1
    28    32    34    1
    29    34    35    1
    30    25    26   ar
    31    15    16   ar
    32    16    17   ar
    33    17     3   ar
    34    16     6   ar
    35    14     8   ar
    36    26    20   ar
    37    35    29    1
    38     1     2    1
    39    24    27    1
@<TRIPOS>MOLECULE
*****
 35 39 0 0 0
SMALL
GASTEIGER

@<TRIPOS>ATOM
      1 N         -15.1549   -4.7823   20.1099 N.pl3   1  UNL1       -0.3125
      2 H         -15.2023   -4.8306   21.0920 H       1  UNL1        0.1522
      3 C         -11.0399   -4.1061   18.4189 C.ar    1  UNL1        0.1389
      4 C         -10.3581   -5.1961   17.6463 C.ar    1  UNL1        0.0384
      5 C         -11.0480   -6.5116   17.4374 C.ar    1  UNL1        0.0223
      6 C         -12.4196   -6.7370   18.0011 C.ar    1  UNL1        0.0826
      7 N         -13.1095   -8.0525   17.7922 N.ar    1  UNL1       -0.2452
      8 C         -14.4811   -8.2779   18.3558 C.ar    1  UNL1        0.0833
      9 C         -15.1710   -9.5934   18.1469 C.ar    1  UNL1        0.0305
     10 C         -16.5427   -9.8187   18.7106 C.ar    1  UNL1        0.0592
     11 CL        -17.2325  -11.1342   18.5017 Cl      1  UNL1       -0.0822
     12 C         -17.2245   -8.7287   19.4832 C.ar    1  UNL1        0.0115
     13 C         -16.5346   -7.4132   19.6921 C.ar    1  UNL1        0.0036
     14 C         -15.1630   -7.1878   19.1284 C.ar    1  UNL1        0.0312
     15 C         -14.4731   -5.8723   19.3373 C.ar    1  UNL1        0.0513
     16 C         -13.1014   -5.6469   18.7736 C.ar    1  UNL1        0.0341
     17 C         -12.4115   -4.3315   18.9825 C.ar    1  UNL1        0.0396
     18 C         -11.1261   -1.5114   18.5208 C.3     1  UNL1        0.2525
     19 O         -10.3500   -2.7906   18.6278 O.3     1  UNL1       -0.4714
     20 C         -15.7645   -3.6185   19.3860 C.ar    1  UNL1        0.0482
     21 C         -16.5906   -3.8499   18.1555 C.ar    1  UNL1        0.0177
     22 C         -17.2002   -2.6861   17.4317 C.ar    1  UNL1        0.0376
     23 C         -16.9838   -1.2909   17.9383 C.ar    1  UNL1        0.1310
     24 O         -17.5934   -0.1272   17.2144 O.3     1  UNL1       -0.5058
     25 C         -16.1577   -1.0595   19.1688 C.ar    1  UNL1        0.0288
     26 C         -15.5481   -2.2233   19.8927 C.ar    1  UNL1        0.0147
     27 H         -18.1094   -0.2717   16.4458 H       1  UNL1        0.2922
     28 C         -15.9413    0.3356   19.6754 C.3     1  UNL1        0.1023
     29 N         -15.1621    1.3194   18.8539 N.3     1  UNL1       -0.2664
     30 C         -13.9560    0.8661   18.0858 C.3     1  UNL1        0.0899
     31 C         -13.1767    1.8499   17.2643 C.3     1  UNL1        0.0897
     32 N         -13.6034    3.2869   17.2108 N.3     1  UNL1       -0.2691
     33 C         -12.8242    4.2706   16.3893 C.3     1  UNL1        0.0897
     34 C         -14.8095    3.7402   17.9789 C.3     1  UNL1        0.0897
     35 C         -15.5888    2.7564   18.8004 C.3     1  UNL1        0.0899
@<TRIPOS>BOND
     1    18    19    1
     2    19     3    1
     3     3     4   ar
     4     4     5   ar
     5     5     6   ar
     6     6     7   ar
     7     7     8   ar
     8     8     9   ar
     9     9    10   ar
    10    10    11    1
    11    10    12   ar
    12    12    13   ar
    13    13    14   ar
    14    14    15   ar
    15    15     1    1
    16     1    20    1
    17    20    21   ar
    18    21    22   ar
    19    22    23   ar
    20    23    24    1
    21    23    25   ar
    22    25    28    1
    23    28    29    1
    24    29    30    1
    25    30    31    1
    26    31    32    1
    27    32    33    1
    28    32    34    1
    29    34    35    1
    30    25    26   ar
    31    15    16   ar
    32    16    17   ar
    33    17     3   ar
    34    16     6   ar
    35    14     8   ar
    36    26    20   ar
    37    35    29    1
    38     1     2    1
    39    24    27    1
@<TRIPOS>MOLECULE
*****
 35 39 0 0 0
SMALL
GASTEIGER

@<TRIPOS>ATOM
      1 N         -15.0530   -4.8604   20.1021 N.pl3   1  UNL1       -0.3125
      2 H         -15.0578   -4.9492   21.0826 H       1  UNL1        0.1522
      3 C         -17.0130   -8.8292   19.2917 C.ar    1  UNL1        0.1389
      4 C         -16.3123   -9.8535   18.4493 C.ar    1  UNL1        0.0384
      5 C         -14.9583   -9.5550   17.8770 C.ar    1  UNL1        0.0223
      6 C         -14.3049   -8.2321   18.1471 C.ar    1  UNL1        0.0826
      7 N         -12.9509   -7.9336   17.5748 N.ar    1  UNL1       -0.2452
      8 C         -12.2976   -6.6106   17.8450 C.ar    1  UNL1        0.0833
      9 C         -10.9436   -6.3121   17.2727 C.ar    1  UNL1        0.0305
     10 C         -10.2902   -4.9891   17.5429 C.ar    1  UNL1        0.0592
     11 CL         -8.9362   -4.6906   16.9706 Cl      1  UNL1       -0.0822
     12 C         -10.9909   -3.9648   18.3853 C.ar    1  UNL1        0.0115
     13 C         -12.3449   -4.2633   18.9575 C.ar    1  UNL1        0.0036
     14 C         -12.9983   -5.5862   18.6874 C.ar    1  UNL1        0.0312
     15 C         -14.3523   -5.8847   19.2597 C.ar    1  UNL1        0.0513
     16 C         -15.0056   -7.2077   18.9895 C.ar    1  UNL1        0.0341
     17 C         -16.3596   -7.5063   19.5618 C.ar    1  UNL1        0.0396
     18 C         -19.1442   -8.0467   20.5548 C.3     1  UNL1        0.2525
     19 O         -18.3670   -9.1277   19.8639 O.3     1  UNL1       -0.4714
     20 C         -15.7463   -3.7006   19.4506 C.ar    1  UNL1        0.0482
     21 C         -16.6617   -3.9325   18.2852 C.ar    1  UNL1        0.0177
     22 C         -17.3550   -2.7727   17.6338 C.ar    1  UNL1        0.0376
     23 C         -17.1329   -1.3812   18.1478 C.ar    1  UNL1        0.1310
     24 O         -17.8262   -0.2215   17.4964 O.3     1  UNL1       -0.5058
     25 C         -16.2174   -1.1493   19.3133 C.ar    1  UNL1        0.0288
     26 C         -15.5241   -2.3090   19.9647 C.ar    1  UNL1        0.0147
     27 H         -18.3980   -0.3663   16.7683 H       1  UNL1        0.2922
     28 C         -15.9953    0.2422   19.8272 C.3     1  UNL1        0.1023
     29 N         -15.2414    1.2374   18.9959 N.3     1  UNL1       -0.2664
     30 C         -15.6623    2.6771   18.9843 C.3     1  UNL1        0.0899
     31 C         -14.9083    3.6722   18.1529 C.3     1  UNL1        0.0897
     32 N         -13.7335    3.2277   17.3330 N.3     1  UNL1       -0.2691
     33 C         -12.9795    4.2228   16.5017 C.3     1  UNL1        0.0897
     34 C         -13.3126    1.7881   17.3446 C.3     1  UNL1        0.0897
     35 C         -14.0665    0.7928   18.1760 C.3     1  UNL1        0.0899
@<TRIPOS>BOND
     1    18    19    1
     2    19     3    1
     3     3     4   ar
     4     4     5   ar
     5     5     6   ar
     6     6     7   ar
     7     7     8   ar
     8     8     9   ar
     9     9    10   ar
    10    10    11    1
    11    10    12   ar
    12    12    13   ar
    13    13    14   ar
    14    14    15   ar
    15    15     1    1
    16     1    20    1
    17    20    21   ar
    18    21    22   ar
    19    22    23   ar
    20    23    24    1
    21    23    25   ar
    22    25    28    1
    23    28    29    1
    24    29    30    1
    25    30    31    1
    26    31    32    1
    27    32    33    1
    28    32    34    1
    29    34    35    1
    30    25    26   ar
    31    15    16   ar
    32    16    17   ar
    33    17     3   ar
    34    16     6   ar
    35    14     8   ar
    36    26    20   ar
    37    35    29    1
    38     1     2    1
    39    24    27    1
@<TRIPOS>MOLECULE
*****
 35 39 0 0 0
SMALL
GASTEIGER

@<TRIPOS>ATOM
      1 N         -14.7052   -4.6534   20.2713 N.pl3   1  UNL1       -0.3125
      2 H         -14.5566   -4.7186   21.2423 H       1  UNL1        0.1522
      3 C         -16.7272   -8.5855   19.4349 C.ar    1  UNL1        0.1389
      4 C         -16.0858   -9.5768   18.5097 C.ar    1  UNL1        0.0384
      5 C         -14.7705   -9.2574   17.8633 C.ar    1  UNL1        0.0223
      6 C         -14.0965   -7.9467   18.1421 C.ar    1  UNL1        0.0826
      7 N         -12.7811   -7.6273   17.4957 N.ar    1  UNL1       -0.2452
      8 C         -12.1072   -6.3166   17.7745 C.ar    1  UNL1        0.0833
      9 C         -10.7918   -5.9971   17.1281 C.ar    1  UNL1        0.0305
     10 C         -10.1178   -4.6863   17.4069 C.ar    1  UNL1        0.0592
     11 CL         -8.8025   -4.3669   16.7606 Cl      1  UNL1       -0.0822
     12 C         -10.7592   -3.6951   18.3321 C.ar    1  UNL1        0.0115
     13 C         -12.0745   -4.0145   18.9785 C.ar    1  UNL1        0.0036
     14 C         -12.7485   -5.3252   18.6997 C.ar    1  UNL1        0.0312
     15 C         -14.0639   -5.6446   19.3461 C.ar    1  UNL1        0.0513
     16 C         -14.7379   -6.9554   19.0673 C.ar    1  UNL1        0.0341
     17 C         -16.0532   -7.2748   19.7137 C.ar    1  UNL1        0.0396
     18 C         -19.0810   -7.8340   20.2378 C.3     1  UNL1        0.2525
     19 O         -18.0425   -8.9050   20.0813 O.3     1  UNL1       -0.4714
     20 C         -15.5731   -3.5626   19.7170 C.ar    1  UNL1        0.0482
     21 C         -16.8855   -3.9018   19.0747 C.ar    1  UNL1        0.0177
     22 C         -17.7533   -2.8111   18.5205 C.ar    1  UNL1        0.0376
     23 C         -17.3087   -1.3812   18.6085 C.ar    1  UNL1        0.1310
     24 O         -18.1766   -0.2905   18.0542 O.3     1  UNL1       -0.5058
     25 C         -15.9963   -1.0420   19.2508 C.ar    1  UNL1        0.0288
     26 C         -15.1285   -2.1327   19.8050 C.ar    1  UNL1        0.0147
     27 H         -18.9964   -0.5024   17.6530 H       1  UNL1        0.2922
     28 C         -15.5517    0.3879   19.3388 C.3     1  UNL1        0.1023
     29 N         -16.4641    1.4219   19.9289 N.3     1  UNL1       -0.2664
     30 C         -17.1706    1.1477   21.2235 C.3     1  UNL1        0.0899
     31 C         -18.0830    2.1818   21.8136 C.3     1  UNL1        0.0897
     32 N         -18.2889    3.4900   21.1093 N.3     1  UNL1       -0.2691
     33 C         -19.2012    4.5241   21.6994 C.3     1  UNL1        0.0897
     34 C         -17.5824    3.7642   19.8148 C.3     1  UNL1        0.0897
     35 C         -16.6700    2.7302   19.2246 C.3     1  UNL1        0.0899
@<TRIPOS>BOND
     1    18    19    1
     2    19     3    1
     3     3     4   ar
     4     4     5   ar
     5     5     6   ar
     6     6     7   ar
     7     7     8   ar
     8     8     9   ar
     9     9    10   ar
    10    10    11    1
    11    10    12   ar
    12    12    13   ar
    13    13    14   ar
    14    14    15   ar
    15    15     1    1
    16     1    20    1
    17    20    21   ar
    18    21    22   ar
    19    22    23   ar
    20    23    24    1
    21    23    25   ar
    22    25    28    1
    23    28    29    1
    24    29    30    1
    25    30    31    1
    26    31    32    1
    27    32    33    1
    28    32    34    1
    29    34    35    1
    30    25    26   ar
    31    15    16   ar
    32    16    17   ar
    33    17     3   ar
    34    16     6   ar
    35    14     8   ar
    36    26    20   ar
    37    35    29    1
    38     1     2    1
    39    24    27    1
@<TRIPOS>MOLECULE
*****
 35 39 0 0 0
SMALL
GASTEIGER

@<TRIPOS>ATOM
      1 N         -15.1595   -4.8159   20.1804 N.pl3   1  UNL1       -0.3125
      2 H         -15.1622   -4.8731   21.1632 H       1  UNL1        0.1522
      3 C         -11.0960   -4.0801   18.3926 C.ar    1  UNL1        0.1389
      4 C         -10.4287   -5.1506   17.5809 C.ar    1  UNL1        0.0384
      5 C         -11.1159   -6.4663   17.3652 C.ar    1  UNL1        0.0223
      6 C         -12.4704   -6.7116   17.9611 C.ar    1  UNL1        0.0826
      7 N         -13.1576   -8.0274   17.7454 N.ar    1  UNL1       -0.2452
      8 C         -14.5121   -8.2726   18.3413 C.ar    1  UNL1        0.0833
      9 C         -15.1993   -9.5884   18.1256 C.ar    1  UNL1        0.0305
     10 C         -16.5539   -9.8337   18.7215 C.ar    1  UNL1        0.0592
     11 CL        -17.2411  -11.1494   18.5058 Cl      1  UNL1       -0.0822
     12 C         -17.2211   -8.7632   19.5332 C.ar    1  UNL1        0.0115
     13 C         -16.5339   -7.4475   19.7489 C.ar    1  UNL1        0.0036
     14 C         -15.1794   -7.2022   19.1530 C.ar    1  UNL1        0.0312
     15 C         -14.4922   -5.8864   19.3687 C.ar    1  UNL1        0.0513
     16 C         -13.1377   -5.6411   18.7728 C.ar    1  UNL1        0.0341
     17 C         -12.4505   -4.3254   18.9885 C.ar    1  UNL1        0.0396
     18 C         -11.2047   -1.4930   18.6046 C.3     1  UNL1        0.2525
     19 O         -10.4088   -2.7643   18.6083 O.3     1  UNL1       -0.4714
     20 C         -15.8227   -3.6584   19.4946 C.ar    1  UNL1        0.0482
     21 C         -16.9856   -3.8961   18.5776 C.ar    1  UNL1        0.0177
     22 C         -17.6488   -2.7385   17.8918 C.ar    1  UNL1        0.0376
     23 C         -17.1490   -1.3433   18.1230 C.ar    1  UNL1        0.1310
     24 O         -17.8121   -0.1858   17.4372 O.3     1  UNL1       -0.5058
     25 C         -15.9860   -1.1056   19.0401 C.ar    1  UNL1        0.0288
     26 C         -15.3228   -2.2631   19.7259 C.ar    1  UNL1        0.0147
     27 H         -18.5386   -0.3342   16.8644 H       1  UNL1        0.2922
     28 C         -15.4862    0.2896   19.2714 C.3     1  UNL1        0.1023
     29 N         -16.4006    1.3272   19.8520 N.3     1  UNL1       -0.2664
     30 C         -17.2180    1.0100   21.0691 C.3     1  UNL1        0.0899
     31 C         -18.1325    2.0476   21.6497 C.3     1  UNL1        0.0897
     32 N         -18.2296    3.4024   21.0132 N.3     1  UNL1       -0.2691
     33 C         -19.1440    4.4400   21.5938 C.3     1  UNL1        0.0897
     34 C         -17.4122    3.7197   19.7962 C.3     1  UNL1        0.0897
     35 C         -16.4977    2.6820   19.2155 C.3     1  UNL1        0.0899
@<TRIPOS>BOND
     1    18    19    1
     2    19     3    1
     3     3     4   ar
     4     4     5   ar
     5     5     6   ar
     6     6     7   ar
     7     7     8   ar
     8     8     9   ar
     9     9    10   ar
    10    10    11    1
    11    10    12   ar
    12    12    13   ar
    13    13    14   ar
    14    14    15   ar
    15    15     1    1
    16     1    20    1
    17    20    21   ar
    18    21    22   ar
    19    22    23   ar
    20    23    24    1
    21    23    25   ar
    22    25    28    1
    23    28    29    1
    24    29    30    1
    25    30    31    1
    26    31    32    1
    27    32    33    1
    28    32    34    1
    29    34    35    1
    30    25    26   ar
    31    15    16   ar
    32    16    17   ar
    33    17     3   ar
    34    16     6   ar
    35    14     8   ar
    36    26    20   ar
    37    35    29    1
    38     1     2    1
    39    24    27    1
@<TRIPOS>MOLECULE
*****
 35 39 0 0 0
SMALL
GASTEIGER

@<TRIPOS>ATOM
      1 N           4.0132   -2.7374   22.0656 N.pl3   1  UNL1       -0.3125
      2 H           3.4865   -3.5657   21.9905 H       1  UNL1        0.1522
      3 C           8.1282   -3.2646   20.3222 C.ar    1  UNL1        0.1389
      4 C           8.5212   -2.5113   19.0862 C.ar    1  UNL1        0.0384
      5 C           7.5426   -1.5821   18.4312 C.ar    1  UNL1        0.0223
      6 C           6.1709   -1.4063   19.0123 C.ar    1  UNL1        0.0826
      7 N           5.1923   -0.4772   18.3573 N.ar    1  UNL1       -0.2452
      8 C           3.8207   -0.3014   18.9384 C.ar    1  UNL1        0.0833
      9 C           2.8421    0.6277   18.2834 C.ar    1  UNL1        0.0305
     10 C           1.4704    0.8035   18.8646 C.ar    1  UNL1        0.0592
     11 CL          0.4918    1.7326   18.2096 Cl      1  UNL1       -0.0822
     12 C           1.0774    0.0501   20.1006 C.ar    1  UNL1        0.0115
     13 C           2.0560   -0.8791   20.7556 C.ar    1  UNL1        0.0036
     14 C           3.4276   -1.0548   20.1745 C.ar    1  UNL1        0.0312
     15 C           4.4062   -1.9840   20.8295 C.ar    1  UNL1        0.0513
     16 C           5.7779   -2.1597   20.2483 C.ar    1  UNL1        0.0341
     17 C           6.7565   -3.0889   20.9033 C.ar    1  UNL1        0.0396
     18 C           9.0141   -4.4642   22.4497 C.3     1  UNL1        0.2525
     19 O           9.1068   -4.1938   20.9772 O.3     1  UNL1       -0.4714
     20 C           4.4227   -2.2287   23.4160 C.ar    1  UNL1        0.0482
     21 C           5.4790   -2.9492   24.2002 C.ar    1  UNL1        0.0177
     22 C           5.8884   -2.4405   25.5506 C.ar    1  UNL1        0.0376
     23 C           5.2416   -1.2112   26.1167 C.ar    1  UNL1        0.1310
     24 O           5.6511   -0.7025   27.4671 O.3     1  UNL1       -0.5058
     25 C           4.1853   -0.4906   25.3325 C.ar    1  UNL1        0.0288
     26 C           3.7758   -0.9994   23.9821 C.ar    1  UNL1        0.0147
     27 H           6.3109   -1.1526   27.9570 H       1  UNL1        0.2922
     28 C           3.5385    0.7386   25.8986 C.3     1  UNL1        0.1023
     29 N           2.2707    0.6214   26.6916 N.3     1  UNL1       -0.2664
     30 C           2.2719   -0.1025   28.0054 C.3     1  UNL1        0.0899
     31 C           1.0041   -0.2197   28.7984 C.3     1  UNL1        0.0897
     32 N          -0.2650    0.3869   28.2776 N.3     1  UNL1       -0.2691
     33 C          -1.5329    0.2697   29.0706 C.3     1  UNL1        0.0897
     34 C          -0.2664    1.1108   26.9639 C.3     1  UNL1        0.0897
     35 C           1.0015    1.2280   26.1708 C.3     1  UNL1        0.0899
@<TRIPOS>BOND
     1    18    19    1
     2    19     3    1
     3     3     4   ar
     4     4     5   ar
     5     5     6   ar
     6     6     7   ar
     7     7     8   ar
     8     8     9   ar
     9     9    10   ar
    10    10    11    1
    11    10    12   ar
    12    12    13   ar
    13    13    14   ar
    14    14    15   ar
    15    15     1    1
    16     1    20    1
    17    20    21   ar
    18    21    22   ar
    19    22    23   ar
    20    23    24    1
    21    23    25   ar
    22    25    28    1
    23    28    29    1
    24    29    30    1
    25    30    31    1
    26    31    32    1
    27    32    33    1
    28    32    34    1
    29    34    35    1
    30    25    26   ar
    31    15    16   ar
    32    16    17   ar
    33    17     3   ar
    34    16     6   ar
    35    14     8   ar
    36    26    20   ar
    37    35    29    1
    38     1     2    1
    39    24    27    1
@<TRIPOS>MOLECULE
*****
 35 39 0 0 0
SMALL
GASTEIGER

@<TRIPOS>ATOM
      1 N           7.2609   -2.0931   27.4631 N.pl3   1  UNL1       -0.3125
      2 H           8.0049   -1.4664   27.6144 H       1  UNL1        0.1522
      3 C           6.5002   -3.2702   31.7393 C.ar    1  UNL1        0.1389
      4 C           6.6314   -4.7048   32.1569 C.ar    1  UNL1        0.0384
      5 C           7.0161   -5.7472   31.1492 C.ar    1  UNL1        0.0223
      6 C           7.2697   -5.3548   29.7238 C.ar    1  UNL1        0.0826
      7 N           7.6544   -6.3972   28.7161 N.ar    1  UNL1       -0.2452
      8 C           7.9079   -6.0048   27.2907 C.ar    1  UNL1        0.0833
      9 C           8.2927   -7.0471   26.2830 C.ar    1  UNL1        0.0305
     10 C           8.5462   -6.6547   24.8575 C.ar    1  UNL1        0.0592
     11 CL          8.9309   -7.6971   23.8498 Cl      1  UNL1       -0.0822
     12 C           8.4151   -5.2201   24.4399 C.ar    1  UNL1        0.0115
     13 C           8.0303   -4.1777   25.4476 C.ar    1  UNL1        0.0036
     14 C           7.7768   -4.5701   26.8730 C.ar    1  UNL1        0.0312
     15 C           7.3921   -3.5277   27.8807 C.ar    1  UNL1        0.0513
     16 C           7.1385   -3.9202   29.3062 C.ar    1  UNL1        0.0341
     17 C           6.7538   -2.8778   30.3139 C.ar    1  UNL1        0.0396
     18 C           4.7503   -2.2527   33.3680 C.3     1  UNL1        0.2525
     19 O           6.1155   -2.2278   32.7470 O.3     1  UNL1       -0.4714
     20 C           5.9961   -1.6132   26.8149 C.ar    1  UNL1        0.0482
     21 C           4.7323   -1.5165   27.6170 C.ar    1  UNL1        0.0177
     22 C           3.4675   -1.0366   26.9688 C.ar    1  UNL1        0.0376
     23 C           3.4666   -0.6535   25.5186 C.ar    1  UNL1        0.1310
     24 O           2.2019   -0.1737   24.8704 O.3     1  UNL1       -0.5058
     25 C           4.7305   -0.7503   24.7164 C.ar    1  UNL1        0.0288
     26 C           5.9953   -1.2301   25.3646 C.ar    1  UNL1        0.0147
     27 H           1.4124   -0.1133   25.3714 H       1  UNL1        0.2922
     28 C           4.7296   -0.3672   23.2662 C.3     1  UNL1        0.1023
     29 N           4.4304   -1.3980   22.2184 N.3     1  UNL1       -0.2664
     30 C           3.7920   -0.9886   20.9242 C.3     1  UNL1        0.0899
     31 C           3.4928   -2.0194   19.8764 C.3     1  UNL1        0.0897
     32 N           3.8319   -3.4596   20.1228 N.3     1  UNL1       -0.2691
     33 C           3.5327   -4.4904   19.0750 C.3     1  UNL1        0.0897
     34 C           4.4703   -3.8690   21.4169 C.3     1  UNL1        0.0897
     35 C           4.7695   -2.8382   22.4648 C.3     1  UNL1        0.0899
@<TRIPOS>BOND
     1    18    19    1
     2    19     3    1
     3     3     4   ar
     4     4     5   ar
     5     5     6   ar
     6     6     7   ar
     7     7     8   ar
     8     8     9   ar
     9     9    10   ar
    10    10    11    1
    11    10    12   ar
    12    12    13   ar
    13    13    14   ar
    14    14    15   ar
    15    15     1    1
    16     1    20    1
    17    20    21   ar
    18    21    22   ar
    19    22    23   ar
    20    23    24    1
    21    23    25   ar
    22    25    28    1
    23    28    29    1
    24    29    30    1
    25    30    31    1
    26    31    32    1
    27    32    33    1
    28    32    34    1
    29    34    35    1
    30    25    26   ar
    31    15    16   ar
    32    16    17   ar
    33    17     3   ar
    34    16     6   ar
    35    14     8   ar
    36    26    20   ar
    37    35    29    1
    38     1     2    1
    39    24    27    1
