@<TRIPOS>MOLECULE
*****
 25 28 0 0 0
SMALL
GASTEIGER

@<TRIPOS>ATOM
      1 C          -4.5463  -18.8356   21.4757 C.ar    1  UNL1        0.1536
      2 C          -5.3579  -19.8837   20.7737 C.ar    1  UNL1        0.1332
      3 N          -6.8481  -19.9153   20.9413 N.ar    1  UNL1       -0.2392
      4 C          -7.5268  -18.8989   21.8110 C.ar    1  UNL1        0.1043
      5 C          -6.7152  -17.8508   22.5130 C.ar    1  UNL1        0.1364
      6 N          -5.2250  -17.8192   22.3453 N.ar    1  UNL1       -0.2243
      7 C          -9.0171  -18.9305   21.9786 C.ar    1  UNL1        0.0498
      8 C          -9.8847  -18.0338   21.1460 C.ar    1  UNL1        0.0245
      9 C         -11.3749  -18.0654   21.3136 C.ar    1  UNL1        0.0991
     10 N         -11.9977  -18.9939   22.3138 N.ar    1  UNL1       -0.2400
     11 C         -11.1301  -19.8906   23.1464 C.ar    1  UNL1        0.1285
     12 C          -9.6398  -19.8589   22.9788 C.ar    1  UNL1        0.1606
     13 F          -8.7722  -20.7557   23.8113 F       1  UNL1       -0.2025
     14 C          -7.3939  -16.8344   23.3826 C.ar    1  UNL1        0.1854
     15 C          -7.0601  -15.3739   23.4568 C.ar    1  UNL1        0.1412
     16 N          -7.9854  -14.7368   24.4508 N.ar    1  UNL1       -0.2025
     17 C          -8.8910  -15.8036   24.9910 C.ar    1  UNL1        0.2852
     18 O          -8.5254  -17.1000   24.3308 O.2     1  UNL1       -0.4295
     19 O          -3.3192  -17.2173   19.2677 O.2     1  UNL1       -0.2747
     20 C          -2.4425  -17.9948   20.2041 C.2     1  UNL1        0.2267
     21 N          -3.0560  -18.8039   21.3080 N.am    1  UNL1       -0.2681
     22 H          -2.4805  -19.3142   21.9226 H       1  UNL1        0.1563
     23 C          -0.9521  -17.9631   20.0364 C.3     1  UNL1        0.0769
     24 C           0.3380  -17.1979   20.0265 C.3     1  UNL1        0.0096
     25 C           0.3390  -18.6733   19.7561 C.3     1  UNL1        0.0096
@<TRIPOS>BOND
     1    19    20    2
     2    20    21   am
     3    21     1    1
     4     1     2   ar
     5     2     3   ar
     6     3     4   ar
     7     4     7    1
     8     7     8   ar
     9     8     9   ar
    10     9    10   ar
    11    10    11   ar
    12    11    12   ar
    13    12    13    1
    14     4     5   ar
    15     5    14    1
    16    14    15   ar
    17    15    16   ar
    18    16    17   ar
    19    17    18   ar
    20     5     6   ar
    21    20    23    1
    22    23    24    1
    23    24    25    1
    24     6     1   ar
    25    25    23    1
    26    12     7   ar
    27    18    14   ar
    28    21    22    1
@<TRIPOS>MOLECULE
*****
 25 28 0 0 0
SMALL
GASTEIGER

@<TRIPOS>ATOM
      1 C          -6.4280  -18.6299   20.4853 C.ar    1  UNL1        0.1536
      2 C          -7.5813  -19.4498   19.9879 C.ar    1  UNL1        0.1332
      3 N          -8.9091  -19.3750   20.6817 N.ar    1  UNL1       -0.2392
      4 C          -9.0836  -18.4802   21.8729 C.ar    1  UNL1        0.1043
      5 C          -7.9302  -17.6602   22.3702 C.ar    1  UNL1        0.1364
      6 N          -6.6025  -17.7350   21.6765 N.ar    1  UNL1       -0.2243
      7 C         -10.4114  -18.4054   22.5666 C.ar    1  UNL1        0.0498
      8 C         -10.7031  -19.3095   23.7275 C.ar    1  UNL1        0.0245
      9 C         -12.0309  -19.2347   24.4212 C.ar    1  UNL1        0.0991
     10 N         -13.0671  -18.2558   23.9542 N.ar    1  UNL1       -0.2400
     11 C         -12.7754  -17.3516   22.7934 C.ar    1  UNL1        0.1285
     12 C         -11.4475  -17.4265   22.0996 C.ar    1  UNL1        0.1606
     13 F         -11.1559  -16.5223   20.9388 F       1  UNL1       -0.2025
     14 C          -8.1047  -16.7654   23.5614 C.ar    1  UNL1        0.1854
     15 C          -7.7376  -15.3128   23.6343 C.ar    1  UNL1        0.1412
     16 N          -8.0829  -14.8157   25.0067 N.ar    1  UNL1       -0.2025
     17 C          -8.6634  -15.9610   25.7821 C.ar    1  UNL1        0.2852
     18 O          -8.6768  -17.1660   24.8888 O.2     1  UNL1       -0.4295
     19 O          -3.9233  -17.8766   21.9546 O.2     1  UNL1       -0.2747
     20 C          -3.8478  -18.3280   20.5262 C.2     1  UNL1        0.2267
     21 N          -5.1002  -18.7047   19.7915 N.am    1  UNL1       -0.2681
     22 H          -5.0506  -19.0010   18.8540 H       1  UNL1        0.1563
     23 C          -2.5200  -18.4029   19.8324 C.3     1  UNL1        0.0769
     24 C          -1.6960  -18.2682   18.5863 C.3     1  UNL1        0.0096
     25 C          -1.0441  -18.6671   19.8769 C.3     1  UNL1        0.0096
@<TRIPOS>BOND
     1    19    20    2
     2    20    21   am
     3    21     1    1
     4     1     2   ar
     5     2     3   ar
     6     3     4   ar
     7     4     7    1
     8     7     8   ar
     9     8     9   ar
    10     9    10   ar
    11    10    11   ar
    12    11    12   ar
    13    12    13    1
    14     4     5   ar
    15     5    14    1
    16    14    15   ar
    17    15    16   ar
    18    16    17   ar
    19    17    18   ar
    20     5     6   ar
    21    20    23    1
    22    23    24    1
    23    24    25    1
    24     6     1   ar
    25    25    23    1
    26    12     7   ar
    27    18    14   ar
    28    21    22    1
@<TRIPOS>MOLECULE
*****
 25 28 0 0 0
SMALL
GASTEIGER

@<TRIPOS>ATOM
      1 C           2.8378    0.3508   23.4118 C.ar    1  UNL1        0.1536
      2 C           3.5378    1.5318   22.8076 C.ar    1  UNL1        0.1332
      3 N           4.3137    1.3728   21.5338 N.ar    1  UNL1       -0.2392
      4 C           4.3896    0.0327   20.8642 C.ar    1  UNL1        0.1043
      5 C           3.6896   -1.1483   21.4684 C.ar    1  UNL1        0.1364
      6 N           2.9137   -0.9893   22.7422 N.ar    1  UNL1       -0.2243
      7 C           5.1655   -0.1263   19.5903 C.ar    1  UNL1        0.0498
      8 C           6.6131   -0.5164   19.6376 C.ar    1  UNL1        0.0245
      9 C           7.3890   -0.6754   18.3638 C.ar    1  UNL1        0.0991
     10 N           6.7174   -0.4443   17.0426 N.ar    1  UNL1       -0.2400
     11 C           5.2698   -0.0542   16.9953 C.ar    1  UNL1        0.1285
     12 C           4.4938    0.1048   18.2692 C.ar    1  UNL1        0.1606
     13 F           3.0462    0.4949   18.2219 F       1  UNL1       -0.2025
     14 C           3.7654   -2.4884   20.7987 C.ar    1  UNL1        0.1854
     15 C           4.5382   -3.6767   21.2893 C.ar    1  UNL1        0.1412
     16 N           4.3323   -4.7982   20.3147 N.ar    1  UNL1       -0.2025
     17 C           3.4322   -4.3030   19.2217 C.ar    1  UNL1        0.2852
     18 O           3.0819   -2.8755   19.5209 O.2     1  UNL1       -0.4295
     19 O           0.1914    1.7637   23.3899 O.2     1  UNL1       -0.2747
     20 C           0.7387    1.2162   24.6748 C.2     1  UNL1        0.2267
     21 N           2.0619    0.5098   24.6857 N.am    1  UNL1       -0.2681
     22 H           2.4211    0.1505   25.5290 H       1  UNL1        0.1563
     23 C          -0.0372    1.3752   25.9486 C.3     1  UNL1        0.0769
     24 C          -0.4507    0.8511   27.2918 C.3     1  UNL1        0.0096
     25 C          -0.9676    2.1748   26.8118 C.3     1  UNL1        0.0096
@<TRIPOS>BOND
     1    19    20    2
     2    20    21   am
     3    21     1    1
     4     1     2   ar
     5     2     3   ar
     6     3     4   ar
     7     4     7    1
     8     7     8   ar
     9     8     9   ar
    10     9    10   ar
    11    10    11   ar
    12    11    12   ar
    13    12    13    1
    14     4     5   ar
    15     5    14    1
    16    14    15   ar
    17    15    16   ar
    18    16    17   ar
    19    17    18   ar
    20     5     6   ar
    21    20    23    1
    22    23    24    1
    23    24    25    1
    24     6     1   ar
    25    25    23    1
    26    12     7   ar
    27    18    14   ar
    28    21    22    1
@<TRIPOS>MOLECULE
*****
 25 28 0 0 0
SMALL
GASTEIGER

@<TRIPOS>ATOM
      1 C           1.0240    1.3030   18.6671 C.ar    1  UNL1        0.1536
      2 C           0.3957    0.4934   19.7625 C.ar    1  UNL1        0.1332
      3 N           1.1916   -0.5692   20.4606 N.ar    1  UNL1       -0.2392
      4 C           2.6157   -0.8222   20.0634 C.ar    1  UNL1        0.1043
      5 C           3.2440   -0.0126   18.9681 C.ar    1  UNL1        0.1364
      6 N           2.4481    1.0500   18.2699 N.ar    1  UNL1       -0.2243
      7 C           3.4116   -1.8848   20.7616 C.ar    1  UNL1        0.0498
      8 C           3.8406   -1.6868   22.1853 C.ar    1  UNL1        0.0245
      9 C           4.6364   -2.7494   22.8835 C.ar    1  UNL1        0.0991
     10 N           5.0034   -4.0100   22.1580 N.ar    1  UNL1       -0.2400
     11 C           4.5744   -4.2080   20.7344 C.ar    1  UNL1        0.1285
     12 C           3.7785   -3.1454   20.0362 C.ar    1  UNL1        0.1606
     13 F           3.3496   -3.3434   18.6125 F       1  UNL1       -0.2025
     14 C           4.6682   -0.2656   18.5709 C.ar    1  UNL1        0.1854
     15 C           5.1296   -0.8544   17.2707 C.ar    1  UNL1        0.1412
     16 N           6.6276   -0.9269   17.3004 N.ar    1  UNL1       -0.2025
     17 C           7.0919   -0.3830   18.6189 C.ar    1  UNL1        0.2852
     18 O           5.8810    0.0257   19.4041 O.2     1  UNL1       -0.4295
     19 O           1.4548    4.1922   19.3505 O.2     1  UNL1       -0.2747
     20 C           0.4435    3.8102   18.3106 C.2     1  UNL1        0.2267
     21 N           0.2281    2.3656   17.9689 N.am    1  UNL1       -0.2681
     22 H          -0.4357    2.1149   17.2864 H       1  UNL1        0.1563
     23 C          -0.3524    4.8728   17.6124 C.3     1  UNL1        0.0769
     24 C          -0.6673    5.6560   16.3725 C.3     1  UNL1        0.0096
     25 C          -1.4159    5.9302   17.6431 C.3     1  UNL1        0.0096
@<TRIPOS>BOND
     1    19    20    2
     2    20    21   am
     3    21     1    1
     4     1     2   ar
     5     2     3   ar
     6     3     4   ar
     7     4     7    1
     8     7     8   ar
     9     8     9   ar
    10     9    10   ar
    11    10    11   ar
    12    11    12   ar
    13    12    13    1
    14     4     5   ar
    15     5    14    1
    16    14    15   ar
    17    15    16   ar
    18    16    17   ar
    19    17    18   ar
    20     5     6   ar
    21    20    23    1
    22    23    24    1
    23    24    25    1
    24     6     1   ar
    25    25    23    1
    26    12     7   ar
    27    18    14   ar
    28    21    22    1
@<TRIPOS>MOLECULE
*****
 25 28 0 0 0
SMALL
GASTEIGER

@<TRIPOS>ATOM
      1 C           6.7729   -5.0273   29.4246 C.ar    1  UNL1        0.1536
      2 C           6.9632   -5.4747   30.8436 C.ar    1  UNL1        0.1332
      3 N           6.7951   -4.4958   31.9675 N.ar    1  UNL1       -0.2392
      4 C           6.4367   -3.0694   31.6725 C.ar    1  UNL1        0.1043
      5 C           6.2465   -2.6220   30.2535 C.ar    1  UNL1        0.1364
      6 N           6.4146   -3.6009   29.1296 N.ar    1  UNL1       -0.2243
      7 C           6.2686   -2.0904   32.7966 C.ar    1  UNL1        0.0498
      8 C           7.4104   -1.2031   33.1954 C.ar    1  UNL1        0.0245
      9 C           7.2423   -0.2242   34.3194 C.ar    1  UNL1        0.0991
     10 N           5.9325   -0.1325   35.0446 N.ar    1  UNL1       -0.2400
     11 C           4.7907   -1.0199   34.6458 C.ar    1  UNL1        0.1285
     12 C           4.9588   -1.9988   33.5218 C.ar    1  UNL1        0.1606
     13 F           3.8171   -2.8862   33.1230 F       1  UNL1       -0.2025
     14 C           5.8881   -1.1956   29.9585 C.ar    1  UNL1        0.1854
     15 C           4.5010   -0.6544   29.7770 C.ar    1  UNL1        0.1412
     16 N           4.6096    0.8157   29.4995 N.ar    1  UNL1       -0.2025
     17 C           6.0638    1.1831   29.5095 C.ar    1  UNL1        0.2852
     18 O           6.8540   -0.0599   29.7932 O.2     1  UNL1       -0.4295
     19 O           9.3274   -5.0819   27.8523 O.2     1  UNL1       -0.2747
     20 C           8.2182   -6.0336   27.5144 C.2     1  UNL1        0.2267
     21 N           6.9410   -6.0063   28.3005 N.am    1  UNL1       -0.2681
     22 H           6.2131   -6.6309   28.0787 H       1  UNL1        0.1563
     23 C           8.3863   -7.0125   26.3903 C.3     1  UNL1        0.0769
     24 C           9.2593   -7.9295   25.5860 C.3     1  UNL1        0.0096
     25 C           7.8045   -7.7912   25.2479 C.3     1  UNL1        0.0096
@<TRIPOS>BOND
     1    19    20    2
     2    20    21   am
     3    21     1    1
     4     1     2   ar
     5     2     3   ar
     6     3     4   ar
     7     4     7    1
     8     7     8   ar
     9     8     9   ar
    10     9    10   ar
    11    10    11   ar
    12    11    12   ar
    13    12    13    1
    14     4     5   ar
    15     5    14    1
    16    14    15   ar
    17    15    16   ar
    18    16    17   ar
    19    17    18   ar
    20     5     6   ar
    21    20    23    1
    22    23    24    1
    23    24    25    1
    24     6     1   ar
    25    25    23    1
    26    12     7   ar
    27    18    14   ar
    28    21    22    1
@<TRIPOS>MOLECULE
*****
 25 28 0 0 0
SMALL
GASTEIGER

@<TRIPOS>ATOM
      1 C           0.5393    0.9545   20.1348 C.ar    1  UNL1        0.1536
      2 C           0.8743    0.9850   18.6730 C.ar    1  UNL1        0.1332
      3 N           2.1553    0.3768   18.1844 N.ar    1  UNL1       -0.2392
      4 C           3.1014   -0.2620   19.1574 C.ar    1  UNL1        0.1043
      5 C           2.7664   -0.2926   20.6192 C.ar    1  UNL1        0.1364
      6 N           1.4853    0.3157   21.1079 N.ar    1  UNL1       -0.2243
      7 C           4.3825   -0.8703   18.6687 C.ar    1  UNL1        0.0498
      8 C           5.5401    0.0112   18.3040 C.ar    1  UNL1        0.0245
      9 C           6.8211   -0.5970   17.8153 C.ar    1  UNL1        0.0991
     10 N           6.9447   -2.0868   17.6912 N.ar    1  UNL1       -0.2400
     11 C           5.7871   -2.9683   18.0558 C.ar    1  UNL1        0.1285
     12 C           4.5060   -2.3600   18.5446 C.ar    1  UNL1        0.1606
     13 F           3.3484   -3.2415   18.9092 F       1  UNL1       -0.2025
     14 C           3.7125   -0.9314   21.5923 C.ar    1  UNL1        0.1854
     15 C           4.7888   -0.2293   22.3659 C.ar    1  UNL1        0.1412
     16 N           5.4899   -1.2485   23.2143 N.ar    1  UNL1       -0.2025
     17 C           4.8468   -2.5805   22.9651 C.ar    1  UNL1        0.2852
     18 O           3.7483   -2.3846   21.9626 O.2     1  UNL1       -0.4295
     19 O           0.5738    3.6188   21.5134 O.2     1  UNL1       -0.2747
     20 C          -0.7245    2.8949   21.3128 C.2     1  UNL1        0.2267
     21 N          -0.7418    1.5628   20.6236 N.am    1  UNL1       -0.2681
     22 H          -1.5940    1.0876   20.4920 H       1  UNL1        0.1563
     23 C          -2.0057    3.5032   21.8016 C.3     1  UNL1        0.0769
     24 C          -3.4959    3.6443   21.7065 C.3     1  UNL1        0.0096
     25 C          -2.7343    4.4155   22.7432 C.3     1  UNL1        0.0096
@<TRIPOS>BOND
     1    19    20    2
     2    20    21   am
     3    21     1    1
     4     1     2   ar
     5     2     3   ar
     6     3     4   ar
     7     4     7    1
     8     7     8   ar
     9     8     9   ar
    10     9    10   ar
    11    10    11   ar
    12    11    12   ar
    13    12    13    1
    14     4     5   ar
    15     5    14    1
    16    14    15   ar
    17    15    16   ar
    18    16    17   ar
    19    17    18   ar
    20     5     6   ar
    21    20    23    1
    22    23    24    1
    23    24    25    1
    24     6     1   ar
    25    25    23    1
    26    12     7   ar
    27    18    14   ar
    28    21    22    1
@<TRIPOS>MOLECULE
*****
 25 28 0 0 0
SMALL
GASTEIGER

@<TRIPOS>ATOM
      1 C           6.6895   -4.6581   24.8138 C.ar    1  UNL1        0.1536
      2 C           7.5403   -5.3410   23.7845 C.ar    1  UNL1        0.1332
      3 N           7.5317   -4.8585   22.3642 N.ar    1  UNL1       -0.2392
      4 C           6.6721   -3.6930   21.9733 C.ar    1  UNL1        0.1043
      5 C           5.8213   -3.0101   23.0027 C.ar    1  UNL1        0.1364
      6 N           5.8300   -3.4926   24.4229 N.ar    1  UNL1       -0.2243
      7 C           6.6635   -3.2105   20.5530 C.ar    1  UNL1        0.0498
      8 C           7.7927   -2.3665   20.0408 C.ar    1  UNL1        0.0245
      9 C           7.7841   -1.8840   18.6206 C.ar    1  UNL1        0.0991
     10 N           6.6462   -2.2455   17.7125 N.ar    1  UNL1       -0.2400
     11 C           5.5170   -3.0896   18.2247 C.ar    1  UNL1        0.1285
     12 C           5.5256   -3.5721   19.6450 C.ar    1  UNL1        0.1606
     13 F           4.3964   -4.4162   20.1572 F       1  UNL1       -0.2025
     14 C           4.9617   -1.8446   22.6118 C.ar    1  UNL1        0.1854
     15 C           5.3538   -0.3982   22.6786 C.ar    1  UNL1        0.1412
     16 N           4.1936    0.4195   22.1936 N.ar    1  UNL1       -0.2025
     17 C           3.0844   -0.5215   21.8269 C.ar    1  UNL1        0.2852
     18 O           3.5592   -1.9207   22.0853 O.2     1  UNL1       -0.4295
     19 O           8.4330   -3.3061   26.8467 O.2     1  UNL1       -0.2747
     20 C           7.5699   -4.4646   27.2505 C.2     1  UNL1        0.2267
     21 N           6.6982   -5.1406   26.2341 N.am    1  UNL1       -0.2681
     22 H           6.1317   -5.9009   26.4991 H       1  UNL1        0.1563
     23 C           7.5785   -4.9471   28.6708 C.3     1  UNL1        0.0769
     24 C           6.8409   -5.4469   29.8774 C.3     1  UNL1        0.0096
     25 C           8.3311   -5.2830   29.9241 C.3     1  UNL1        0.0096
@<TRIPOS>BOND
     1    19    20    2
     2    20    21   am
     3    21     1    1
     4     1     2   ar
     5     2     3   ar
     6     3     4   ar
     7     4     7    1
     8     7     8   ar
     9     8     9   ar
    10     9    10   ar
    11    10    11   ar
    12    11    12   ar
    13    12    13    1
    14     4     5   ar
    15     5    14    1
    16    14    15   ar
    17    15    16   ar
    18    16    17   ar
    19    17    18   ar
    20     5     6   ar
    21    20    23    1
    22    23    24    1
    23    24    25    1
    24     6     1   ar
    25    25    23    1
    26    12     7   ar
    27    18    14   ar
    28    21    22    1
@<TRIPOS>MOLECULE
*****
 25 28 0 0 0
SMALL
GASTEIGER

@<TRIPOS>ATOM
      1 C           4.0833   -1.6635   24.6338 C.ar    1  UNL1        0.1536
      2 C           5.3802   -2.3395   24.3009 C.ar    1  UNL1        0.1332
      3 N           5.8761   -2.3550   22.8854 N.ar    1  UNL1       -0.2392
      4 C           5.0751   -1.6944   21.8028 C.ar    1  UNL1        0.1043
      5 C           3.7782   -1.0184   22.1357 C.ar    1  UNL1        0.1364
      6 N           3.2822   -1.0030   23.5512 N.ar    1  UNL1       -0.2243
      7 C           5.5711   -1.7099   20.3872 C.ar    1  UNL1        0.0498
      8 C           6.5592   -0.6792   19.9274 C.ar    1  UNL1        0.0245
      9 C           7.0552   -0.6946   18.5119 C.ar    1  UNL1        0.0991
     10 N           6.5632   -1.7408   17.5561 N.ar    1  UNL1       -0.2400
     11 C           5.5751   -2.7715   18.0159 C.ar    1  UNL1        0.1285
     12 C           5.0791   -2.7560   19.4315 C.ar    1  UNL1        0.1606
     13 F           4.0911   -3.7867   19.8913 F       1  UNL1       -0.2025
     14 C           2.9772   -0.3578   21.0531 C.ar    1  UNL1        0.1854
     15 C           1.8200   -0.9653   20.3170 C.ar    1  UNL1        0.1412
     16 N           1.3203    0.0432   19.3254 N.ar    1  UNL1       -0.2025
     17 C           2.1687    1.2741   19.4487 C.ar    1  UNL1        0.2852
     18 O           3.1927    1.0262   20.5164 O.2     1  UNL1       -0.4295
     19 O           4.2020    0.8692   26.2373 O.2     1  UNL1       -0.2747
     20 C           3.6466   -0.3817   26.8511 C.2     1  UNL1        0.2267
     21 N           3.5872   -1.6480   26.0494 N.am    1  UNL1       -0.2681
     22 H           3.2227   -2.4690   26.4523 H       1  UNL1        0.1563
     23 C           3.1506   -0.3662   28.2667 C.3     1  UNL1        0.0769
     24 C           2.0133   -0.3550   29.2446 C.3     1  UNL1        0.0096
     25 C           3.4289   -0.3506   29.7406 C.3     1  UNL1        0.0096
@<TRIPOS>BOND
     1    19    20    2
     2    20    21   am
     3    21     1    1
     4     1     2   ar
     5     2     3   ar
     6     3     4   ar
     7     4     7    1
     8     7     8   ar
     9     8     9   ar
    10     9    10   ar
    11    10    11   ar
    12    11    12   ar
    13    12    13    1
    14     4     5   ar
    15     5    14    1
    16    14    15   ar
    17    15    16   ar
    18    16    17   ar
    19    17    18   ar
    20     5     6   ar
    21    20    23    1
    22    23    24    1
    23    24    25    1
    24     6     1   ar
    25    25    23    1
    26    12     7   ar
    27    18    14   ar
    28    21    22    1
@<TRIPOS>MOLECULE
*****
 25 28 0 0 0
SMALL
GASTEIGER

@<TRIPOS>ATOM
      1 C           2.6176    2.5162   35.1690 C.ar    1  UNL1        0.1536
      2 C           3.7966    1.9133   35.8735 C.ar    1  UNL1        0.1332
      3 N           4.6558    0.9052   35.1696 N.ar    1  UNL1       -0.2392
      4 C           4.3361    0.5001   33.7612 C.ar    1  UNL1        0.1043
      5 C           3.1571    1.1030   33.0567 C.ar    1  UNL1        0.1364
      6 N           2.2979    2.1111   33.7605 N.ar    1  UNL1       -0.2243
      7 C           5.1954   -0.5080   33.0574 C.ar    1  UNL1        0.0498
      8 C           6.2895   -0.0502   32.1391 C.ar    1  UNL1        0.0245
      9 C           7.1488   -1.0582   31.4352 C.ar    1  UNL1        0.0991
     10 N           6.9140   -2.5242   31.6496 N.ar    1  UNL1       -0.2400
     11 C           5.8198   -2.9820   32.5679 C.ar    1  UNL1        0.1285
     12 C           4.9605   -1.9739   33.2718 C.ar    1  UNL1        0.1606
     13 F           3.8664   -2.4317   34.1901 F       1  UNL1       -0.2025
     14 C           2.8374    0.6979   31.6483 C.ar    1  UNL1        0.1854
     15 C           2.9799    1.5598   30.4289 C.ar    1  UNL1        0.1412
     16 N           2.5496    0.7543   29.2390 N.ar    1  UNL1       -0.2025
     17 C           2.1410   -0.6054   29.7228 C.ar    1  UNL1        0.2852
     18 O           2.3189   -0.6403   31.2119 O.2     1  UNL1       -0.4295
     19 O           2.7497    5.4088   34.3843 O.2     1  UNL1       -0.2747
     20 C           1.8244    4.9706   35.4805 C.2     1  UNL1        0.2267
     21 N           1.7583    3.5244   35.8728 N.am    1  UNL1       -0.2681
     22 H           1.1509    3.2368   36.5923 H       1  UNL1        0.1563
     23 C           0.9651    5.9787   36.1843 C.3     1  UNL1        0.0769
     24 C          -0.3918    6.4658   36.5986 C.3     1  UNL1        0.0096
     25 C           0.8336    7.2377   36.9891 C.3     1  UNL1        0.0096
@<TRIPOS>BOND
     1    19    20    2
     2    20    21   am
     3    21     1    1
     4     1     2   ar
     5     2     3   ar
     6     3     4   ar
     7     4     7    1
     8     7     8   ar
     9     8     9   ar
    10     9    10   ar
    11    10    11   ar
    12    11    12   ar
    13    12    13    1
    14     4     5   ar
    15     5    14    1
    16    14    15   ar
    17    15    16   ar
    18    16    17   ar
    19    17    18   ar
    20     5     6   ar
    21    20    23    1
    22    23    24    1
    23    24    25    1
    24     6     1   ar
    25    25    23    1
    26    12     7   ar
    27    18    14   ar
    28    21    22    1
