@<TRIPOS>MOLECULE
*****
 41 44 0 0 0
SMALL
GASTEIGER

@<TRIPOS>ATOM
      1 C         -15.3703   -7.6581   18.2814 C.2     1  UNL1        0.2558
      2 O         -14.2352   -7.8551   17.3209 O.2     1  UNL1       -0.2721
      3 N         -16.0700   -6.3333   18.3540 N.am    1  UNL1       -0.2773
      4 C         -17.2051   -6.1362   19.3145 C.3     1  UNL1        0.0952
      5 C         -17.9048   -4.8114   19.3871 C.3     1  UNL1        0.0412
      6 C         -17.4694   -3.6836   18.4991 C.3     1  UNL1        0.0777
      7 C         -16.3343   -3.8807   17.5386 C.3     1  UNL1        0.0539
      8 C         -15.6346   -5.2055   17.4660 C.3     1  UNL1        0.0965
      9 N         -18.1691   -2.3588   18.5717 N.am    1  UNL1       -0.2901
     10 C         -17.6027   -1.2568   19.4170 C.2     1  UNL1        0.3058
     11 O         -16.3364   -1.4795   20.1897 O.2     1  UNL1       -0.2524
     12 N         -18.3024    0.0680   19.4895 N.am    1  UNL1       -0.2485
     13 H         -19.0002   -2.2126   18.0645 H       1  UNL1        0.1509
     14 H         -19.1335    0.2142   18.9824 H       1  UNL1        0.1583
     15 C         -17.7359    1.1701   20.3349 C.ar    1  UNL1        0.1664
     16 N         -17.9211    1.3303   21.8147 N.ar    1  UNL1       -0.2282
     17 C         -17.1844    2.5647   22.2432 C.ar    1  UNL1        0.0701
     18 C         -17.1025    3.1020   23.6412 C.3     1  UNL1        0.0528
     19 C         -16.5438    3.1674   21.0280 C.ar    1  UNL1        0.0803
     20 S         -16.8847    2.3056   19.8487 S.2     1  UNL1       -0.0488
     21 C         -15.7090    4.4133   20.9977 C.2     1  UNL1        0.1807
     22 C         -16.2169    5.6396   20.2989 C.3     1  UNL1        0.0779
     23 O         -14.3663    4.4329   21.6660 O.2     1  UNL1       -0.2908
     24 C         -15.8056   -8.7858   19.1694 C.3     1  UNL1        0.2272
     25 C         -17.0801  -10.9682   18.5667 C.3     1  UNL1        0.1748
     26 O         -15.7983  -10.1937   18.6519 O.3     1  UNL1       -0.3417
     27 C         -15.8989   -2.7529   16.6505 C.3     1  UNL1        0.0754
     28 N         -14.8559   -1.7848   17.1246 N.3     1  UNL1       -0.2726
     29 C         -15.1259   -0.3099   17.0799 C.3     1  UNL1        0.0721
     30 C         -14.0827    0.6582   17.5540 C.3     1  UNL1        0.0174
     31 C         -12.7697    0.1515   18.0727 C.3     1  UNL1        0.0031
     32 C         -12.4997   -1.3233   18.1174 C.3     1  UNL1        0.0204
     33 C         -13.5427   -2.2915   17.6433 C.3     1  UNL1        0.0724
     34 C         -11.1866   -1.8301   18.6361 C.3     1  UNL1        0.0277
     35 C         -10.7971   -3.2624   18.4198 C.ar    1  UNL1       -0.0220
     36 C         -11.4616   -4.3483   19.2131 C.ar    1  UNL1       -0.0020
     37 C         -11.0722   -5.7806   18.9968 C.ar    1  UNL1        0.0293
     38 C         -10.0183   -6.1270   17.9873 C.ar    1  UNL1        0.1401
     39 F          -9.6288   -7.5594   17.7711 F       1  UNL1       -0.2042
     40 C          -9.3538   -5.0411   17.1941 C.ar    1  UNL1        0.0293
     41 C          -9.7432   -3.6088   17.4103 C.ar    1  UNL1       -0.0020
@<TRIPOS>BOND
     1    25    26    1
     2    26    24    1
     3    24     1    1
     4     1     2    2
     5     1     3   am
     6     3     4    1
     7     4     5    1
     8     5     6    1
     9     6     9    1
    10     9    10   am
    11    10    11    2
    12    10    12   am
    13    12    15    1
    14    15    16   ar
    15    16    17   ar
    16    17    18    1
    17    17    19   ar
    18    19    21    1
    19    21    22    1
    20    21    23    2
    21    19    20   ar
    22     6     7    1
    23     7    27    1
    24    27    28    1
    25    28    29    1
    26    29    30    1
    27    30    31    1
    28    31    32    1
    29    32    34    1
    30    34    35    1
    31    35    36   ar
    32    36    37   ar
    33    37    38   ar
    34    38    39    1
    35    38    40   ar
    36    40    41   ar
    37    32    33    1
    38     7     8    1
    39     8     3    1
    40    20    15   ar
    41    33    28    1
    42    41    35   ar
    43     9    13    1
    44    12    14    1
@<TRIPOS>MOLECULE
*****
 41 44 0 0 0
SMALL
GASTEIGER

@<TRIPOS>ATOM
      1 C           4.1641    2.6110   38.4826 C.2     1  UNL1        0.2558
      2 O           4.1872    1.4826   39.4706 O.2     1  UNL1       -0.2721
      3 N           4.2336    2.3221   37.0123 N.am    1  UNL1       -0.2773
      4 C           4.2105    3.4505   36.0244 C.3     1  UNL1        0.0952
      5 C           4.2799    3.1617   34.5541 C.3     1  UNL1        0.0412
      6 C           4.3725    1.7444   34.0718 C.3     1  UNL1        0.0777
      7 C           4.3956    0.6160   35.0597 C.3     1  UNL1        0.0539
      8 C           4.3261    0.9048   36.5300 C.3     1  UNL1        0.0965
      9 N           4.4419    1.4555   32.6015 N.am    1  UNL1       -0.2901
     10 C           3.1790    1.3003   31.8072 C.2     1  UNL1        0.3058
     11 O           1.8466    1.4339   32.4832 O.2     1  UNL1       -0.2524
     12 N           3.2484    1.0114   30.3369 N.am    1  UNL1       -0.2485
     13 H           5.3164    1.3678   32.1578 H       1  UNL1        0.1509
     14 H           4.1229    0.9237   29.8932 H       1  UNL1        0.1583
     15 C           1.9855    0.8561   29.5426 C.ar    1  UNL1        0.1664
     16 N           0.8733   -0.1072   29.8342 N.ar    1  UNL1       -0.2282
     17 C          -0.1866    0.0783   28.7891 C.ar    1  UNL1        0.0701
     18 C          -1.4770   -0.6809   28.6975 C.3     1  UNL1        0.0528
     19 C           0.2706    1.1563   27.8515 C.ar    1  UNL1        0.0803
     20 S           1.6130    1.6370   28.3173 S.2     1  UNL1       -0.0488
     21 C          -0.4824    1.6644   26.6579 C.2     1  UNL1        0.1807
     22 C          -1.5537    2.6998   26.8320 C.3     1  UNL1        0.0779
     23 O          -0.1642    1.1370   25.2902 O.2     1  UNL1       -0.2908
     24 C           4.0716    4.0283   38.9650 C.3     1  UNL1        0.2272
     25 C           4.6502    4.7074   41.4051 C.3     1  UNL1        0.1748
     26 O           3.6363    4.3150   40.3715 O.3     1  UNL1       -0.3417
     27 C           4.4881   -0.8014   34.5774 C.3     1  UNL1        0.0754
     28 N           5.7305   -1.2786   33.8855 N.3     1  UNL1       -0.2726
     29 C           7.0151   -0.5204   34.0434 C.3     1  UNL1        0.0721
     30 C           8.2575   -0.9977   33.3514 C.3     1  UNL1        0.0174
     31 C           8.2153   -2.2331   32.5017 C.3     1  UNL1        0.0031
     32 C           6.9306   -2.9912   32.3439 C.3     1  UNL1        0.0204
     33 C           5.6883   -2.5140   33.0358 C.3     1  UNL1        0.0724
     34 C           6.8884   -4.2266   31.4942 C.3     1  UNL1        0.0277
     35 C           6.7721   -4.1079   30.0034 C.ar    1  UNL1       -0.0220
     36 C           6.6405   -5.3419   29.1608 C.ar    1  UNL1       -0.0020
     37 C           6.5242   -5.2232   27.6700 C.ar    1  UNL1        0.0293
     38 C           6.5394   -3.8706   27.0219 C.ar    1  UNL1        0.1401
     39 F           6.4231   -3.7519   25.5311 F       1  UNL1       -0.2042
     40 C           6.6709   -2.6366   27.8645 C.ar    1  UNL1        0.0293
     41 C           6.7873   -2.7552   29.3553 C.ar    1  UNL1       -0.0020
@<TRIPOS>BOND
     1    25    26    1
     2    26    24    1
     3    24     1    1
     4     1     2    2
     5     1     3   am
     6     3     4    1
     7     4     5    1
     8     5     6    1
     9     6     9    1
    10     9    10   am
    11    10    11    2
    12    10    12   am
    13    12    15    1
    14    15    16   ar
    15    16    17   ar
    16    17    18    1
    17    17    19   ar
    18    19    21    1
    19    21    22    1
    20    21    23    2
    21    19    20   ar
    22     6     7    1
    23     7    27    1
    24    27    28    1
    25    28    29    1
    26    29    30    1
    27    30    31    1
    28    31    32    1
    29    32    34    1
    30    34    35    1
    31    35    36   ar
    32    36    37   ar
    33    37    38   ar
    34    38    39    1
    35    38    40   ar
    36    40    41   ar
    37    32    33    1
    38     7     8    1
    39     8     3    1
    40    20    15   ar
    41    33    28    1
    42    41    35   ar
    43     9    13    1
    44    12    14    1
@<TRIPOS>MOLECULE
*****
 41 44 0 0 0
SMALL
GASTEIGER

@<TRIPOS>ATOM
      1 C           1.0074    1.2243   29.8636 C.2     1  UNL1        0.2558
      2 O          -0.4375    0.9112   30.1165 O.2     1  UNL1       -0.2721
      3 N           1.4995    1.4122   28.4592 N.am    1  UNL1       -0.2773
      4 C           2.9445    1.7253   28.2063 C.3     1  UNL1        0.0952
      5 C           3.4365    1.9133   26.8018 C.3     1  UNL1        0.0412
      6 C           2.4836    1.7881   25.6502 C.3     1  UNL1        0.0777
      7 C           1.0387    1.4750   25.9031 C.3     1  UNL1        0.0539
      8 C           0.5466    1.2871   27.3075 C.3     1  UNL1        0.0965
      9 N           2.9757    1.9760   24.2457 N.am    1  UNL1       -0.2901
     10 C           3.4026    0.7882   23.4353 C.2     1  UNL1        0.3058
     11 O           3.3375   -0.5876   24.0294 O.2     1  UNL1       -0.2524
     12 N           3.8947    0.9761   22.0309 N.am    1  UNL1       -0.2485
     13 H           3.0185    2.8790   23.8558 H       1  UNL1        0.1509
     14 H           3.9375    1.8791   21.6409 H       1  UNL1        0.1583
     15 C           4.3216   -0.2118   21.2205 C.ar    1  UNL1        0.1664
     16 N           3.4644   -1.3899   20.8639 N.ar    1  UNL1       -0.2282
     17 C           4.2937   -2.3363   20.0475 C.ar    1  UNL1        0.0701
     18 C           3.8340   -3.6461   19.4788 C.3     1  UNL1        0.0528
     19 C           5.6635   -1.7431   19.8994 C.ar    1  UNL1        0.0803
     20 S           5.6807   -0.4301   20.6244 S.2     1  UNL1       -0.0488
     21 C           6.8140   -2.3554   19.1568 C.2     1  UNL1        0.1807
     22 C           7.9344   -3.0050   19.9135 C.3     1  UNL1        0.0779
     23 O           6.8440   -2.3181   17.6576 O.2     1  UNL1       -0.2908
     24 C           1.9603    1.3495   31.0152 C.3     1  UNL1        0.2272
     25 C           3.3848   -0.8231   31.0469 C.3     1  UNL1        0.1748
     26 O           2.4393    0.1204   31.7294 O.3     1  UNL1       -0.3417
     27 C           0.0857    1.3498   24.7514 C.3     1  UNL1        0.0754
     28 N           0.0233    2.4267   23.7091 N.3     1  UNL1       -0.2726
     29 C          -0.0586    3.8664   24.1221 C.3     1  UNL1        0.0721
     30 C          -0.1210    4.9433   23.0797 C.3     1  UNL1        0.0174
     31 C          -0.1015    4.5804   21.6244 C.3     1  UNL1        0.0031
     32 C          -0.0196    3.1407   21.2114 C.3     1  UNL1        0.0204
     33 C           0.0428    2.0639   22.2537 C.3     1  UNL1        0.0724
     34 C          -0.0000    2.7779   19.7561 C.3     1  UNL1        0.0277
     35 C           1.2385    2.1915   19.1459 C.ar    1  UNL1       -0.0220
     36 C           2.5038    2.9957   19.0975 C.ar    1  UNL1       -0.0020
     37 C           3.7423    2.4094   18.4873 C.ar    1  UNL1        0.0293
     38 C           3.7155    1.0189   17.9256 C.ar    1  UNL1        0.1401
     39 F           4.9540    0.4325   17.3153 F       1  UNL1       -0.2042
     40 C           2.4502    0.2146   17.9740 C.ar    1  UNL1        0.0293
     41 C           1.2117    0.8009   18.5841 C.ar    1  UNL1       -0.0020
@<TRIPOS>BOND
     1    25    26    1
     2    26    24    1
     3    24     1    1
     4     1     2    2
     5     1     3   am
     6     3     4    1
     7     4     5    1
     8     5     6    1
     9     6     9    1
    10     9    10   am
    11    10    11    2
    12    10    12   am
    13    12    15    1
    14    15    16   ar
    15    16    17   ar
    16    17    18    1
    17    17    19   ar
    18    19    21    1
    19    21    22    1
    20    21    23    2
    21    19    20   ar
    22     6     7    1
    23     7    27    1
    24    27    28    1
    25    28    29    1
    26    29    30    1
    27    30    31    1
    28    31    32    1
    29    32    34    1
    30    34    35    1
    31    35    36   ar
    32    36    37   ar
    33    37    38   ar
    34    38    39    1
    35    38    40   ar
    36    40    41   ar
    37    32    33    1
    38     7     8    1
    39     8     3    1
    40    20    15   ar
    41    33    28    1
    42    41    35   ar
    43     9    13    1
    44    12    14    1
@<TRIPOS>MOLECULE
*****
 41 44 0 0 0
SMALL
GASTEIGER

@<TRIPOS>ATOM
      1 C          -5.1515    3.5325   18.5018 C.2     1  UNL1        0.2558
      2 O          -4.5256    3.3490   17.1511 O.2     1  UNL1       -0.2721
      3 N          -4.3037    3.9306   19.6735 N.am    1  UNL1       -0.2773
      4 C          -4.9296    4.1141   21.0242 C.3     1  UNL1        0.0952
      5 C          -4.0818    4.5121   22.1959 C.3     1  UNL1        0.0412
      6 C          -2.6081    4.7266   22.0168 C.3     1  UNL1        0.0777
      7 C          -1.9822    4.5431   20.6661 C.3     1  UNL1        0.0539
      8 C          -2.8300    4.1451   19.4944 C.3     1  UNL1        0.0965
      9 N          -1.7603    5.1246   23.1885 N.am    1  UNL1       -0.2901
     10 C          -1.2818    4.0832   24.1562 C.2     1  UNL1        0.3058
     11 O          -1.6510    2.6437   23.9522 O.2     1  UNL1       -0.2524
     12 N          -0.4340    4.4813   25.3278 N.am    1  UNL1       -0.2485
     13 H          -1.5179    6.0694   23.3223 H       1  UNL1        0.1509
     14 H          -0.1916    5.4260   25.4617 H       1  UNL1        0.1583
     15 C           0.0446    3.4398   26.2956 C.ar    1  UNL1        0.1664
     16 N           1.4431    2.9073   26.3976 N.ar    1  UNL1       -0.2282
     17 C           1.4714    1.8864   27.4962 C.ar    1  UNL1        0.0701
     18 C           2.6703    1.1017   27.9400 C.3     1  UNL1        0.0528
     19 C           0.0903    1.7879   28.0732 C.ar    1  UNL1        0.0803
     20 S          -0.7915    2.7480   27.3311 S.2     1  UNL1       -0.0488
     21 C          -0.3344    0.8875   29.1952 C.2     1  UNL1        0.1807
     22 C          -1.1359   -0.3466   28.9041 C.3     1  UNL1        0.0779
     23 O           0.0423    1.2212   30.6083 O.2     1  UNL1       -0.2908
     24 C          -6.6252    3.3180   18.6809 C.3     1  UNL1        0.2272
     25 C          -7.8137    5.5859   19.1216 C.3     1  UNL1        0.1748
     26 O          -7.5949    4.3806   18.2559 O.3     1  UNL1       -0.3417
     27 C          -0.5084    4.7576   20.4870 C.3     1  UNL1        0.0754
     28 N           0.4617    3.6988   20.9201 N.3     1  UNL1       -0.2726
     29 C           1.5584    4.0363   21.8863 C.3     1  UNL1        0.0721
     30 C           2.5285    2.9773   22.3194 C.3     1  UNL1        0.0174
     31 C           2.4020    1.5810   21.7864 C.3     1  UNL1        0.0031
     32 C           1.3054    1.2435   20.8202 C.3     1  UNL1        0.0204
     33 C           0.3353    2.3023   20.3871 C.3     1  UNL1        0.0724
     34 C           1.1789   -0.1528   20.2872 C.3     1  UNL1        0.0277
     35 C           2.3526   -0.8125   19.6259 C.ar    1  UNL1       -0.0220
     36 C           3.0172   -1.9887   20.2776 C.ar    1  UNL1       -0.0020
     37 C           4.1909   -2.6483   19.6164 C.ar    1  UNL1        0.0293
     38 C           4.7001   -2.1317   18.3035 C.ar    1  UNL1        0.1401
     39 F           5.8739   -2.7913   17.6422 F       1  UNL1       -0.2042
     40 C           4.0355   -0.9554   17.6518 C.ar    1  UNL1        0.0293
     41 C           2.8618   -0.2958   18.3130 C.ar    1  UNL1       -0.0020
@<TRIPOS>BOND
     1    25    26    1
     2    26    24    1
     3    24     1    1
     4     1     2    2
     5     1     3   am
     6     3     4    1
     7     4     5    1
     8     5     6    1
     9     6     9    1
    10     9    10   am
    11    10    11    2
    12    10    12   am
    13    12    15    1
    14    15    16   ar
    15    16    17   ar
    16    17    18    1
    17    17    19   ar
    18    19    21    1
    19    21    22    1
    20    21    23    2
    21    19    20   ar
    22     6     7    1
    23     7    27    1
    24    27    28    1
    25    28    29    1
    26    29    30    1
    27    30    31    1
    28    31    32    1
    29    32    34    1
    30    34    35    1
    31    35    36   ar
    32    36    37   ar
    33    37    38   ar
    34    38    39    1
    35    38    40   ar
    36    40    41   ar
    37    32    33    1
    38     7     8    1
    39     8     3    1
    40    20    15   ar
    41    33    28    1
    42    41    35   ar
    43     9    13    1
    44    12    14    1
@<TRIPOS>MOLECULE
*****
 41 44 0 0 0
SMALL
GASTEIGER

@<TRIPOS>ATOM
      1 C           2.2446    0.0357   30.1353 C.2     1  UNL1        0.2558
      2 O           2.4032   -1.1865   30.9902 O.2     1  UNL1       -0.2721
      3 N           3.1159    0.2256   28.9292 N.am    1  UNL1       -0.2773
      4 C           2.9572    1.4478   28.0742 C.3     1  UNL1        0.0952
      5 C           3.8285    1.6376   26.8681 C.3     1  UNL1        0.0412
      6 C           4.8584    0.6052   26.5168 C.3     1  UNL1        0.0777
      7 C           5.0171   -0.6170   27.3718 C.3     1  UNL1        0.0539
      8 C           4.1458   -0.8068   28.5779 C.3     1  UNL1        0.0965
      9 N           5.7297    0.7951   25.3107 N.am    1  UNL1       -0.2901
     10 C           5.2982    0.2519   23.9808 C.2     1  UNL1        0.3058
     11 O           3.9953   -0.4812   23.8570 O.2     1  UNL1       -0.2524
     12 N           6.1695    0.4417   22.7746 N.am    1  UNL1       -0.2485
     13 H           6.5848    1.2762   25.3919 H       1  UNL1        0.1509
     14 H           7.0246    0.9228   22.8558 H       1  UNL1        0.1583
     15 C           5.7379   -0.1015   21.4446 C.ar    1  UNL1        0.1664
     16 N           4.6917    0.4909   20.5477 N.ar    1  UNL1       -0.2282
     17 C           4.5840   -0.3740   19.3269 C.ar    1  UNL1        0.0701
     18 C           3.6591   -0.1511   18.1672 C.3     1  UNL1        0.0528
     19 C           5.5637   -1.5010   19.4693 C.ar    1  UNL1        0.0803
     20 S           6.2768   -1.3326   20.7782 S.2     1  UNL1       -0.0488
     21 C           5.7904   -2.6029   18.4772 C.2     1  UNL1        0.1807
     22 C           5.0387   -3.8945   18.6061 C.3     1  UNL1        0.0779
     23 O           6.7688   -2.4131   17.3561 O.2     1  UNL1       -0.2908
     24 C           1.2147    1.0681   30.4865 C.3     1  UNL1        0.2272
     25 C          -0.5568   -0.0056   28.9183 C.3     1  UNL1        0.1748
     26 O          -0.2184    0.8614   30.0947 O.3     1  UNL1       -0.3417
     27 C           6.0470   -1.6495   27.0205 C.3     1  UNL1        0.0754
     28 N           6.3350   -2.7747   27.9697 N.3     1  UNL1       -0.2726
     29 C           6.1713   -4.1961   27.5195 C.3     1  UNL1        0.0721
     30 C           6.4593   -5.3214   28.4688 C.3     1  UNL1        0.0174
     31 C           6.9111   -5.0251   29.8681 C.3     1  UNL1        0.0031
     32 C           7.0749   -3.6036   30.3182 C.3     1  UNL1        0.0204
     33 C           6.7868   -2.4784   29.3691 C.3     1  UNL1        0.0724
     34 C           7.5267   -3.3074   31.7175 C.3     1  UNL1        0.0277
     35 C           6.6862   -2.4427   32.6098 C.ar    1  UNL1       -0.0220
     36 C           5.2486   -2.7928   32.8558 C.ar    1  UNL1       -0.0020
     37 C           4.4082   -1.9282   33.7480 C.ar    1  UNL1        0.0293
     38 C           5.0054   -0.7134   34.3942 C.ar    1  UNL1        0.1401
     39 F           4.1650    0.1513   35.2865 F       1  UNL1       -0.2042
     40 C           6.4431   -0.3632   34.1481 C.ar    1  UNL1        0.0293
     41 C           7.2835   -1.2279   33.2559 C.ar    1  UNL1       -0.0020
@<TRIPOS>BOND
     1    25    26    1
     2    26    24    1
     3    24     1    1
     4     1     2    2
     5     1     3   am
     6     3     4    1
     7     4     5    1
     8     5     6    1
     9     6     9    1
    10     9    10   am
    11    10    11    2
    12    10    12   am
    13    12    15    1
    14    15    16   ar
    15    16    17   ar
    16    17    18    1
    17    17    19   ar
    18    19    21    1
    19    21    22    1
    20    21    23    2
    21    19    20   ar
    22     6     7    1
    23     7    27    1
    24    27    28    1
    25    28    29    1
    26    29    30    1
    27    30    31    1
    28    31    32    1
    29    32    34    1
    30    34    35    1
    31    35    36   ar
    32    36    37   ar
    33    37    38   ar
    34    38    39    1
    35    38    40   ar
    36    40    41   ar
    37    32    33    1
    38     7     8    1
    39     8     3    1
    40    20    15   ar
    41    33    28    1
    42    41    35   ar
    43     9    13    1
    44    12    14    1
@<TRIPOS>MOLECULE
*****
 41 44 0 0 0
SMALL
GASTEIGER

@<TRIPOS>ATOM
      1 C           2.0358    0.3140   30.1957 C.2     1  UNL1        0.2558
      2 O           2.2764   -0.4828   31.4436 O.2     1  UNL1       -0.2721
      3 N           2.9010    0.0981   28.9895 N.am    1  UNL1       -0.2773
      4 C           2.6604    0.8948   27.7417 C.3     1  UNL1        0.0952
      5 C           3.5256    0.6789   26.5355 C.3     1  UNL1        0.0412
      6 C           4.6313   -0.3337   26.5772 C.3     1  UNL1        0.0777
      7 C           4.8719   -1.1304   27.8250 C.3     1  UNL1        0.0539
      8 C           4.0068   -0.9146   29.0312 C.3     1  UNL1        0.0965
      9 N           5.4965   -0.5496   25.3710 N.am    1  UNL1       -0.2901
     10 C           4.8736   -0.9209   24.0580 C.2     1  UNL1        0.3058
     11 O           3.3855   -1.0764   23.9511 O.2     1  UNL1       -0.2524
     12 N           5.7388   -1.1368   22.8518 N.am    1  UNL1       -0.2485
     13 H           6.4732   -0.4476   25.4411 H       1  UNL1        0.1509
     14 H           6.7155   -1.0348   22.9219 H       1  UNL1        0.1583
     15 C           5.1158   -1.5081   21.5387 C.ar    1  UNL1        0.1664
     16 N           4.7313   -2.8916   21.1052 N.ar    1  UNL1       -0.2282
     17 C           4.1458   -2.7997   19.7272 C.ar    1  UNL1        0.0701
     18 C           3.6285   -3.9467   18.9107 C.3     1  UNL1        0.0528
     19 C           4.1686   -1.3593   19.3091 C.ar    1  UNL1        0.0803
     20 S           4.7681   -0.5611   20.4287 S.2     1  UNL1       -0.0488
     21 C           3.6780   -0.8130   18.0011 C.2     1  UNL1        0.1807
     22 C           2.5818    0.2107   17.9797 C.3     1  UNL1        0.0779
     23 O           4.2835   -1.2905   16.7144 O.2     1  UNL1       -0.2908
     24 C           0.9301    1.3266   30.1540 C.3     1  UNL1        0.2272
     25 C          -0.8403   -0.1092   28.9073 C.3     1  UNL1        0.1748
     26 O          -0.4910    0.8787   29.9807 O.3     1  UNL1       -0.3417
     27 C           5.9778   -2.1432   27.8668 C.3     1  UNL1        0.0754
     28 N           6.4879   -2.6426   29.1860 N.3     1  UNL1       -0.2726
     29 C           6.5359   -4.1162   29.4622 C.3     1  UNL1        0.0721
     30 C           7.0461   -4.6157   30.7815 C.3     1  UNL1        0.0174
     31 C           7.5082   -3.6416   31.8244 C.3     1  UNL1        0.0031
     32 C           7.4602   -2.1681   31.5481 C.3     1  UNL1        0.0204
     33 C           6.9501   -1.6686   30.2289 C.3     1  UNL1        0.0724
     34 C           7.9223   -1.1940   32.5909 C.3     1  UNL1        0.0277
     35 C           7.0283   -0.8512   33.7457 C.ar    1  UNL1       -0.0220
     36 C           7.6078   -0.2410   34.9874 C.ar    1  UNL1       -0.0020
     37 C           6.7139    0.1018   36.1421 C.ar    1  UNL1        0.0293
     38 C           5.2405   -0.1656   36.0550 C.ar    1  UNL1        0.1401
     39 F           4.3465    0.1773   37.2098 F       1  UNL1       -0.2042
     40 C           4.6610   -0.7757   34.8133 C.ar    1  UNL1        0.0293
     41 C           5.5549   -1.1185   33.6586 C.ar    1  UNL1       -0.0020
@<TRIPOS>BOND
     1    25    26    1
     2    26    24    1
     3    24     1    1
     4     1     2    2
     5     1     3   am
     6     3     4    1
     7     4     5    1
     8     5     6    1
     9     6     9    1
    10     9    10   am
    11    10    11    2
    12    10    12   am
    13    12    15    1
    14    15    16   ar
    15    16    17   ar
    16    17    18    1
    17    17    19   ar
    18    19    21    1
    19    21    22    1
    20    21    23    2
    21    19    20   ar
    22     6     7    1
    23     7    27    1
    24    27    28    1
    25    28    29    1
    26    29    30    1
    27    30    31    1
    28    31    32    1
    29    32    34    1
    30    34    35    1
    31    35    36   ar
    32    36    37   ar
    33    37    38   ar
    34    38    39    1
    35    38    40   ar
    36    40    41   ar
    37    32    33    1
    38     7     8    1
    39     8     3    1
    40    20    15   ar
    41    33    28    1
    42    41    35   ar
    43     9    13    1
    44    12    14    1
@<TRIPOS>MOLECULE
*****
 41 44 0 0 0
SMALL
GASTEIGER

@<TRIPOS>ATOM
      1 C          -4.0037    3.7650   23.8333 C.2     1  UNL1        0.2558
      2 O          -4.5560    4.2017   22.5089 O.2     1  UNL1       -0.2721
      3 N          -2.5272    3.5592   23.9993 N.am    1  UNL1       -0.2773
      4 C          -1.9750    3.1225   25.3238 C.3     1  UNL1        0.0952
      5 C          -0.4985    2.9167   25.4897 C.3     1  UNL1        0.0412
      6 C           0.4258    3.1476   24.3311 C.3     1  UNL1        0.0777
      7 C          -0.1264    3.5843   23.0067 C.3     1  UNL1        0.0539
      8 C          -1.6029    3.7901   22.8407 C.3     1  UNL1        0.0965
      9 N           1.9023    2.9418   24.4971 N.am    1  UNL1       -0.2901
     10 C           2.4857    1.5650   24.3786 C.2     1  UNL1        0.3058
     11 O           1.5925    0.3939   24.0942 O.2     1  UNL1       -0.2524
     12 N           3.9622    1.3592   24.5445 N.am    1  UNL1       -0.2485
     13 H           2.4886    3.7104   24.6837 H       1  UNL1        0.1509
     14 H           4.5484    2.1278   24.7312 H       1  UNL1        0.1583
     15 C           4.5455   -0.0177   24.4261 C.ar    1  UNL1        0.1664
     16 N           5.2152   -0.7890   25.5245 N.ar    1  UNL1       -0.2282
     17 C           5.6451   -2.1130   24.9656 C.ar    1  UNL1        0.0701
     18 C           6.3545   -3.1993   25.7184 C.3     1  UNL1        0.0528
     19 C           5.2411   -2.1599   23.5217 C.ar    1  UNL1        0.0803
     20 S           4.5616   -0.8649   23.1883 S.2     1  UNL1       -0.0488
     21 C           5.4756   -3.3013   22.5772 C.2     1  UNL1        0.1807
     22 C           6.7910   -3.4298   21.8680 C.3     1  UNL1        0.0779
     23 O           4.3946   -4.3143   22.3420 O.2     1  UNL1       -0.2908
     24 C          -4.9280    3.5341   24.9919 C.3     1  UNL1        0.2272
     25 C          -4.6315    5.9696   25.8466 C.3     1  UNL1        0.1748
     26 O          -5.4243    4.6971   25.7988 O.3     1  UNL1       -0.3417
     27 C           0.7979    3.8152   21.8480 C.3     1  UNL1        0.0754
     28 N           0.8665    2.8149   20.7323 N.3     1  UNL1       -0.2726
     29 C           0.4194    3.1983   19.3528 C.3     1  UNL1        0.0721
     30 C           0.4880    2.1980   18.2371 C.3     1  UNL1        0.0174
     31 C           1.0035    0.8143   18.5010 C.3     1  UNL1        0.0031
     32 C           1.4505    0.4309   19.8806 C.3     1  UNL1        0.0204
     33 C           1.3820    1.4312   20.9962 C.3     1  UNL1        0.0724
     34 C           1.9661   -0.9527   20.1445 C.3     1  UNL1        0.0277
     35 C           3.2820   -1.3853   19.5688 C.ar    1  UNL1       -0.0220
     36 C           3.5241   -2.8320   19.2551 C.ar    1  UNL1       -0.0020
     37 C           4.8400   -3.2646   18.6795 C.ar    1  UNL1        0.0293
     38 C           5.9137   -2.2505   18.4175 C.ar    1  UNL1        0.1401
     39 F           7.2296   -2.6831   17.8418 F       1  UNL1       -0.2042
     40 C           5.6715   -0.8038   18.7311 C.ar    1  UNL1        0.0293
     41 C           4.3557   -0.3712   19.3068 C.ar    1  UNL1       -0.0020
@<TRIPOS>BOND
     1    25    26    1
     2    26    24    1
     3    24     1    1
     4     1     2    2
     5     1     3   am
     6     3     4    1
     7     4     5    1
     8     5     6    1
     9     6     9    1
    10     9    10   am
    11    10    11    2
    12    10    12   am
    13    12    15    1
    14    15    16   ar
    15    16    17   ar
    16    17    18    1
    17    17    19   ar
    18    19    21    1
    19    21    22    1
    20    21    23    2
    21    19    20   ar
    22     6     7    1
    23     7    27    1
    24    27    28    1
    25    28    29    1
    26    29    30    1
    27    30    31    1
    28    31    32    1
    29    32    34    1
    30    34    35    1
    31    35    36   ar
    32    36    37   ar
    33    37    38   ar
    34    38    39    1
    35    38    40   ar
    36    40    41   ar
    37    32    33    1
    38     7     8    1
    39     8     3    1
    40    20    15   ar
    41    33    28    1
    42    41    35   ar
    43     9    13    1
    44    12    14    1
@<TRIPOS>MOLECULE
*****
 41 44 0 0 0
SMALL
GASTEIGER

@<TRIPOS>ATOM
      1 C           5.7961   -2.6196   31.5866 C.2     1  UNL1        0.2558
      2 O           5.0342   -2.8029   32.8656 O.2     1  UNL1       -0.2721
      3 N           5.3905   -1.5476   30.6190 N.am    1  UNL1       -0.2773
      4 C           6.1523   -1.3643   29.3400 C.3     1  UNL1        0.0952
      5 C           5.7467   -0.2923   28.3724 C.3     1  UNL1        0.0412
      6 C           4.5792    0.5965   28.6839 C.3     1  UNL1        0.0777
      7 C           3.8174    0.4132   29.9629 C.3     1  UNL1        0.0539
      8 C           4.2230   -0.6588   30.9305 C.3     1  UNL1        0.0965
      9 N           4.1736    1.6685   27.7163 N.am    1  UNL1       -0.2901
     10 C           3.6968    1.2982   26.3432 C.2     1  UNL1        0.3058
     11 O           3.6255   -0.1442   25.9376 O.2     1  UNL1       -0.2524
     12 N           3.2911    2.3702   25.3756 N.am    1  UNL1       -0.2485
     13 H           4.2203    2.6152   27.9825 H       1  UNL1        0.1509
     14 H           3.3379    3.3169   25.6418 H       1  UNL1        0.1583
     15 C           2.8143    1.9998   24.0025 C.ar    1  UNL1        0.1664
     16 N           3.6762    1.5413   22.8637 N.ar    1  UNL1       -0.2282
     17 C           2.7864    1.2810   21.6845 C.ar    1  UNL1        0.0701
     18 C           3.2305    0.8064   20.3326 C.3     1  UNL1        0.0528
     19 C           1.3745    1.5787   22.0945 C.ar    1  UNL1        0.0803
     20 S           1.3918    2.0230   23.5270 S.2     1  UNL1       -0.0488
     21 C           0.1589    1.4541   21.2246 C.2     1  UNL1        0.1807
     22 C          -0.6595    2.6688   20.9010 C.3     1  UNL1        0.0779
     23 O          -0.2383    0.1148   20.6783 O.2     1  UNL1       -0.2908
     24 C           6.9636   -3.5084   31.2752 C.3     1  UNL1        0.2272
     25 C           7.3669   -5.7943   30.1081 C.3     1  UNL1        0.1748
     26 O           6.7837   -4.9971   31.2371 O.3     1  UNL1       -0.3417
     27 C           2.6498    1.3020   30.2744 C.3     1  UNL1        0.0754
     28 N           1.4273    1.2662   29.4060 N.3     1  UNL1       -0.2726
     29 C           0.6780   -0.0197   29.2184 C.3     1  UNL1        0.0721
     30 C          -0.5446   -0.0554   28.3499 C.3     1  UNL1        0.0174
     31 C          -1.0178    1.1946   27.6692 C.3     1  UNL1        0.0031
     32 C          -0.2686    2.4804   27.8569 C.3     1  UNL1        0.0204
     33 C           0.9540    2.5162   28.7252 C.3     1  UNL1        0.0724
     34 C          -0.7418    3.7304   27.1762 C.3     1  UNL1        0.0277
     35 C          -1.9780    3.7000   26.3270 C.ar    1  UNL1       -0.0220
     36 C          -1.8813    3.3388   24.8744 C.ar    1  UNL1       -0.0020
     37 C          -3.1174    3.3083   24.0252 C.ar    1  UNL1        0.0293
     38 C          -4.4502    3.6391   24.6287 C.ar    1  UNL1        0.1401
     39 F          -5.6864    3.6087   23.7796 F       1  UNL1       -0.2042
     40 C          -4.5469    4.0004   26.0813 C.ar    1  UNL1        0.0293
     41 C          -3.3108    4.0308   26.9305 C.ar    1  UNL1       -0.0020
@<TRIPOS>BOND
     1    25    26    1
     2    26    24    1
     3    24     1    1
     4     1     2    2
     5     1     3   am
     6     3     4    1
     7     4     5    1
     8     5     6    1
     9     6     9    1
    10     9    10   am
    11    10    11    2
    12    10    12   am
    13    12    15    1
    14    15    16   ar
    15    16    17   ar
    16    17    18    1
    17    17    19   ar
    18    19    21    1
    19    21    22    1
    20    21    23    2
    21    19    20   ar
    22     6     7    1
    23     7    27    1
    24    27    28    1
    25    28    29    1
    26    29    30    1
    27    30    31    1
    28    31    32    1
    29    32    34    1
    30    34    35    1
    31    35    36   ar
    32    36    37   ar
    33    37    38   ar
    34    38    39    1
    35    38    40   ar
    36    40    41   ar
    37    32    33    1
    38     7     8    1
    39     8     3    1
    40    20    15   ar
    41    33    28    1
    42    41    35   ar
    43     9    13    1
    44    12    14    1
@<TRIPOS>MOLECULE
*****
 41 44 0 0 0
SMALL
GASTEIGER

@<TRIPOS>ATOM
      1 C           1.5151    0.6176   27.6087 C.2     1  UNL1        0.2558
      2 O           2.9685    0.2798   27.4558 O.2     1  UNL1       -0.2721
      3 N           0.8811    1.6304   26.7019 N.am    1  UNL1       -0.2773
      4 C          -0.5723    1.9683   26.8547 C.3     1  UNL1        0.0952
      5 C          -1.2063    2.9810   25.9479 C.3     1  UNL1        0.0412
      6 C          -0.3869    3.6560   24.8882 C.3     1  UNL1        0.0777
      7 C           1.0665    3.3181   24.7354 C.3     1  UNL1        0.0539
      8 C           1.7005    2.3054   25.6422 C.3     1  UNL1        0.0965
      9 N          -1.0209    4.6688   23.9814 N.am    1  UNL1       -0.2901
     10 C          -1.7484    4.2204   22.7487 C.2     1  UNL1        0.3058
     11 O          -1.8420    2.7592   22.4228 O.2     1  UNL1       -0.2524
     12 N          -2.3824    5.2332   21.8419 N.am    1  UNL1       -0.2485
     13 H          -0.9595    5.6278   24.1953 H       1  UNL1        0.1509
     14 H          -2.3210    6.1922   22.0558 H       1  UNL1        0.1583
     15 C          -3.1100    4.7848   20.6091 C.ar    1  UNL1        0.1664
     16 N          -4.4916    4.2026   20.5635 N.ar    1  UNL1       -0.2282
     17 C          -4.8191    3.8979   19.1317 C.ar    1  UNL1        0.0701
     18 C          -6.1009    3.3036   18.6277 C.3     1  UNL1        0.0528
     19 C          -3.6398    4.2916   18.2925 C.ar    1  UNL1        0.0803
     20 S          -2.5836    4.8398   19.2056 S.2     1  UNL1       -0.0488
     21 C          -3.5353    4.1603   16.8019 C.2     1  UNL1        0.1807
     22 C          -3.0072    5.3012   15.9838 C.3     1  UNL1        0.0779
     23 O          -3.9588    2.8881   16.1295 O.2     1  UNL1       -0.2908
     24 C           0.6957   -0.0573   28.6684 C.3     1  UNL1        0.2272
     25 C           2.3710   -0.3042   30.6388 C.3     1  UNL1        0.1748
     26 O           1.0357    0.1366   30.1164 O.3     1  UNL1       -0.3417
     27 C           1.8860    3.9931   23.6756 C.3     1  UNL1        0.0754
     28 N           1.6154    3.7140   22.2269 N.3     1  UNL1       -0.2726
     29 C           1.6069    4.8393   21.2352 C.3     1  UNL1        0.0721
     30 C           1.3362    4.5601   19.7864 C.3     1  UNL1        0.0174
     31 C           1.0741    3.1557   19.3295 C.3     1  UNL1        0.0031
     32 C           1.0826    2.0304   20.3212 C.3     1  UNL1        0.0204
     33 C           1.3532    2.3095   21.7699 C.3     1  UNL1        0.0724
     34 C           0.8204    0.6259   19.8643 C.3     1  UNL1        0.0277
     35 C           1.9440   -0.2099   19.3266 C.ar    1  UNL1       -0.0220
     36 C           2.6299    0.1858   18.0526 C.ar    1  UNL1       -0.0020
     37 C           3.7534   -0.6500   17.5149 C.ar    1  UNL1        0.0293
     38 C           4.1909   -1.8814   18.2511 C.ar    1  UNL1        0.1401
     39 F           5.3145   -2.7173   17.7133 F       1  UNL1       -0.2042
     40 C           3.5050   -2.2771   19.5250 C.ar    1  UNL1        0.0293
     41 C           2.3815   -1.4413   20.0628 C.ar    1  UNL1       -0.0020
@<TRIPOS>BOND
     1    25    26    1
     2    26    24    1
     3    24     1    1
     4     1     2    2
     5     1     3   am
     6     3     4    1
     7     4     5    1
     8     5     6    1
     9     6     9    1
    10     9    10   am
    11    10    11    2
    12    10    12   am
    13    12    15    1
    14    15    16   ar
    15    16    17   ar
    16    17    18    1
    17    17    19   ar
    18    19    21    1
    19    21    22    1
    20    21    23    2
    21    19    20   ar
    22     6     7    1
    23     7    27    1
    24    27    28    1
    25    28    29    1
    26    29    30    1
    27    30    31    1
    28    31    32    1
    29    32    34    1
    30    34    35    1
    31    35    36   ar
    32    36    37   ar
    33    37    38   ar
    34    38    39    1
    35    38    40   ar
    36    40    41   ar
    37    32    33    1
    38     7     8    1
    39     8     3    1
    40    20    15   ar
    41    33    28    1
    42    41    35   ar
    43     9    13    1
    44    12    14    1
