@<TRIPOS>MOLECULE
*****
 20 21 0 0 0
SMALL
GASTEIGER

@<TRIPOS>ATOM
      1 C          -5.9512  -20.8895   20.6395 C.3     1  UNL1        0.0522
      2 C          -6.2799  -19.6077   21.3458 C.ar    1  UNL1        0.0624
      3 C          -7.5613  -18.8904   21.0404 C.ar    1  UNL1        0.0519
      4 C          -7.8900  -17.6085   21.7467 C.ar    1  UNL1        0.1452
      5 C          -6.9373  -17.0441   22.7585 C.ar    1  UNL1        0.0475
      6 C          -5.6559  -17.7615   23.0639 C.ar    1  UNL1        0.0985
      7 N          -5.3272  -19.0433   22.3576 N.ar    1  UNL1       -0.2482
      8 O          -9.1715  -16.8912   21.4412 O.3     1  UNL1       -0.4540
      9 C         -10.4310  -17.2644   22.1653 C.ar    1  UNL1        0.1413
     10 C         -10.3555  -17.9801   23.4814 C.ar    1  UNL1        0.0380
     11 C         -11.6149  -18.3534   24.2055 C.ar    1  UNL1        0.0145
     12 C         -12.9500  -18.0110   23.6136 C.ar    1  UNL1        0.0576
     13 CL        -14.2094  -18.3842   24.3377 Cl      1  UNL1       -0.0823
     14 C         -13.0255  -17.2953   22.2975 C.ar    1  UNL1        0.0101
     15 C         -11.7660  -16.9220   21.5734 C.ar    1  UNL1        0.0135
     16 C         -11.8416  -16.2063   20.2573 C.3     1  UNL1        0.0343
     17 C          -7.2660  -15.7623   23.4648 C.3     1  UNL1        0.1039
     18 N          -7.1567  -15.6797   24.9585 N.3     1  UNL1       -0.2664
     19 C          -8.3394  -16.0178   25.8169 C.3     1  UNL1        0.0899
     20 C          -5.8646  -15.2589   25.5938 C.3     1  UNL1        0.0899
@<TRIPOS>BOND
     1     1     2    1
     2     2     3   ar
     3     3     4   ar
     4     4     8    1
     5     8     9    1
     6     9    10   ar
     7    10    11   ar
     8    11    12   ar
     9    12    13    1
    10    12    14   ar
    11    14    15   ar
    12    15    16    1
    13     4     5   ar
    14     5    17    1
    15    17    18    1
    16    18    19    1
    17    18    20    1
    18     5     6   ar
    19     6     7   ar
    20     7     2   ar
    21    15     9   ar
@<TRIPOS>MOLECULE
*****
 20 21 0 0 0
SMALL
GASTEIGER

@<TRIPOS>ATOM
      1 C         -10.6095  -19.3853   19.8790 C.3     1  UNL1        0.0522
      2 C          -9.6870  -18.5716   20.7375 C.ar    1  UNL1        0.0624
      3 C          -8.4083  -19.1714   21.2423 C.ar    1  UNL1        0.0519
      4 C          -7.4858  -18.3577   22.1008 C.ar    1  UNL1        0.1452
      5 C          -7.8421  -16.9443   22.4544 C.ar    1  UNL1        0.0475
      6 C          -9.1208  -16.3445   21.9495 C.ar    1  UNL1        0.0985
      7 N         -10.0433  -17.1581   21.0911 N.ar    1  UNL1       -0.2482
      8 O          -6.2069  -18.9576   22.6056 O.3     1  UNL1       -0.4540
      9 C          -4.9422  -18.8031   21.8140 C.ar    1  UNL1        0.1413
     10 C          -4.8873  -19.2699   20.3895 C.ar    1  UNL1        0.0380
     11 C          -3.6226  -19.1154   19.5979 C.ar    1  UNL1        0.0145
     12 C          -2.4128  -18.4941   20.2308 C.ar    1  UNL1        0.0576
     13 CL         -1.1481  -18.3396   19.4392 Cl      1  UNL1       -0.0823
     14 C          -2.4677  -18.0274   21.6553 C.ar    1  UNL1        0.0101
     15 C          -3.7325  -18.1819   22.4469 C.ar    1  UNL1        0.0135
     16 C          -3.7874  -17.7151   23.8713 C.3     1  UNL1        0.0343
     17 C          -6.9196  -16.1306   23.3128 C.3     1  UNL1        0.1039
     18 N          -7.2184  -15.9480   24.7713 N.3     1  UNL1       -0.2664
     19 C          -8.5973  -16.2218   25.2944 C.3     1  UNL1        0.0899
     20 C          -6.1383  -15.4915   25.7068 C.3     1  UNL1        0.0899
@<TRIPOS>BOND
     1     1     2    1
     2     2     3   ar
     3     3     4   ar
     4     4     8    1
     5     8     9    1
     6     9    10   ar
     7    10    11   ar
     8    11    12   ar
     9    12    13    1
    10    12    14   ar
    11    14    15   ar
    12    15    16    1
    13     4     5   ar
    14     5    17    1
    15    17    18    1
    16    18    19    1
    17    18    20    1
    18     5     6   ar
    19     6     7   ar
    20     7     2   ar
    21    15     9   ar
@<TRIPOS>MOLECULE
*****
 20 21 0 0 0
SMALL
GASTEIGER

@<TRIPOS>ATOM
      1 C          -7.4765  -14.6944   24.4935 C.3     1  UNL1        0.0522
      2 C          -7.7358  -15.8527   23.5764 C.ar    1  UNL1        0.0624
      3 C          -6.7032  -16.9288   23.4169 C.ar    1  UNL1        0.0519
      4 C          -6.9625  -18.0871   22.4998 C.ar    1  UNL1        0.1452
      5 C          -8.2545  -18.1692   21.7422 C.ar    1  UNL1        0.0475
      6 C          -9.2871  -17.0931   21.9017 C.ar    1  UNL1        0.0985
      7 N          -9.0278  -15.9348   22.8188 N.ar    1  UNL1       -0.2482
      8 O          -5.9298  -19.1633   22.3402 O.3     1  UNL1       -0.4540
      9 C          -4.6747  -18.8895   21.5658 C.ar    1  UNL1        0.1413
     10 C          -4.6185  -19.1913   20.0975 C.ar    1  UNL1        0.0380
     11 C          -3.3635  -18.9175   19.3230 C.ar    1  UNL1        0.0145
     12 C          -2.1646  -18.3419   20.0167 C.ar    1  UNL1        0.0576
     13 CL         -0.9095  -18.0682   19.2423 Cl      1  UNL1       -0.0823
     14 C          -2.2207  -18.0402   21.4850 C.ar    1  UNL1        0.0101
     15 C          -3.4758  -18.3139   22.2595 C.ar    1  UNL1        0.0135
     16 C          -3.5319  -18.0121   23.7277 C.3     1  UNL1        0.0343
     17 C          -8.5138  -19.3275   20.8251 C.3     1  UNL1        0.1039
     18 N          -9.9175  -19.6575   20.4121 N.3     1  UNL1       -0.2664
     19 C         -10.3217  -19.5450   18.9720 C.3     1  UNL1        0.0899
     20 C         -10.9172  -20.1001   21.4393 C.3     1  UNL1        0.0899
@<TRIPOS>BOND
     1     1     2    1
     2     2     3   ar
     3     3     4   ar
     4     4     8    1
     5     8     9    1
     6     9    10   ar
     7    10    11   ar
     8    11    12   ar
     9    12    13    1
    10    12    14   ar
    11    14    15   ar
    12    15    16    1
    13     4     5   ar
    14     5    17    1
    15    17    18    1
    16    18    19    1
    17    18    20    1
    18     5     6   ar
    19     6     7   ar
    20     7     2   ar
    21    15     9   ar
@<TRIPOS>MOLECULE
*****
 20 21 0 0 0
SMALL
GASTEIGER

@<TRIPOS>ATOM
      1 C          -5.3976  -14.7641   25.9789 C.3     1  UNL1        0.0522
      2 C          -5.9389  -15.6315   24.8813 C.ar    1  UNL1        0.0624
      3 C          -5.1183  -16.7697   24.3511 C.ar    1  UNL1        0.0519
      4 C          -5.6595  -17.6371   23.2536 C.ar    1  UNL1        0.1452
      5 C          -7.0214  -17.3664   22.6862 C.ar    1  UNL1        0.0475
      6 C          -7.8420  -16.2282   23.2163 C.ar    1  UNL1        0.0985
      7 N          -7.3007  -15.3608   24.3139 N.ar    1  UNL1       -0.2482
      8 O          -4.8388  -18.7753   22.7234 O.3     1  UNL1       -0.4540
      9 C          -3.7663  -18.5170   21.7071 C.ar    1  UNL1        0.1413
     10 C          -2.7089  -17.4881   21.9775 C.ar    1  UNL1        0.0380
     11 C          -1.6364  -17.2298   20.9611 C.ar    1  UNL1        0.0145
     12 C          -1.6213  -18.0004   19.6743 C.ar    1  UNL1        0.0576
     13 CL         -0.5488  -17.7422   18.6580 Cl      1  UNL1       -0.0823
     14 C          -2.6787  -19.0294   19.4039 C.ar    1  UNL1        0.0101
     15 C          -3.7512  -19.2877   20.4202 C.ar    1  UNL1        0.0135
     16 C          -4.8086  -20.3166   20.1498 C.3     1  UNL1        0.0343
     17 C          -7.5626  -18.2338   21.5886 C.3     1  UNL1        0.1039
     18 N          -8.7363  -19.1301   21.8509 N.3     1  UNL1       -0.2664
     19 C          -9.8093  -19.2835   20.8140 C.3     1  UNL1        0.0899
     20 C          -8.8371  -19.8732   23.1500 C.3     1  UNL1        0.0899
@<TRIPOS>BOND
     1     1     2    1
     2     2     3   ar
     3     3     4   ar
     4     4     8    1
     5     8     9    1
     6     9    10   ar
     7    10    11   ar
     8    11    12   ar
     9    12    13    1
    10    12    14   ar
    11    14    15   ar
    12    15    16    1
    13     4     5   ar
    14     5    17    1
    15    17    18    1
    16    18    19    1
    17    18    20    1
    18     5     6   ar
    19     6     7   ar
    20     7     2   ar
    21    15     9   ar
@<TRIPOS>MOLECULE
*****
 20 21 0 0 0
SMALL
GASTEIGER

@<TRIPOS>ATOM
      1 C          -9.2964   -7.7021   18.9566 C.3     1  UNL1        0.0522
      2 C         -10.2312   -6.5427   18.7777 C.ar    1  UNL1        0.0624
      3 C         -11.6180   -6.7713   18.2538 C.ar    1  UNL1        0.0519
      4 C         -12.5527   -5.6118   18.0749 C.ar    1  UNL1        0.1452
      5 C         -12.1007   -4.2238   18.4199 C.ar    1  UNL1        0.0475
      6 C         -10.7139   -3.9953   18.9438 C.ar    1  UNL1        0.0985
      7 N          -9.7792   -5.1547   19.1227 N.ar    1  UNL1       -0.2482
      8 O         -13.9396   -5.8405   17.5509 O.3     1  UNL1       -0.4540
      9 C         -14.7409   -7.0121   18.0359 C.ar    1  UNL1        0.1413
     10 C         -14.4452   -8.3887   17.5186 C.ar    1  UNL1        0.0380
     11 C         -15.2465   -9.5603   18.0035 C.ar    1  UNL1        0.0145
     12 C         -16.3434   -9.3554   19.0059 C.ar    1  UNL1        0.0576
     13 CL        -17.1447  -10.5270   19.4908 Cl      1  UNL1       -0.0823
     14 C         -16.6391   -7.9789   19.5232 C.ar    1  UNL1        0.0101
     15 C         -15.8378   -6.8072   19.0382 C.ar    1  UNL1        0.0135
     16 C         -16.1335   -5.4307   19.5556 C.3     1  UNL1        0.0343
     17 C         -13.0355   -3.0644   18.2410 C.3     1  UNL1        0.1039
     18 N         -13.8408   -2.5641   19.4033 N.3     1  UNL1       -0.2664
     19 C         -14.8461   -1.4689   19.2032 C.3     1  UNL1        0.0899
     20 C         -13.6409   -3.1589   20.7658 C.3     1  UNL1        0.0899
@<TRIPOS>BOND
     1     1     2    1
     2     2     3   ar
     3     3     4   ar
     4     4     8    1
     5     8     9    1
     6     9    10   ar
     7    10    11   ar
     8    11    12   ar
     9    12    13    1
    10    12    14   ar
    11    14    15   ar
    12    15    16    1
    13     4     5   ar
    14     5    17    1
    15    17    18    1
    16    18    19    1
    17    18    20    1
    18     5     6   ar
    19     6     7   ar
    20     7     2   ar
    21    15     9   ar
@<TRIPOS>MOLECULE
*****
 20 21 0 0 0
SMALL
GASTEIGER

@<TRIPOS>ATOM
      1 C         -12.1554  -18.1654   21.2279 C.3     1  UNL1        0.0522
      2 C         -10.8284  -17.7414   21.7839 C.ar    1  UNL1        0.0624
      3 C          -9.7222  -18.7436   21.9314 C.ar    1  UNL1        0.0519
      4 C          -8.3951  -18.3195   22.4874 C.ar    1  UNL1        0.1452
      5 C          -8.1743  -16.8932   22.8959 C.ar    1  UNL1        0.0475
      6 C          -9.2806  -15.8910   22.7484 C.ar    1  UNL1        0.0985
      7 N         -10.6076  -16.3151   22.1924 N.ar    1  UNL1       -0.2482
      8 O          -7.2889  -19.3218   22.6348 O.3     1  UNL1       -0.4540
      9 C          -6.0193  -19.1581   21.8529 C.ar    1  UNL1        0.1413
     10 C          -4.7315  -18.8687   22.5656 C.ar    1  UNL1        0.0380
     11 C          -3.4620  -18.7050   21.7837 C.ar    1  UNL1        0.0145
     12 C          -3.4802  -18.8306   20.2891 C.ar    1  UNL1        0.0576
     13 CL         -2.2107  -18.6669   19.5072 Cl      1  UNL1       -0.0823
     14 C          -4.7679  -19.1199   19.5764 C.ar    1  UNL1        0.0101
     15 C          -6.0375  -19.2837   20.3583 C.ar    1  UNL1        0.0135
     16 C          -7.3253  -19.5730   19.6456 C.3     1  UNL1        0.0343
     17 C          -6.8473  -16.4692   23.4519 C.3     1  UNL1        0.1039
     18 N          -6.7634  -15.8894   24.8328 N.3     1  UNL1       -0.2664
     19 C          -5.4632  -15.3362   25.3362 C.3     1  UNL1        0.0899
     20 C          -7.9797  -15.8628   25.7102 C.3     1  UNL1        0.0899
@<TRIPOS>BOND
     1     1     2    1
     2     2     3   ar
     3     3     4   ar
     4     4     8    1
     5     8     9    1
     6     9    10   ar
     7    10    11   ar
     8    11    12   ar
     9    12    13    1
    10    12    14   ar
    11    14    15   ar
    12    15    16    1
    13     4     5   ar
    14     5    17    1
    15    17    18    1
    16    18    19    1
    17    18    20    1
    18     5     6   ar
    19     6     7   ar
    20     7     2   ar
    21    15     9   ar
@<TRIPOS>MOLECULE
*****
 20 21 0 0 0
SMALL
GASTEIGER

@<TRIPOS>ATOM
      1 C         -16.7469   -7.8065   19.6372 C.3     1  UNL1        0.0522
      2 C         -15.3963   -7.3644   19.1569 C.ar    1  UNL1        0.0624
      3 C         -14.7771   -6.1139   19.7070 C.ar    1  UNL1        0.0519
      4 C         -13.4265   -5.6718   19.2268 C.ar    1  UNL1        0.1452
      5 C         -12.6953   -6.4803   18.1965 C.ar    1  UNL1        0.0475
      6 C         -13.3146   -7.7308   17.6464 C.ar    1  UNL1        0.0985
      7 N         -14.6651   -8.1728   18.1266 N.ar    1  UNL1       -0.2482
      8 O         -12.8072   -4.4212   19.7770 O.3     1  UNL1       -0.4540
      9 C         -13.4396   -3.0886   19.5045 C.ar    1  UNL1        0.1413
     10 C         -14.8046   -2.7815   20.0456 C.ar    1  UNL1        0.0380
     11 C         -15.4369   -1.4489   19.7731 C.ar    1  UNL1        0.0145
     12 C         -14.7044   -0.4234   18.9597 C.ar    1  UNL1        0.0576
     13 CL        -15.3368    0.9092   18.6873 Cl      1  UNL1       -0.0823
     14 C         -13.3395   -0.7305   18.4187 C.ar    1  UNL1        0.0101
     15 C         -12.7071   -2.0631   18.6911 C.ar    1  UNL1        0.0135
     16 C         -11.3422   -2.3702   18.1501 C.3     1  UNL1        0.0343
     17 C         -11.3447   -6.0382   17.7162 C.3     1  UNL1        0.1039
     18 N         -10.1213   -6.3519   18.5254 N.3     1  UNL1       -0.2664
     19 C          -9.5759   -7.7491   18.5493 C.3     1  UNL1        0.0899
     20 C          -9.4433   -5.2686   19.3107 C.3     1  UNL1        0.0899
@<TRIPOS>BOND
     1     1     2    1
     2     2     3   ar
     3     3     4   ar
     4     4     8    1
     5     8     9    1
     6     9    10   ar
     7    10    11   ar
     8    11    12   ar
     9    12    13    1
    10    12    14   ar
    11    14    15   ar
    12    15    16    1
    13     4     5   ar
    14     5    17    1
    15    17    18    1
    16    18    19    1
    17    18    20    1
    18     5     6   ar
    19     6     7   ar
    20     7     2   ar
    21    15     9   ar
@<TRIPOS>MOLECULE
*****
 20 21 0 0 0
SMALL
GASTEIGER

@<TRIPOS>ATOM
      1 C          -8.8207  -15.4555   25.1219 C.3     1  UNL1        0.0522
      2 C          -8.7643  -16.3282   23.9033 C.ar    1  UNL1        0.0624
      3 C          -7.7868  -17.4641   23.8388 C.ar    1  UNL1        0.0519
      4 C          -7.7305  -18.3369   22.6202 C.ar    1  UNL1        0.1452
      5 C          -8.6516  -18.0738   21.4660 C.ar    1  UNL1        0.0475
      6 C          -9.6290  -16.9378   21.5304 C.ar    1  UNL1        0.0985
      7 N          -9.6854  -16.0651   22.7490 N.ar    1  UNL1       -0.2482
      8 O          -6.7529  -19.4729   22.5558 O.3     1  UNL1       -0.4540
      9 C          -5.3744  -19.2460   22.0097 C.ar    1  UNL1        0.1413
     10 C          -4.4687  -18.2388   22.6543 C.ar    1  UNL1        0.0380
     11 C          -3.0902  -18.0120   22.1082 C.ar    1  UNL1        0.0145
     12 C          -2.6173  -18.7923   20.9176 C.ar    1  UNL1        0.0576
     13 CL         -1.2388  -18.5655   20.3715 Cl      1  UNL1       -0.0823
     14 C          -3.5230  -19.7995   20.2731 C.ar    1  UNL1        0.0101
     15 C          -4.9015  -20.0264   20.8192 C.ar    1  UNL1        0.0135
     16 C          -5.8072  -21.0335   20.1747 C.3     1  UNL1        0.0343
     17 C          -8.5952  -18.9465   20.2473 C.3     1  UNL1        0.1039
     18 N          -9.8010  -19.7375   19.8349 N.3     1  UNL1       -0.2664
     19 C         -10.9734  -19.8564   20.7630 C.3     1  UNL1        0.0899
     20 C          -9.8345  -20.4098   18.4943 C.3     1  UNL1        0.0899
@<TRIPOS>BOND
     1     1     2    1
     2     2     3   ar
     3     3     4   ar
     4     4     8    1
     5     8     9    1
     6     9    10   ar
     7    10    11   ar
     8    11    12   ar
     9    12    13    1
    10    12    14   ar
    11    14    15   ar
    12    15    16    1
    13     4     5   ar
    14     5    17    1
    15    17    18    1
    16    18    19    1
    17    18    20    1
    18     5     6   ar
    19     6     7   ar
    20     7     2   ar
    21    15     9   ar
@<TRIPOS>MOLECULE
*****
 20 21 0 0 0
SMALL
GASTEIGER

@<TRIPOS>ATOM
      1 C          -5.4726  -14.8311   25.4845 C.3     1  UNL1        0.0522
      2 C          -6.6866  -15.5205   24.9361 C.ar    1  UNL1        0.0624
      3 C          -6.5415  -16.5411   23.8465 C.ar    1  UNL1        0.0519
      4 C          -7.7556  -17.2306   23.2981 C.ar    1  UNL1        0.1452
      5 C          -9.1147  -16.8995   23.8393 C.ar    1  UNL1        0.0475
      6 C          -9.2599  -15.8789   24.9289 C.ar    1  UNL1        0.0985
      7 N          -8.0458  -15.1894   25.4773 N.ar    1  UNL1       -0.2482
      8 O          -7.6104  -18.2513   22.2085 O.3     1  UNL1       -0.4540
      9 C          -6.2455  -18.7061   21.7839 C.ar    1  UNL1        0.1413
     10 C          -5.0781  -18.5422   22.7114 C.ar    1  UNL1        0.0380
     11 C          -3.7132  -18.9970   22.2868 C.ar    1  UNL1        0.0145
     12 C          -3.5158  -19.6158   20.9347 C.ar    1  UNL1        0.0576
     13 CL         -2.1509  -20.0706   20.5101 Cl      1  UNL1       -0.0823
     14 C          -4.6831  -19.7796   20.0072 C.ar    1  UNL1        0.0101
     15 C          -6.0481  -19.3248   20.4318 C.ar    1  UNL1        0.0135
     16 C          -7.2154  -19.4887   19.5042 C.3     1  UNL1        0.0343
     17 C         -10.3288  -17.5889   23.2909 C.3     1  UNL1        0.1039
     18 N         -11.0810  -16.9832   22.1432 N.3     1  UNL1       -0.2664
     19 C         -12.1643  -15.9788   22.4031 C.3     1  UNL1        0.0899
     20 C         -10.7499  -17.3820   20.7355 C.3     1  UNL1        0.0899
@<TRIPOS>BOND
     1     1     2    1
     2     2     3   ar
     3     3     4   ar
     4     4     8    1
     5     8     9    1
     6     9    10   ar
     7    10    11   ar
     8    11    12   ar
     9    12    13    1
    10    12    14   ar
    11    14    15   ar
    12    15    16    1
    13     4     5   ar
    14     5    17    1
    15    17    18    1
    16    18    19    1
    17    18    20    1
    18     5     6   ar
    19     6     7   ar
    20     7     2   ar
    21    15     9   ar
