@<TRIPOS>MOLECULE
*****
 37 39 0 0 0
SMALL
GASTEIGER

@<TRIPOS>ATOM
      1 C           7.2935   -4.2529   23.1368 C.ar    1  UNL1        0.0528
      2 C           6.6276   -3.7370   24.3779 C.ar    1  UNL1        0.0167
      3 C           6.8151   -4.4531   25.6825 C.ar    1  UNL1        0.0505
      4 C           7.6685   -5.6850   25.7460 C.ar    1  UNL1        0.0170
      5 C           8.3344   -6.2009   24.5049 C.ar    1  UNL1        0.0307
      6 C           8.1469   -5.4849   23.2003 C.ar    1  UNL1        0.1402
      7 F           8.8128   -6.0008   21.9591 F       1  UNL1       -0.2044
      8 C           8.4014   -2.9273   22.2800 C.3     1  UNL1        0.0607
      9 C           7.1060   -3.5368   21.8321 C.3     1  UNL1        0.2223
     10 C           5.8758   -4.3950   21.8373 C.3     1  UNL1        0.1959
     11 O           4.9080   -4.3256   20.6934 O.3     1  UNL1       -0.3357
     12 C           5.1704   -3.3978   19.5443 C.3     1  UNL1        0.2740
     13 C           4.9830   -2.6817   18.2397 C.3     1  UNL1        0.0512
     14 C           6.4006   -2.5396   19.5391 C.2     1  UNL1        0.3217
     15 N           6.6630   -1.6118   18.3899 N.pl3   1  UNL1       -0.2480
     16 N           7.3684   -2.6091   20.6830 N.2     1  UNL1       -0.0692
     17 H           6.0278   -1.5662   17.6392 H       1  UNL1        0.2882
     18 H           7.4704   -1.0485   18.3865 H       1  UNL1        0.2882
     19 C           3.8751   -4.0073   19.0964 C.3     1  UNL1        0.4305
     20 F           2.5797   -4.6169   18.6485 F       1  UNL1       -0.1670
     21 F           3.1194   -2.9246   19.8083 F       1  UNL1       -0.1670
     22 F           4.6307   -5.0900   18.3846 F       1  UNL1       -0.1670
     23 N           6.1493   -3.9372   26.9237 N.am    1  UNL1       -0.2791
     24 C           6.8571   -2.9441   27.7971 C.2     1  UNL1        0.2681
     25 O           8.2309   -2.4670   27.4293 O.2     1  UNL1       -0.2681
     26 H           5.2476   -4.2503   27.1651 H       1  UNL1        0.1552
     27 C           6.1913   -2.4282   29.0383 C.ar    1  UNL1        0.1455
     28 N           5.1658   -1.3378   28.9413 N.ar    1  UNL1       -0.2352
     29 C           4.5000   -0.8220   30.1826 C.ar    1  UNL1        0.1360
     30 C           4.8597   -1.3965   31.5207 C.ar    1  UNL1        0.1642
     31 C           5.8852   -2.4868   31.6176 C.ar    1  UNL1        0.0518
     32 C           6.5510   -3.0027   30.3765 C.ar    1  UNL1        0.0828
     33 CL          7.5765   -4.0931   30.4734 Cl      1  UNL1       -0.0804
     34 O           4.1939   -0.8806   32.7618 O.3     1  UNL1       -0.4220
     35 C           4.2594   -1.6739   34.0332 C.3     1  UNL1        0.5087
     36 F           3.8654   -3.1213   34.0352 F       1  UNL1       -0.1550
     37 F           4.7190   -1.0200   35.3024 F       1  UNL1       -0.1550
@<TRIPOS>BOND
     1     9     8    1
     2     9     1    1
     3     1     2   ar
     4     2     3   ar
     5     3    23    1
     6    23    24   am
     7    24    25    2
     8    24    27    1
     9    27    28   ar
    10    28    29   ar
    11    29    30   ar
    12    30    34    1
    13    34    35    1
    14    35    36    1
    15    35    37    1
    16    30    31   ar
    17    31    32   ar
    18    32    33    1
    19     3     4   ar
    20     4     5   ar
    21     5     6   ar
    22     6     7    1
    23     9    10    1
    24    10    11    1
    25    11    12    1
    26    12    13    1
    27    12    19    1
    28    19    20    1
    29    19    21    1
    30    19    22    1
    31    12    14    1
    32    14    15    1
    33    14    16    2
    34    16     9    1
    35     6     1   ar
    36    32    27   ar
    37    23    26    1
    38    15    17    1
    39    15    18    1
@<TRIPOS>MOLECULE
*****
 37 39 0 0 0
SMALL
GASTEIGER

@<TRIPOS>ATOM
      1 C           8.1355   -4.0940   22.2353 C.ar    1  UNL1        0.0528
      2 C           7.8879   -3.6798   23.6556 C.ar    1  UNL1        0.0167
      3 C           8.4571   -4.4891   24.7829 C.ar    1  UNL1        0.0505
      4 C           9.2740   -5.7126   24.4900 C.ar    1  UNL1        0.0170
      5 C           9.5216   -6.1268   23.0698 C.ar    1  UNL1        0.0307
      6 C           8.9524   -5.3175   21.9425 C.ar    1  UNL1        0.1402
      7 F           9.2000   -5.7317   20.5221 F       1  UNL1       -0.2044
      8 C           8.8432   -2.5351   21.3478 C.3     1  UNL1        0.0607
      9 C           7.5663   -3.2847   21.1079 C.3     1  UNL1        0.2223
     10 C           6.4871   -4.3153   21.2595 C.3     1  UNL1        0.1959
     11 O           5.2821   -4.2763   20.3671 O.3     1  UNL1       -0.3357
     12 C           5.1563   -3.2066   19.3230 C.3     1  UNL1        0.2740
     13 C           4.5872   -2.3973   18.1956 C.3     1  UNL1        0.0512
     14 C           6.2356   -2.1760   19.1714 C.2     1  UNL1        0.3217
     15 N           6.1098   -1.1064   18.1273 N.pl3   1  UNL1       -0.2480
     16 N           7.4406   -2.2150   20.0638 N.2     1  UNL1       -0.0692
     17 H           5.3190   -1.0808   17.5415 H       1  UNL1        0.2882
     18 H           6.8182   -0.4299   18.0278 H       1  UNL1        0.2882
     19 C           3.8794   -3.9562   19.0830 C.3     1  UNL1        0.4305
     20 F           2.6024   -4.7058   18.8431 F       1  UNL1       -0.1670
     21 F           3.1013   -2.8228   19.6831 F       1  UNL1       -0.1670
     22 F           4.6575   -5.0896   18.4830 F       1  UNL1       -0.1670
     23 N           8.2095   -4.0749   26.2032 N.am    1  UNL1       -0.2791
     24 C           7.2332   -4.8388   27.0478 C.2     1  UNL1        0.2681
     25 O           6.5046   -6.0169   26.4722 O.2     1  UNL1       -0.2681
     26 H           8.6877   -3.3018   26.5810 H       1  UNL1        0.1552
     27 C           6.9856   -4.4247   28.4681 C.ar    1  UNL1        0.1455
     28 N           6.3581   -3.0945   28.7629 N.ar    1  UNL1       -0.2352
     29 C           6.1105   -2.6805   30.1833 C.ar    1  UNL1        0.1360
     30 C           6.4903   -3.5965   31.3087 C.ar    1  UNL1        0.1642
     31 C           7.1178   -4.9267   31.0138 C.ar    1  UNL1        0.0518
     32 C           7.3654   -5.3408   29.5936 C.ar    1  UNL1        0.0828
     33 CL          7.9929   -6.6710   29.2987 Cl      1  UNL1       -0.0804
     34 O           6.2427   -3.1824   32.7289 O.3     1  UNL1       -0.4220
     35 C           4.9538   -2.5110   33.1005 C.3     1  UNL1        0.5087
     36 F           3.8987   -3.2734   33.8460 F       1  UNL1       -0.1550
     37 F           4.7201   -1.0773   32.7267 F       1  UNL1       -0.1550
@<TRIPOS>BOND
     1     9     8    1
     2     9     1    1
     3     1     2   ar
     4     2     3   ar
     5     3    23    1
     6    23    24   am
     7    24    25    2
     8    24    27    1
     9    27    28   ar
    10    28    29   ar
    11    29    30   ar
    12    30    34    1
    13    34    35    1
    14    35    36    1
    15    35    37    1
    16    30    31   ar
    17    31    32   ar
    18    32    33    1
    19     3     4   ar
    20     4     5   ar
    21     5     6   ar
    22     6     7    1
    23     9    10    1
    24    10    11    1
    25    11    12    1
    26    12    13    1
    27    12    19    1
    28    19    20    1
    29    19    21    1
    30    19    22    1
    31    12    14    1
    32    14    15    1
    33    14    16    2
    34    16     9    1
    35     6     1   ar
    36    32    27   ar
    37    23    26    1
    38    15    17    1
    39    15    18    1
@<TRIPOS>MOLECULE
*****
 37 39 0 0 0
SMALL
GASTEIGER

@<TRIPOS>ATOM
      1 C           2.0191    0.5887   20.4683 C.ar    1  UNL1        0.0528
      2 C           0.5882    0.8374   20.8434 C.ar    1  UNL1        0.0167
      3 C          -0.1901    1.9198   20.1559 C.ar    1  UNL1        0.0505
      4 C           0.4625    2.7535   19.0933 C.ar    1  UNL1        0.0170
      5 C           1.8934    2.5048   18.7182 C.ar    1  UNL1        0.0307
      6 C           2.6717    1.4224   19.4057 C.ar    1  UNL1        0.1402
      7 F           4.1026    1.1737   19.0306 F       1  UNL1       -0.2044
      8 C           2.5726    0.4384   22.3094 C.3     1  UNL1        0.0607
      9 C           2.7975   -0.4937   21.1558 C.3     1  UNL1        0.2223
     10 C           2.7519   -1.0498   19.7635 C.3     1  UNL1        0.1959
     11 O           3.4067   -2.3646   19.4593 O.3     1  UNL1       -0.3357
     12 C           4.1070   -3.1233   20.5475 C.3     1  UNL1        0.2740
     13 C           4.8853   -4.2056   21.2351 C.3     1  UNL1        0.0512
     14 C           4.1525   -2.5671   21.9398 C.2     1  UNL1        0.3217
     15 N           4.8527   -3.3258   23.0280 N.pl3   1  UNL1       -0.2480
     16 N           3.4977   -1.2523   22.2440 N.2     1  UNL1       -0.0692
     17 H           5.2825   -4.1888   22.8284 H       1  UNL1        0.2882
     18 H           4.8826   -2.9608   23.9419 H       1  UNL1        0.2882
     19 C           4.3318   -4.0554   19.3940 C.3     1  UNL1        0.4305
     20 F           4.5566   -4.9875   18.2404 F       1  UNL1       -0.1670
     21 F           2.8500   -4.2465   19.2596 F       1  UNL1       -0.1670
     22 F           5.8134   -3.8643   19.5283 F       1  UNL1       -0.1670
     23 N          -1.6210    2.1685   20.5310 N.am    1  UNL1       -0.2791
     24 C          -1.9831    3.3706   21.3519 C.2     1  UNL1        0.2681
     25 O          -0.9142    4.3240   21.7977 O.2     1  UNL1       -0.2681
     26 H          -2.3225    1.5428   20.2383 H       1  UNL1        0.1552
     27 C          -3.4139    3.6194   21.7269 C.ar    1  UNL1        0.1455
     28 N          -4.4365    3.8707   20.6587 N.ar    1  UNL1       -0.2352
     29 C          -5.8674    4.1195   21.0338 C.ar    1  UNL1        0.1360
     30 C          -6.2757    4.1170   22.4772 C.ar    1  UNL1        0.1642
     31 C          -5.2531    3.8656   23.5454 C.ar    1  UNL1        0.0518
     32 C          -3.8222    3.6169   23.1703 C.ar    1  UNL1        0.0828
     33 CL         -2.7997    3.3655   24.2386 Cl      1  UNL1       -0.0804
     34 O          -7.7065    4.3657   22.8523 O.3     1  UNL1       -0.4220
     35 C          -8.0382    5.3538   23.9310 C.3     1  UNL1        0.5087
     36 F          -9.3177    5.2206   24.7025 F       1  UNL1       -0.1550
     37 F          -7.0905    6.4751   24.2382 F       1  UNL1       -0.1550
@<TRIPOS>BOND
     1     9     8    1
     2     9     1    1
     3     1     2   ar
     4     2     3   ar
     5     3    23    1
     6    23    24   am
     7    24    25    2
     8    24    27    1
     9    27    28   ar
    10    28    29   ar
    11    29    30   ar
    12    30    34    1
    13    34    35    1
    14    35    36    1
    15    35    37    1
    16    30    31   ar
    17    31    32   ar
    18    32    33    1
    19     3     4   ar
    20     4     5   ar
    21     5     6   ar
    22     6     7    1
    23     9    10    1
    24    10    11    1
    25    11    12    1
    26    12    13    1
    27    12    19    1
    28    19    20    1
    29    19    21    1
    30    19    22    1
    31    12    14    1
    32    14    15    1
    33    14    16    2
    34    16     9    1
    35     6     1   ar
    36    32    27   ar
    37    23    26    1
    38    15    17    1
    39    15    18    1
@<TRIPOS>MOLECULE
*****
 37 39 0 0 0
SMALL
GASTEIGER

@<TRIPOS>ATOM
      1 C           3.1786    0.7442   18.4789 C.ar    1  UNL1        0.0528
      2 C           1.7331    1.1262   18.5982 C.ar    1  UNL1        0.0167
      3 C           1.3323    2.5707   18.5456 C.ar    1  UNL1        0.0505
      4 C           2.3772    3.6331   18.3737 C.ar    1  UNL1        0.0170
      5 C           3.8228    3.2511   18.2544 C.ar    1  UNL1        0.0307
      6 C           4.2235    1.8066   18.3070 C.ar    1  UNL1        0.1402
      7 F           5.6691    1.4244   18.1876 F       1  UNL1       -0.2044
      8 C           3.4588   -0.5174   17.0475 C.3     1  UNL1        0.0607
      9 C           3.5794   -0.7004   18.5315 C.3     1  UNL1        0.2223
     10 C           3.5608   -0.3818   19.9971 C.3     1  UNL1        0.1959
     11 O           3.9011   -1.4441   20.9999 O.3     1  UNL1       -0.3357
     12 C           4.2600   -2.8250   20.5371 C.3     1  UNL1        0.2740
     13 C           4.6607   -4.2695   20.5896 C.3     1  UNL1        0.0512
     14 C           4.2786   -3.1437   19.0715 C.2     1  UNL1        0.3217
     15 N           4.6375   -4.5247   18.6087 N.pl3   1  UNL1       -0.2480
     16 N           3.9383   -2.0814   18.0686 N.2     1  UNL1       -0.0692
     17 H           4.8608   -5.2219   19.2669 H       1  UNL1        0.2882
     18 H           4.6497   -4.7338   17.6467 H       1  UNL1        0.2882
     19 C           4.3806   -3.0081   22.0210 C.3     1  UNL1        0.4305
     20 F           4.5011   -3.1911   23.5050 F       1  UNL1       -0.1670
     21 F           5.5288   -3.9502   21.8115 F       1  UNL1       -0.1670
     22 F           3.2323   -2.0659   22.2305 F       1  UNL1       -0.1670
     23 N          -0.1133    2.9529   18.6650 N.am    1  UNL1       -0.2791
     24 C          -0.6740    3.3604   19.9952 C.2     1  UNL1        0.2681
     25 O           0.2110    3.3858   21.2061 O.2     1  UNL1       -0.2681
     26 H          -0.6941    2.9362   17.8702 H       1  UNL1        0.1552
     27 C          -2.1195    3.7426   20.1146 C.ar    1  UNL1        0.1455
     28 N          -3.0849    2.8208   20.7990 N.ar    1  UNL1       -0.2352
     29 C          -4.5305    3.2030   20.9183 C.ar    1  UNL1        0.1360
     30 C          -5.0107    4.5069   20.3533 C.ar    1  UNL1        0.1642
     31 C          -4.0453    5.4287   19.6690 C.ar    1  UNL1        0.0518
     32 C          -2.5997    5.0465   19.5496 C.ar    1  UNL1        0.0828
     33 CL         -1.6343    5.9683   18.8652 Cl      1  UNL1       -0.0804
     34 O          -6.4562    4.8890   20.4727 O.3     1  UNL1       -0.4220
     35 C          -7.0869    5.0243   21.8269 C.3     1  UNL1        0.5087
     36 F          -7.6063    6.3556   22.2828 F       1  UNL1       -0.1550
     37 F          -7.1982    3.8282   22.7253 F       1  UNL1       -0.1550
@<TRIPOS>BOND
     1     9     8    1
     2     9     1    1
     3     1     2   ar
     4     2     3   ar
     5     3    23    1
     6    23    24   am
     7    24    25    2
     8    24    27    1
     9    27    28   ar
    10    28    29   ar
    11    29    30   ar
    12    30    34    1
    13    34    35    1
    14    35    36    1
    15    35    37    1
    16    30    31   ar
    17    31    32   ar
    18    32    33    1
    19     3     4   ar
    20     4     5   ar
    21     5     6   ar
    22     6     7    1
    23     9    10    1
    24    10    11    1
    25    11    12    1
    26    12    13    1
    27    12    19    1
    28    19    20    1
    29    19    21    1
    30    19    22    1
    31    12    14    1
    32    14    15    1
    33    14    16    2
    34    16     9    1
    35     6     1   ar
    36    32    27   ar
    37    23    26    1
    38    15    17    1
    39    15    18    1
@<TRIPOS>MOLECULE
*****
 37 39 0 0 0
SMALL
GASTEIGER

@<TRIPOS>ATOM
      1 C         -12.0762   -6.0151   18.2288 C.ar    1  UNL1        0.0528
      2 C         -12.5563   -4.6966   17.6988 C.ar    1  UNL1        0.0167
      3 C         -11.6979   -3.4745   17.8392 C.ar    1  UNL1        0.0505
      4 C         -10.3595   -3.5711   18.5095 C.ar    1  UNL1        0.0170
      5 C          -9.8794   -4.8897   19.0395 C.ar    1  UNL1        0.0307
      6 C         -10.7378   -6.1117   18.8991 C.ar    1  UNL1        0.1402
      7 F         -10.2578   -7.4304   19.4290 F       1  UNL1       -0.2044
      8 C         -11.7581   -7.6480   17.2535 C.3     1  UNL1        0.0607
      9 C         -12.9346   -7.2373   18.0884 C.3     1  UNL1        0.2223
     10 C         -13.8131   -6.4021   18.9720 C.3     1  UNL1        0.1959
     11 O         -15.1412   -6.9317   19.4253 O.3     1  UNL1       -0.3357
     12 C         -15.5910   -8.2964   18.9949 C.3     1  UNL1        0.2740
     13 C         -16.4493   -9.5185   18.8546 C.3     1  UNL1        0.0512
     14 C         -14.7126   -9.1316   18.1113 C.2     1  UNL1        0.3217
     15 N         -15.1623  -10.4964   17.6810 N.pl3   1  UNL1       -0.2480
     16 N         -13.3844   -8.6021   17.6580 N.2     1  UNL1       -0.0692
     17 H         -16.0340  -10.8440   17.9785 H       1  UNL1        0.2882
     18 H         -14.5858  -11.0445   17.1010 H       1  UNL1        0.2882
     19 C         -16.7676   -7.8857   19.8298 C.3     1  UNL1        0.4305
     20 F         -17.9441   -7.4749   20.6647 F       1  UNL1       -0.1670
     21 F         -16.4671   -8.9918   20.7974 F       1  UNL1       -0.1670
     22 F         -17.0679   -6.7796   18.8623 F       1  UNL1       -0.1670
     23 N         -12.1779   -2.1559   17.3093 N.am    1  UNL1       -0.2791
     24 C         -13.1323   -1.3260   18.1158 C.2     1  UNL1        0.2681
     25 O         -13.6067   -1.8149   19.4523 O.2     1  UNL1       -0.2681
     26 H         -11.8665   -1.8350   16.4322 H       1  UNL1        0.1552
     27 C         -13.6123   -0.0074   17.5860 C.ar    1  UNL1        0.1455
     28 N         -12.7066    1.1879   17.6169 N.ar    1  UNL1       -0.2352
     29 C         -13.1867    2.5065   17.0869 C.ar    1  UNL1        0.1360
     30 C         -14.5725    2.6299   16.5262 C.ar    1  UNL1        0.1642
     31 C         -15.4782    1.4346   16.4953 C.ar    1  UNL1        0.0518
     32 C         -14.9982    0.1159   17.0252 C.ar    1  UNL1        0.0828
     33 CL        -15.9039   -1.0793   16.9943 Cl      1  UNL1       -0.0804
     34 O         -15.0525    3.9485   15.9963 O.3     1  UNL1       -0.4220
     35 C         -15.3045    5.0884   16.9382 C.3     1  UNL1        0.5087
     36 F         -15.2082    4.8726   18.4195 F       1  UNL1       -0.1550
     37 F         -15.6527    6.4440   16.3988 F       1  UNL1       -0.1550
@<TRIPOS>BOND
     1     9     8    1
     2     9     1    1
     3     1     2   ar
     4     2     3   ar
     5     3    23    1
     6    23    24   am
     7    24    25    2
     8    24    27    1
     9    27    28   ar
    10    28    29   ar
    11    29    30   ar
    12    30    34    1
    13    34    35    1
    14    35    36    1
    15    35    37    1
    16    30    31   ar
    17    31    32   ar
    18    32    33    1
    19     3     4   ar
    20     4     5   ar
    21     5     6   ar
    22     6     7    1
    23     9    10    1
    24    10    11    1
    25    11    12    1
    26    12    13    1
    27    12    19    1
    28    19    20    1
    29    19    21    1
    30    19    22    1
    31    12    14    1
    32    14    15    1
    33    14    16    2
    34    16     9    1
    35     6     1   ar
    36    32    27   ar
    37    23    26    1
    38    15    17    1
    39    15    18    1
@<TRIPOS>MOLECULE
*****
 37 39 0 0 0
SMALL
GASTEIGER

@<TRIPOS>ATOM
      1 C         -16.7059    2.0938   19.9465 C.ar    1  UNL1        0.0528
      2 C         -16.0202    0.7641   19.8397 C.ar    1  UNL1        0.0167
      3 C         -15.8814    0.0970   18.5033 C.ar    1  UNL1        0.0505
      4 C         -16.4284    0.7598   17.2739 C.ar    1  UNL1        0.0170
      5 C         -17.1141    2.0896   17.3807 C.ar    1  UNL1        0.0307
      6 C         -17.2528    2.7566   18.7170 C.ar    1  UNL1        0.1402
      7 F         -17.9386    4.0864   18.8239 F       1  UNL1       -0.2044
      8 C         -18.0537    1.8733   21.3080 C.3     1  UNL1        0.0607
      9 C         -16.8447    2.7609   21.2828 C.3     1  UNL1        0.2223
     10 C         -15.5877    3.4169   20.7936 C.3     1  UNL1        0.1959
     11 O         -14.8892    4.4317   21.6494 O.3     1  UNL1       -0.3357
     12 C         -15.4479    4.7905   22.9945 C.3     1  UNL1        0.2740
     13 C         -15.5868    5.4575   24.3308 C.3     1  UNL1        0.0512
     14 C         -16.7050    4.1345   23.4837 C.2     1  UNL1        0.3217
     15 N         -17.2637    4.4933   24.8288 N.pl3   1  UNL1       -0.2480
     16 N         -17.4034    3.1197   22.6279 N.2     1  UNL1       -0.0692
     17 H         -16.8053    5.1593   25.3905 H       1  UNL1        0.2882
     18 H         -18.0888    4.0627   25.1499 H       1  UNL1        0.2882
     19 C         -14.2390    5.6782   22.9693 C.3     1  UNL1        0.4305
     20 F         -13.0301    6.5658   22.9442 F       1  UNL1       -0.1670
     21 F         -15.1183    6.8688   22.7256 F       1  UNL1       -0.1670
     22 F         -13.3598    4.4876   23.2131 F       1  UNL1       -0.1670
     23 N         -15.1957   -1.2328   18.3965 N.am    1  UNL1       -0.2791
     24 C         -13.6975   -1.3065   18.4000 C.2     1  UNL1        0.2681
     25 O         -12.8851   -0.0504   18.5104 O.2     1  UNL1       -0.2681
     26 H         -15.7289   -2.0572   18.3240 H       1  UNL1        0.1552
     27 C         -13.0118   -2.6363   18.2932 C.ar    1  UNL1        0.1455
     28 N         -12.3812   -3.0530   16.9975 N.ar    1  UNL1       -0.2352
     29 C         -11.6954   -4.3828   16.8907 C.ar    1  UNL1        0.1360
     30 C         -11.6403   -5.2959   18.0795 C.ar    1  UNL1        0.1642
     31 C         -12.2708   -4.8792   19.3751 C.ar    1  UNL1        0.0518
     32 C         -12.9566   -3.5494   19.4820 C.ar    1  UNL1        0.0828
     33 CL        -13.5872   -3.1327   20.7776 Cl      1  UNL1       -0.0804
     34 O         -10.9545   -6.6256   17.9726 O.3     1  UNL1       -0.4220
     35 C          -9.7725   -6.9321   18.8437 C.3     1  UNL1        0.5087
     36 F          -9.0957   -5.8304   19.6043 F       1  UNL1       -0.1550
     37 F          -9.2672   -8.3400   18.9542 F       1  UNL1       -0.1550
@<TRIPOS>BOND
     1     9     8    1
     2     9     1    1
     3     1     2   ar
     4     2     3   ar
     5     3    23    1
     6    23    24   am
     7    24    25    2
     8    24    27    1
     9    27    28   ar
    10    28    29   ar
    11    29    30   ar
    12    30    34    1
    13    34    35    1
    14    35    36    1
    15    35    37    1
    16    30    31   ar
    17    31    32   ar
    18    32    33    1
    19     3     4   ar
    20     4     5   ar
    21     5     6   ar
    22     6     7    1
    23     9    10    1
    24    10    11    1
    25    11    12    1
    26    12    13    1
    27    12    19    1
    28    19    20    1
    29    19    21    1
    30    19    22    1
    31    12    14    1
    32    14    15    1
    33    14    16    2
    34    16     9    1
    35     6     1   ar
    36    32    27   ar
    37    23    26    1
    38    15    17    1
    39    15    18    1
@<TRIPOS>MOLECULE
*****
 37 39 0 0 0
SMALL
GASTEIGER

@<TRIPOS>ATOM
      1 C           2.8776    0.4582   21.3464 C.ar    1  UNL1        0.0528
      2 C           2.7603    0.4775   22.8416 C.ar    1  UNL1        0.0167
      3 C           2.6274    1.7838   23.5667 C.ar    1  UNL1        0.0505
      4 C           2.6118    3.0709   22.7965 C.ar    1  UNL1        0.0170
      5 C           2.7291    3.0516   21.3012 C.ar    1  UNL1        0.0307
      6 C           2.8620    1.7453   20.5762 C.ar    1  UNL1        0.1402
      7 F           2.9793    1.7259   19.0808 F       1  UNL1       -0.2044
      8 C           1.5246   -0.6578   20.5447 C.3     1  UNL1        0.0607
      9 C           3.0105   -0.8482   20.6212 C.3     1  UNL1        0.2223
     10 C           4.4502   -0.5849   20.9496 C.3     1  UNL1        0.1959
     11 O           5.5068   -1.5619   20.5263 O.3     1  UNL1       -0.3357
     12 C           5.1236   -2.8021   19.7746 C.3     1  UNL1        0.2740
     13 C           5.2565   -4.1084   19.0495 C.3     1  UNL1        0.0512
     14 C           3.6839   -3.0654   19.4462 C.2     1  UNL1        0.3217
     15 N           3.3008   -4.3056   18.6945 N.pl3   1  UNL1       -0.2480
     16 N           2.6273   -2.0885   19.8695 N.2     1  UNL1       -0.0692
     17 H           3.9942   -4.9468   18.4166 H       1  UNL1        0.2882
     18 H           2.3558   -4.4784   18.4789 H       1  UNL1        0.2882
     19 C           6.6096   -2.9925   19.8511 C.3     1  UNL1        0.4305
     20 F           8.0955   -3.1830   19.9277 F       1  UNL1       -0.1670
     21 F           6.4894   -3.3461   21.3039 F       1  UNL1       -0.1670
     22 F           6.7297   -2.6390   18.3984 F       1  UNL1       -0.1670
     23 N           2.5101    1.8031   25.0620 N.am    1  UNL1       -0.2791
     24 C           1.2066    1.4531   25.7166 C.2     1  UNL1        0.2681
     25 O           0.0205    1.0837   24.8759 O.2     1  UNL1       -0.2681
     26 H           3.2886    2.0455   25.6137 H       1  UNL1        0.1552
     27 C           1.0893    1.4724   27.2118 C.ar    1  UNL1        0.1455
     28 N           1.4148    0.2420   28.0057 N.ar    1  UNL1       -0.2352
     29 C           1.2974    0.2613   29.5010 C.ar    1  UNL1        0.1360
     30 C           0.8546    1.5111   30.2024 C.ar    1  UNL1        0.1642
     31 C           0.5291    2.7415   29.4086 C.ar    1  UNL1        0.0518
     32 C           0.6464    2.7222   27.9134 C.ar    1  UNL1        0.0828
     33 CL          0.3209    3.9526   27.1195 Cl      1  UNL1       -0.0804
     34 O           0.7372    1.5304   31.6977 O.3     1  UNL1       -0.4220
     35 C           1.9354    1.8543   32.5399 C.3     1  UNL1        0.5087
     36 F           1.7628    2.1933   33.9909 F       1  UNL1       -0.1550
     37 F           3.3063    1.8391   31.9312 F       1  UNL1       -0.1550
@<TRIPOS>BOND
     1     9     8    1
     2     9     1    1
     3     1     2   ar
     4     2     3   ar
     5     3    23    1
     6    23    24   am
     7    24    25    2
     8    24    27    1
     9    27    28   ar
    10    28    29   ar
    11    29    30   ar
    12    30    34    1
    13    34    35    1
    14    35    36    1
    15    35    37    1
    16    30    31   ar
    17    31    32   ar
    18    32    33    1
    19     3     4   ar
    20     4     5   ar
    21     5     6   ar
    22     6     7    1
    23     9    10    1
    24    10    11    1
    25    11    12    1
    26    12    13    1
    27    12    19    1
    28    19    20    1
    29    19    21    1
    30    19    22    1
    31    12    14    1
    32    14    15    1
    33    14    16    2
    34    16     9    1
    35     6     1   ar
    36    32    27   ar
    37    23    26    1
    38    15    17    1
    39    15    18    1
@<TRIPOS>MOLECULE
*****
 37 39 0 0 0
SMALL
GASTEIGER

@<TRIPOS>ATOM
      1 C           6.9784   -3.5673   23.5480 C.ar    1  UNL1        0.0528
      2 C           6.0541   -2.9548   24.5580 C.ar    1  UNL1        0.0167
      3 C           6.1069   -3.3993   25.9896 C.ar    1  UNL1        0.0505
      4 C           7.0840   -4.4564   26.4112 C.ar    1  UNL1        0.0170
      5 C           8.0084   -5.0689   25.4011 C.ar    1  UNL1        0.0307
      6 C           7.9556   -4.6244   23.9695 C.ar    1  UNL1        0.1402
      7 F           8.8800   -5.2370   22.9594 F       1  UNL1       -0.2044
      8 C           8.1843   -2.4355   22.5562 C.3     1  UNL1        0.0607
      9 C           6.9257   -3.1228   22.1163 C.3     1  UNL1        0.2223
     10 C           5.6854   -3.9644   22.1735 C.3     1  UNL1        0.1959
     11 O           4.8294   -4.1229   20.9520 O.3     1  UNL1       -0.3357
     12 C           5.2138   -3.4396   19.6731 C.3     1  UNL1        0.2740
     13 C           5.1611   -2.9951   18.2415 C.3     1  UNL1        0.0512
     14 C           6.4541   -2.5980   19.6158 C.2     1  UNL1        0.3217
     15 N           6.8385   -1.9148   18.3369 N.pl3   1  UNL1       -0.2480
     16 N           7.3101   -2.4396   20.8374 N.2     1  UNL1       -0.0692
     17 H           6.2767   -2.0188   17.5351 H       1  UNL1        0.2882
     18 H           7.6526   -1.3624   18.2993 H       1  UNL1        0.2882
     19 C           3.9552   -4.1269   19.2331 C.3     1  UNL1        0.4305
     20 F           2.6965   -4.8142   18.7932 F       1  UNL1       -0.1670
     21 F           4.7710   -5.2037   18.5811 F       1  UNL1       -0.1670
     22 F           3.1394   -3.0502   19.8851 F       1  UNL1       -0.1670
     23 N           5.1825   -2.7867   26.9998 N.am    1  UNL1       -0.2791
     24 C           5.5612   -1.5066   27.6837 C.2     1  UNL1        0.2681
     25 O           6.8643   -0.8390   27.3576 O.2     1  UNL1       -0.2681
     26 H           4.3272   -3.2249   27.2138 H       1  UNL1        0.1552
     27 C           4.6369   -0.8940   28.6938 C.ar    1  UNL1        0.1455
     28 N           3.3924   -0.1892   28.2414 N.ar    1  UNL1       -0.2352
     29 C           2.4681    0.4234   29.2516 C.ar    1  UNL1        0.1360
     30 C           2.7882    0.3312   30.7141 C.ar    1  UNL1        0.1642
     31 C           4.0327   -0.3736   31.1665 C.ar    1  UNL1        0.0518
     32 C           4.9570   -0.9861   30.1564 C.ar    1  UNL1        0.0828
     33 CL          6.2014   -1.6909   30.6088 Cl      1  UNL1       -0.0804
     34 O           1.8639    0.9438   31.7242 O.3     1  UNL1       -0.4220
     35 C           2.3917    1.9320   32.7217 C.3     1  UNL1        0.5087
     36 F           1.7270    2.0759   34.0587 F       1  UNL1       -0.1550
     37 F           3.5841    2.7762   32.3821 F       1  UNL1       -0.1550
@<TRIPOS>BOND
     1     9     8    1
     2     9     1    1
     3     1     2   ar
     4     2     3   ar
     5     3    23    1
     6    23    24   am
     7    24    25    2
     8    24    27    1
     9    27    28   ar
    10    28    29   ar
    11    29    30   ar
    12    30    34    1
    13    34    35    1
    14    35    36    1
    15    35    37    1
    16    30    31   ar
    17    31    32   ar
    18    32    33    1
    19     3     4   ar
    20     4     5   ar
    21     5     6   ar
    22     6     7    1
    23     9    10    1
    24    10    11    1
    25    11    12    1
    26    12    13    1
    27    12    19    1
    28    19    20    1
    29    19    21    1
    30    19    22    1
    31    12    14    1
    32    14    15    1
    33    14    16    2
    34    16     9    1
    35     6     1   ar
    36    32    27   ar
    37    23    26    1
    38    15    17    1
    39    15    18    1
@<TRIPOS>MOLECULE
*****
 37 39 0 0 0
SMALL
GASTEIGER

@<TRIPOS>ATOM
      1 C           4.2364    0.9348   34.1130 C.ar    1  UNL1        0.0528
      2 C           3.6764    1.3950   32.7998 C.ar    1  UNL1        0.0167
      3 C           3.4597    0.4093   31.6902 C.ar    1  UNL1        0.0505
      4 C           3.8029   -1.0367   31.8938 C.ar    1  UNL1        0.0170
      5 C           4.3629   -1.4968   33.2070 C.ar    1  UNL1        0.0307
      6 C           4.5796   -0.5111   34.3166 C.ar    1  UNL1        0.1402
      7 F           5.1396   -0.9713   35.6299 F       1  UNL1       -0.2044
      8 C           5.7965    1.9775   34.5576 C.3     1  UNL1        0.0607
      9 C           4.4531    1.9206   35.2227 C.3     1  UNL1        0.2223
     10 C           3.0346    1.5213   35.5024 C.3     1  UNL1        0.1959
     11 O           2.2993    2.1276   36.6608 O.3     1  UNL1       -0.3357
     12 C           2.9826    3.1331   37.5395 C.3     1  UNL1        0.2740
     13 C           3.1994    4.1188   38.6491 C.3     1  UNL1        0.0512
     14 C           4.4012    3.5324   37.2598 C.2     1  UNL1        0.3217
     15 N           5.0845    4.5379   38.1384 N.pl3   1  UNL1       -0.2480
     16 N           5.1365    2.9261   36.1014 N.2     1  UNL1       -0.0692
     17 H           4.6019    4.9358   38.8987 H       1  UNL1        0.2882
     18 H           6.0155    4.8000   37.9549 H       1  UNL1        0.2882
     19 C           1.6393    3.0762   38.2046 C.3     1  UNL1        0.4305
     20 F           0.2960    3.0192   38.8697 F       1  UNL1       -0.1670
     21 F           1.1221    4.1098   37.2484 F       1  UNL1       -0.1670
     22 F           2.1566    2.0426   39.1606 F       1  UNL1       -0.1670
     23 N           2.8997    0.8694   30.3769 N.am    1  UNL1       -0.2791
     24 C           1.4794    1.3444   30.2923 C.2     1  UNL1        0.2681
     25 O           0.6191    1.3591   31.5210 O.2     1  UNL1       -0.2681
     26 H           3.4643    0.8597   29.5704 H       1  UNL1        0.1552
     27 C           0.9193    1.8045   28.9791 C.ar    1  UNL1        0.1455
     28 N           1.3436    3.1231   28.4035 N.ar    1  UNL1       -0.2352
     29 C           0.7836    3.5832   27.0902 C.ar    1  UNL1        0.1360
     30 C          -0.2008    2.7248   26.3526 C.ar    1  UNL1        0.1642
     31 C          -0.6250    1.4062   26.9281 C.ar    1  UNL1        0.0518
     32 C          -0.0650    0.9461   28.2414 C.ar    1  UNL1        0.0828
     33 CL         -0.4893   -0.3725   28.8169 Cl      1  UNL1       -0.0804
     34 O          -0.7608    3.1849   25.0393 O.3     1  UNL1       -0.4220
     35 C          -2.1054    3.8478   24.9883 C.3     1  UNL1        0.5087
     36 F          -2.2422    5.2959   25.3550 F       1  UNL1       -0.1550
     37 F          -3.3133    3.0626   24.5707 F       1  UNL1       -0.1550
@<TRIPOS>BOND
     1     9     8    1
     2     9     1    1
     3     1     2   ar
     4     2     3   ar
     5     3    23    1
     6    23    24   am
     7    24    25    2
     8    24    27    1
     9    27    28   ar
    10    28    29   ar
    11    29    30   ar
    12    30    34    1
    13    34    35    1
    14    35    36    1
    15    35    37    1
    16    30    31   ar
    17    31    32   ar
    18    32    33    1
    19     3     4   ar
    20     4     5   ar
    21     5     6   ar
    22     6     7    1
    23     9    10    1
    24    10    11    1
    25    11    12    1
    26    12    13    1
    27    12    19    1
    28    19    20    1
    29    19    21    1
    30    19    22    1
    31    12    14    1
    32    14    15    1
    33    14    16    2
    34    16     9    1
    35     6     1   ar
    36    32    27   ar
    37    23    26    1
    38    15    17    1
    39    15    18    1
