@<TRIPOS>MOLECULE
*****
 24 26 0 0 0
SMALL
GASTEIGER

@<TRIPOS>ATOM
      1 C          -8.4157  -17.0500   22.4018 C.2     1  UNL1       -0.0238
      2 C          -7.8557  -18.3856   22.0113 C.2     1  UNL1       -0.0420
      3 C          -9.0028  -19.2799   21.6447 C.3     1  UNL1        0.0481
      4 C         -10.2717  -18.4971   21.8088 C.ar    1  UNL1       -0.0162
      5 C         -11.7107  -18.8611   21.5925 C.ar    1  UNL1        0.0257
      6 C         -12.7868  -17.8469   21.8442 C.ar    1  UNL1        0.1398
      7 F         -14.2259  -18.2109   21.6279 F       1  UNL1       -0.2042
      8 C         -12.4240  -16.4687   22.3121 C.ar    1  UNL1        0.0296
      9 C         -10.9850  -16.1047   22.5283 C.ar    1  UNL1        0.0017
     10 C          -9.9089  -17.1189   22.2767 C.ar    1  UNL1       -0.0077
     11 C          -7.6219  -15.8552   22.8405 C.3     1  UNL1        0.0763
     12 C          -5.8400  -15.4554   24.6884 C.ar    1  UNL1        0.2393
     13 N          -5.4860  -15.2803   26.1355 N.ar    1  UNL1       -0.2075
     14 C          -6.5597  -15.3299   27.1817 C.ar    1  UNL1        0.1227
     15 C          -7.9876  -15.5546   26.7808 C.ar    1  UNL1        0.1193
     16 N          -8.3417  -15.7297   25.3338 N.ar    1  UNL1       -0.2415
     17 C          -7.2678  -15.6801   24.2875 C.ar    1  UNL1        0.1163
     18 C          -3.9242  -16.6179   23.3737 C.3     1  UNL1        0.2543
     19 O          -4.7661  -15.4058   23.6423 O.3     1  UNL1       -0.4553
     20 C          -6.4035  -18.7610   21.9908 C.3     1  UNL1        0.0394
     21 C          -5.7628  -19.2095   20.7110 C.3     1  UNL1        0.0765
     22 N          -4.2682  -19.2197   20.5838 N.3     1  UNL1       -0.2700
     23 C          -3.4253  -19.7840   21.6889 C.3     1  UNL1        0.0897
     24 C          -3.6165  -18.6657   19.3516 C.3     1  UNL1        0.0897
@<TRIPOS>BOND
     1    18    19    1
     2    19    12    1
     3    12    13   ar
     4    13    14   ar
     5    14    15   ar
     6    15    16   ar
     7    16    17   ar
     8    17    11    1
     9    11     1    1
    10     1     2    2
    11     2    20    1
    12    20    21    1
    13    21    22    1
    14    22    23    1
    15    22    24    1
    16     2     3    1
    17     3     4    1
    18     4     5   ar
    19     5     6   ar
    20     6     7    1
    21     6     8   ar
    22     8     9   ar
    23     9    10   ar
    24    17    12   ar
    25    10     1    1
    26    10     4   ar
@<TRIPOS>MOLECULE
*****
 24 26 0 0 0
SMALL
GASTEIGER

@<TRIPOS>ATOM
      1 C          -8.1994  -18.2079   21.8801 C.2     1  UNL1       -0.0238
      2 C          -8.7699  -19.1961   20.9064 C.2     1  UNL1       -0.0420
      3 C          -7.6481  -20.0609   20.4129 C.3     1  UNL1        0.0481
      4 C          -6.3844  -19.6073   21.0815 C.ar    1  UNL1       -0.0162
      5 C          -4.9674  -20.0891   20.9818 C.ar    1  UNL1        0.0257
      6 C          -3.8911  -19.4256   21.7889 C.ar    1  UNL1        0.1398
      7 F          -2.4740  -19.9074   21.6892 F       1  UNL1       -0.2042
      8 C          -4.2318  -18.2804   22.6957 C.ar    1  UNL1        0.0296
      9 C          -5.6488  -17.7986   22.7954 C.ar    1  UNL1        0.0017
     10 C          -6.7251  -18.4620   21.9883 C.ar    1  UNL1       -0.0077
     11 C          -8.9683  -17.1511   22.6164 C.3     1  UNL1        0.0763
     12 C          -9.4430  -17.9550   25.0409 C.ar    1  UNL1        0.2393
     13 N          -9.2655  -17.7926   26.5215 N.ar    1  UNL1       -0.2075
     14 C          -8.4357  -16.6642   27.0581 C.ar    1  UNL1        0.1227
     15 C          -7.7834  -15.6979   26.1141 C.ar    1  UNL1        0.1193
     16 N          -7.9610  -15.8603   24.6335 N.ar    1  UNL1       -0.2415
     17 C          -8.7908  -16.9888   24.0969 C.ar    1  UNL1        0.1163
     18 C          -9.6777  -20.4537   24.3692 C.3     1  UNL1        0.2543
     19 O         -10.2728  -19.0835   24.5044 O.3     1  UNL1       -0.4553
     20 C         -10.2094  -19.3010   20.4980 C.3     1  UNL1        0.0394
     21 C         -10.8124  -18.2606   19.6014 C.3     1  UNL1        0.0765
     22 N         -11.7267  -17.2173   20.1721 N.3     1  UNL1       -0.2700
     23 C         -11.7634  -15.8430   19.5721 C.3     1  UNL1        0.0897
     24 C         -12.6042  -17.5484   21.3426 C.3     1  UNL1        0.0897
@<TRIPOS>BOND
     1    18    19    1
     2    19    12    1
     3    12    13   ar
     4    13    14   ar
     5    14    15   ar
     6    15    16   ar
     7    16    17   ar
     8    17    11    1
     9    11     1    1
    10     1     2    2
    11     2    20    1
    12    20    21    1
    13    21    22    1
    14    22    23    1
    15    22    24    1
    16     2     3    1
    17     3     4    1
    18     4     5   ar
    19     5     6   ar
    20     6     7    1
    21     6     8   ar
    22     8     9   ar
    23     9    10   ar
    24    17    12   ar
    25    10     1    1
    26    10     4   ar
@<TRIPOS>MOLECULE
*****
 24 26 0 0 0
SMALL
GASTEIGER

@<TRIPOS>ATOM
      1 C          -8.5434  -17.4246   23.3218 C.2     1  UNL1       -0.0238
      2 C          -9.7014  -18.1579   23.9312 C.2     1  UNL1       -0.0420
      3 C          -9.7537  -17.8114   25.3897 C.3     1  UNL1        0.0481
      4 C          -8.6280  -16.8640   25.6817 C.ar    1  UNL1       -0.0162
      5 C          -8.1875  -16.1881   26.9463 C.ar    1  UNL1        0.0257
      6 C          -6.9990  -15.2732   26.9328 C.ar    1  UNL1        0.1398
      7 F          -6.5584  -14.5972   28.1973 F       1  UNL1       -0.2042
      8 C          -6.2510  -15.0341   25.6547 C.ar    1  UNL1        0.0296
      9 C          -6.6915  -15.7100   24.3902 C.ar    1  UNL1        0.0017
     10 C          -7.8800  -16.6249   24.4037 C.ar    1  UNL1       -0.0077
     11 C          -8.1226  -17.4811   21.8832 C.3     1  UNL1        0.0763
     12 C          -7.4262  -19.5778   20.5161 C.ar    1  UNL1        0.2393
     13 N          -6.3737  -20.5536   20.0802 N.ar    1  UNL1       -0.2075
     14 C          -4.9653  -20.4087   20.5754 C.ar    1  UNL1        0.1227
     15 C          -4.6092  -19.2878   21.5065 C.ar    1  UNL1        0.1193
     16 N          -5.6617  -18.3120   21.9424 N.ar    1  UNL1       -0.2415
     17 C          -7.0703  -18.4569   21.4473 C.ar    1  UNL1        0.1163
     18 C          -9.0930  -20.2200   18.6295 C.3     1  UNL1        0.2543
     19 O          -8.8346  -19.7228   20.0209 O.3     1  UNL1       -0.4553
     20 C         -10.6420  -19.0764   23.2089 C.3     1  UNL1        0.0394
     21 C         -11.9173  -18.5398   22.6296 C.3     1  UNL1        0.0765
     22 N         -11.8924  -17.3083   21.7736 N.3     1  UNL1       -0.2700
     23 C         -12.2265  -15.9732   22.3703 C.3     1  UNL1        0.0897
     24 C         -11.5334  -17.4118   20.3209 C.3     1  UNL1        0.0897
@<TRIPOS>BOND
     1    18    19    1
     2    19    12    1
     3    12    13   ar
     4    13    14   ar
     5    14    15   ar
     6    15    16   ar
     7    16    17   ar
     8    17    11    1
     9    11     1    1
    10     1     2    2
    11     2    20    1
    12    20    21    1
    13    21    22    1
    14    22    23    1
    15    22    24    1
    16     2     3    1
    17     3     4    1
    18     4     5   ar
    19     5     6   ar
    20     6     7    1
    21     6     8   ar
    22     8     9   ar
    23     9    10   ar
    24    17    12   ar
    25    10     1    1
    26    10     4   ar
@<TRIPOS>MOLECULE
*****
 24 26 0 0 0
SMALL
GASTEIGER

@<TRIPOS>ATOM
      1 C         -13.4384   -5.6128   19.4296 C.2     1  UNL1       -0.0238
      2 C         -13.7947   -6.9126   18.7712 C.2     1  UNL1       -0.0420
      3 C         -12.7299   -7.2288   17.7632 C.3     1  UNL1        0.0481
      4 C         -11.7154   -6.1244   17.7986 C.ar    1  UNL1       -0.0162
      5 C         -10.4496   -5.8991   17.0260 C.ar    1  UNL1        0.0257
      6 C          -9.6217   -4.6751   17.2834 C.ar    1  UNL1        0.1398
      7 F          -8.3557   -4.4499   16.5109 F       1  UNL1       -0.2042
      8 C         -10.0596   -3.6764   18.3133 C.ar    1  UNL1        0.0296
      9 C         -11.3254   -3.9016   19.0859 C.ar    1  UNL1        0.0017
     10 C         -12.1534   -5.1256   18.8285 C.ar    1  UNL1       -0.0077
     11 C         -14.2284   -4.9214   20.5010 C.3     1  UNL1        0.0763
     12 C         -16.5427   -3.9258   19.8663 C.ar    1  UNL1        0.2393
     13 N         -17.3974   -2.7421   19.5224 N.ar    1  UNL1       -0.2075
     14 C         -16.7928   -1.3705   19.4692 C.ar    1  UNL1        0.1227
     15 C         -15.3332   -1.1824   19.7599 C.ar    1  UNL1        0.1193
     16 N         -14.4785   -2.3661   20.1039 N.ar    1  UNL1       -0.2415
     17 C         -15.0832   -3.7378   20.1571 C.ar    1  UNL1        0.1163
     18 C         -18.4092   -5.5906   19.1632 C.3     1  UNL1        0.2543
     19 O         -17.1475   -5.2974   19.9195 O.3     1  UNL1       -0.4553
     20 C         -15.0036   -7.7493   19.0687 C.3     1  UNL1        0.0394
     21 C         -15.1821   -9.0763   18.3925 C.3     1  UNL1        0.0765
     22 N         -16.5599   -9.5763   18.0737 N.3     1  UNL1       -0.2700
     23 C         -17.5036   -8.7208   17.2813 C.3     1  UNL1        0.0897
     24 C         -16.9941  -10.9317   18.5472 C.3     1  UNL1        0.0897
@<TRIPOS>BOND
     1    18    19    1
     2    19    12    1
     3    12    13   ar
     4    13    14   ar
     5    14    15   ar
     6    15    16   ar
     7    16    17   ar
     8    17    11    1
     9    11     1    1
    10     1     2    2
    11     2    20    1
    12    20    21    1
    13    21    22    1
    14    22    23    1
    15    22    24    1
    16     2     3    1
    17     3     4    1
    18     4     5   ar
    19     5     6   ar
    20     6     7    1
    21     6     8   ar
    22     8     9   ar
    23     9    10   ar
    24    17    12   ar
    25    10     1    1
    26    10     4   ar
@<TRIPOS>MOLECULE
*****
 24 26 0 0 0
SMALL
GASTEIGER

@<TRIPOS>ATOM
      1 C           4.2552   -2.1607   19.4120 C.2     1  UNL1       -0.0238
      2 C           5.2337   -1.6932   18.3757 C.2     1  UNL1       -0.0420
      3 C           4.6835   -0.4471   17.7476 C.3     1  UNL1        0.0481
      4 C           3.3650   -0.1445   18.3957 C.ar    1  UNL1       -0.0162
      5 C           2.3713    0.9586   18.1820 C.ar    1  UNL1        0.0257
      6 C           1.1129    1.0026   18.9971 C.ar    1  UNL1        0.1398
      7 F           0.1191    2.1057   18.7835 F       1  UNL1       -0.2042
      8 C           0.8482   -0.0565   20.0258 C.ar    1  UNL1        0.0296
      9 C           1.8419   -1.1596   20.2394 C.ar    1  UNL1        0.0017
     10 C           3.1003   -1.2036   19.4244 C.ar    1  UNL1       -0.0077
     11 C           4.4052   -3.3727   20.2830 C.3     1  UNL1        0.0763
     12 C           6.3124   -3.8569   21.9795 C.ar    1  UNL1        0.2393
     13 N           6.8903   -3.7235   23.3572 N.ar    1  UNL1       -0.2075
     14 C           6.1390   -2.9725   24.4162 C.ar    1  UNL1        0.1227
     15 C           4.8098   -2.3548   24.0975 C.ar    1  UNL1        0.1193
     16 N           4.2319   -2.4882   22.7198 N.ar    1  UNL1       -0.2415
     17 C           4.9831   -3.2393   21.6607 C.ar    1  UNL1        0.1163
     18 C           8.4937   -4.9988   21.1499 C.3     1  UNL1        0.2543
     19 O           7.0637   -4.6080   20.9206 O.3     1  UNL1       -0.4553
     20 C           6.5340   -2.3555   18.0284 C.3     1  UNL1        0.0394
     21 C           7.7719   -2.0348   18.8124 C.3     1  UNL1        0.0765
     22 N           7.9177   -0.6938   19.4687 N.3     1  UNL1       -0.2700
     23 C           7.7064   -0.5555   20.9473 C.3     1  UNL1        0.0897
     24 C           8.2746    0.5088   18.6463 C.3     1  UNL1        0.0897
@<TRIPOS>BOND
     1    18    19    1
     2    19    12    1
     3    12    13   ar
     4    13    14   ar
     5    14    15   ar
     6    15    16   ar
     7    16    17   ar
     8    17    11    1
     9    11     1    1
    10     1     2    2
    11     2    20    1
    12    20    21    1
    13    21    22    1
    14    22    23    1
    15    22    24    1
    16     2     3    1
    17     3     4    1
    18     4     5   ar
    19     5     6   ar
    20     6     7    1
    21     6     8   ar
    22     8     9   ar
    23     9    10   ar
    24    17    12   ar
    25    10     1    1
    26    10     4   ar
@<TRIPOS>MOLECULE
*****
 24 26 0 0 0
SMALL
GASTEIGER

@<TRIPOS>ATOM
      1 C           3.8288   -2.1495   19.5542 C.2     1  UNL1       -0.0238
      2 C           4.8315   -1.8091   18.4918 C.2     1  UNL1       -0.0420
      3 C           4.3711   -0.5582   17.8038 C.3     1  UNL1        0.0481
      4 C           3.0840   -0.1255   18.4410 C.ar    1  UNL1       -0.0162
      5 C           2.1739    1.0370   18.1759 C.ar    1  UNL1        0.0257
      6 C           0.9286    1.2159   18.9927 C.ar    1  UNL1        0.1398
      7 F           0.0184    2.3784   18.7276 F       1  UNL1       -0.2042
      8 C           0.5934    0.2324   20.0745 C.ar    1  UNL1        0.0296
      9 C           1.5035   -0.9301   20.3396 C.ar    1  UNL1        0.0017
     10 C           2.7488   -1.1090   19.5228 C.ar    1  UNL1       -0.0077
     11 C           3.8945   -3.3242   20.4846 C.3     1  UNL1        0.0763
     12 C           4.6648   -2.5210   22.8323 C.ar    1  UNL1        0.2393
     13 N           5.6683   -2.5397   23.9470 N.ar    1  UNL1       -0.2075
     14 C           6.9050   -3.3803   23.8288 C.ar    1  UNL1        0.1227
     15 C           7.1383   -4.2022   22.5959 C.ar    1  UNL1        0.1193
     16 N           6.1348   -4.1835   21.4812 N.ar    1  UNL1       -0.2415
     17 C           4.8980   -3.3429   21.5993 C.ar    1  UNL1        0.1163
     18 C           3.2822   -0.7172   24.0911 C.3     1  UNL1        0.2543
     19 O           3.4281   -1.6805   22.9506 O.3     1  UNL1       -0.4553
     20 C           6.0759   -2.5836   18.1733 C.3     1  UNL1        0.0394
     21 C           7.3823   -2.1947   18.7996 C.3     1  UNL1        0.0765
     22 N           7.5461   -0.8340   19.4092 N.3     1  UNL1       -0.2700
     23 C           7.9160    0.3353   18.5454 C.3     1  UNL1        0.0897
     24 C           7.3401   -0.6426   20.8826 C.3     1  UNL1        0.0897
@<TRIPOS>BOND
     1    18    19    1
     2    19    12    1
     3    12    13   ar
     4    13    14   ar
     5    14    15   ar
     6    15    16   ar
     7    16    17   ar
     8    17    11    1
     9    11     1    1
    10     1     2    2
    11     2    20    1
    12    20    21    1
    13    21    22    1
    14    22    23    1
    15    22    24    1
    16     2     3    1
    17     3     4    1
    18     4     5   ar
    19     5     6   ar
    20     6     7    1
    21     6     8   ar
    22     8     9   ar
    23     9    10   ar
    24    17    12   ar
    25    10     1    1
    26    10     4   ar
@<TRIPOS>MOLECULE
*****
 24 26 0 0 0
SMALL
GASTEIGER

@<TRIPOS>ATOM
      1 C         -14.1228   -3.8836   18.4825 C.2     1  UNL1       -0.0238
      2 C         -14.9902   -4.6588   19.4294 C.2     1  UNL1       -0.0420
      3 C         -15.8727   -3.6850   20.1524 C.3     1  UNL1        0.0481
      4 C         -15.5509   -2.3079   19.6524 C.ar    1  UNL1       -0.0162
      5 C         -16.1028   -0.9582   20.0035 C.ar    1  UNL1        0.0257
      6 C         -15.5733    0.2689   19.3225 C.ar    1  UNL1        0.1398
      7 F         -16.1253    1.6188   19.6736 F       1  UNL1       -0.2042
      8 C         -14.4918    0.1462   18.2904 C.ar    1  UNL1        0.0296
      9 C         -13.9398   -1.2036   17.9393 C.ar    1  UNL1        0.0017
     10 C         -14.4693   -2.4306   18.6202 C.ar    1  UNL1       -0.0077
     11 C         -13.0902   -4.4600   17.5597 C.3     1  UNL1        0.0763
     12 C         -10.7044   -4.1742   18.5477 C.ar    1  UNL1        0.2393
     13 N          -9.4499   -4.7759   19.1081 N.ar    1  UNL1       -0.2075
     14 C          -9.3265   -6.2648   19.2410 C.ar    1  UNL1        0.1227
     15 C         -10.4578   -7.1523   18.8134 C.ar    1  UNL1        0.1193
     16 N         -11.7123   -6.5506   18.2530 N.ar    1  UNL1       -0.2415
     17 C         -11.8357   -5.0615   18.1201 C.ar    1  UNL1        0.1163
     18 C         -10.4355   -2.0115   17.1333 C.3     1  UNL1        0.2543
     19 O         -10.8277   -2.6852   18.4149 O.3     1  UNL1       -0.4553
     20 C         -14.9772   -6.1466   19.6198 C.3     1  UNL1        0.0394
     21 C         -15.6740   -7.0352   18.6325 C.3     1  UNL1        0.0765
     22 N         -15.7806   -8.5084   18.8942 N.3     1  UNL1       -0.2700
     23 C         -16.5732   -9.0065   20.0662 C.3     1  UNL1        0.0897
     24 C         -15.0946   -9.4834   17.9838 C.3     1  UNL1        0.0897
@<TRIPOS>BOND
     1    18    19    1
     2    19    12    1
     3    12    13   ar
     4    13    14   ar
     5    14    15   ar
     6    15    16   ar
     7    16    17   ar
     8    17    11    1
     9    11     1    1
    10     1     2    2
    11     2    20    1
    12    20    21    1
    13    21    22    1
    14    22    23    1
    15    22    24    1
    16     2     3    1
    17     3     4    1
    18     4     5   ar
    19     5     6   ar
    20     6     7    1
    21     6     8   ar
    22     8     9   ar
    23     9    10   ar
    24    17    12   ar
    25    10     1    1
    26    10     4   ar
@<TRIPOS>MOLECULE
*****
 24 26 0 0 0
SMALL
GASTEIGER

@<TRIPOS>ATOM
      1 C           2.6693   -1.2888   20.7315 C.2     1  UNL1       -0.0238
      2 C           3.6495   -2.3685   20.3804 C.2     1  UNL1       -0.0420
      3 C           4.4430   -2.6924   21.6114 C.3     1  UNL1        0.0481
      4 C           3.9531   -1.8130   22.7234 C.ar    1  UNL1       -0.0162
      5 C           4.3635   -1.6900   24.1609 C.ar    1  UNL1        0.0257
      6 C           3.6778   -0.6995   25.0545 C.ar    1  UNL1        0.1398
      7 F           4.0882   -0.5765   26.4921 F       1  UNL1       -0.2042
      8 C           2.5816    0.1680   24.5107 C.ar    1  UNL1        0.0296
      9 C           2.1711    0.0450   23.0733 C.ar    1  UNL1        0.0017
     10 C           2.8568   -0.9455   22.1796 C.ar    1  UNL1       -0.0077
     11 C           1.6758   -0.6624   19.7984 C.3     1  UNL1        0.0763
     12 C           2.1464    1.8914   19.7168 C.ar    1  UNL1        0.2393
     13 N           1.6934    3.3036   19.9413 N.ar    1  UNL1       -0.2075
     14 C           0.3168    3.5742   20.4721 C.ar    1  UNL1        0.1227
     15 C          -0.6068    2.4327   20.7783 C.ar    1  UNL1        0.1193
     16 N          -0.1538    1.0205   20.5538 N.ar    1  UNL1       -0.2415
     17 C           1.2229    0.7498   20.0230 C.ar    1  UNL1        0.1163
     18 C           4.7151    1.7640   20.0852 C.3     1  UNL1        0.2543
     19 O           3.5230    1.6208   19.1860 O.3     1  UNL1       -0.4553
     20 C           3.8085   -3.0114   19.0345 C.3     1  UNL1        0.0394
     21 C           4.9867   -2.6661   18.1728 C.3     1  UNL1        0.0765
     22 N           5.0364   -1.3448   17.4646 N.3     1  UNL1       -0.2700
     23 C           6.2996   -0.5359   17.4740 C.3     1  UNL1        0.0897
     24 C           3.8230   -0.8325   16.7469 C.3     1  UNL1        0.0897
@<TRIPOS>BOND
     1    18    19    1
     2    19    12    1
     3    12    13   ar
     4    13    14   ar
     5    14    15   ar
     6    15    16   ar
     7    16    17   ar
     8    17    11    1
     9    11     1    1
    10     1     2    2
    11     2    20    1
    12    20    21    1
    13    21    22    1
    14    22    23    1
    15    22    24    1
    16     2     3    1
    17     3     4    1
    18     4     5   ar
    19     5     6   ar
    20     6     7    1
    21     6     8   ar
    22     8     9   ar
    23     9    10   ar
    24    17    12   ar
    25    10     1    1
    26    10     4   ar
@<TRIPOS>MOLECULE
*****
 24 26 0 0 0
SMALL
GASTEIGER

@<TRIPOS>ATOM
      1 C           4.0720   -2.3665   21.5364 C.2     1  UNL1       -0.0238
      2 C           3.5182   -2.3081   20.1436 C.2     1  UNL1       -0.0420
      3 C           2.4753   -1.2307   20.1043 C.3     1  UNL1        0.0481
      4 C           2.3845   -0.6233   21.4728 C.ar    1  UNL1       -0.0162
      5 C           1.5307    0.4783   22.0273 C.ar    1  UNL1        0.0257
      6 C           1.6638    0.8779   23.4670 C.ar    1  UNL1        0.1398
      7 F           0.8100    1.9796   24.0216 F       1  UNL1       -0.2042
      8 C           2.6506    0.1760   24.3521 C.ar    1  UNL1        0.0296
      9 C           3.5044   -0.9256   23.7975 C.ar    1  UNL1        0.0017
     10 C           3.3713   -1.3252   22.3579 C.ar    1  UNL1       -0.0077
     11 C           5.1392   -3.3019   22.0224 C.3     1  UNL1        0.0763
     12 C           7.6443   -3.9760   22.1625 C.ar    1  UNL1        0.2393
     13 N           9.0877   -3.6762   21.8851 N.ar    1  UNL1       -0.2075
     14 C           9.4692   -2.4028   21.1903 C.ar    1  UNL1        0.1227
     15 C           8.4073   -1.4290   20.7728 C.ar    1  UNL1        0.1193
     16 N           6.9640   -1.7287   21.0502 N.ar    1  UNL1       -0.2415
     17 C           6.5824   -3.0022   21.7451 C.ar    1  UNL1        0.1163
     18 C           7.6525   -5.4683   24.2892 C.3     1  UNL1        0.2543
     19 O           7.2629   -5.2495   22.8572 O.3     1  UNL1       -0.4553
     20 C           3.9343   -3.1748   18.9922 C.3     1  UNL1        0.0394
     21 C           5.1044   -2.7800   18.1408 C.3     1  UNL1        0.0765
     22 N           5.1456   -1.4216   17.5059 N.3     1  UNL1       -0.2700
     23 C           3.9414   -0.8949   16.7828 C.3     1  UNL1        0.0897
     24 C           6.3907   -0.5900   17.5940 C.3     1  UNL1        0.0897
@<TRIPOS>BOND
     1    18    19    1
     2    19    12    1
     3    12    13   ar
     4    13    14   ar
     5    14    15   ar
     6    15    16   ar
     7    16    17   ar
     8    17    11    1
     9    11     1    1
    10     1     2    2
    11     2    20    1
    12    20    21    1
    13    21    22    1
    14    22    23    1
    15    22    24    1
    16     2     3    1
    17     3     4    1
    18     4     5   ar
    19     5     6   ar
    20     6     7    1
    21     6     8   ar
    22     8     9   ar
    23     9    10   ar
    24    17    12   ar
    25    10     1    1
    26    10     4   ar
