@<TRIPOS>MOLECULE
*****
 21 23 0 0 0
SMALL
GASTEIGER

@<TRIPOS>ATOM
      1 C          -5.9837  -19.5767   21.5625 C.3     1  UNL1        0.0591
      2 C          -5.0468  -18.5726   22.1657 C.3     1  UNL1        0.0418
      3 C          -5.5842  -17.4680   23.0268 C.ar    1  UNL1       -0.0245
      4 C          -4.6474  -16.4639   23.6301 C.ar    1  UNL1       -0.0045
      5 C          -5.1848  -15.3595   24.4911 C.ar    1  UNL1       -0.0003
      6 C          -6.6591  -15.2592   24.7488 C.ar    1  UNL1       -0.0003
      7 C          -7.5959  -16.2633   24.1455 C.ar    1  UNL1       -0.0043
      8 C          -7.0585  -17.3677   23.2845 C.ar    1  UNL1       -0.0223
      9 C          -7.9954  -18.3719   22.6812 C.3     1  UNL1        0.0456
     10 C          -7.4580  -19.4763   21.8202 C.3     1  UNL1        0.0248
     11 C          -9.4697  -18.2716   22.9389 C.ar    1  UNL1       -0.0175
     12 C         -10.0566  -18.8738   24.1811 C.ar    1  UNL1       -0.0030
     13 C         -11.5309  -18.7734   24.4388 C.ar    1  UNL1        0.0119
     14 C         -12.4183  -18.0709   23.4543 C.ar    1  UNL1        0.0682
     15 CL        -13.8925  -17.9706   23.7120 Cl      1  UNL1       -0.0814
     16 C         -11.8313  -17.4687   22.2122 C.ar    1  UNL1        0.0679
     17 CL        -12.7187  -16.7662   21.2277 Cl      1  UNL1       -0.0814
     18 C         -10.3570  -17.5691   21.9545 C.ar    1  UNL1        0.0083
     19 C          -4.1403  -20.5057   19.9848 C.3     1  UNL1        0.0859
     20 N          -5.4463  -20.6812   20.7014 N.3     1  UNL1       -0.2971
     21 H          -5.3452  -21.4997   21.3015 H       1  UNL1        0.1233
@<TRIPOS>BOND
     1    19    20    1
     2     1    20    1
     3     1     2    1
     4     2     3    1
     5     3     4   ar
     6     4     5   ar
     7     5     6   ar
     8     6     7   ar
     9     7     8   ar
    10     8     9    1
    11     9    11    1
    12    11    12   ar
    13    12    13   ar
    14    13    14   ar
    15    14    15    1
    16    14    16   ar
    17    16    17    1
    18    16    18   ar
    19     9    10    1
    20    10     1    1
    21     8     3   ar
    22    18    11   ar
    23    20    21    1
@<TRIPOS>MOLECULE
*****
 21 23 0 0 0
SMALL
GASTEIGER

@<TRIPOS>ATOM
      1 C         -12.0783  -17.9281   22.4505 C.3     1  UNL1        0.0591
      2 C         -11.7093  -18.7320   21.2392 C.3     1  UNL1        0.0418
      3 C         -10.2680  -18.8913   20.8552 C.ar    1  UNL1       -0.0245
      4 C          -9.8990  -19.6953   19.6438 C.ar    1  UNL1       -0.0045
      5 C          -8.4578  -19.8545   19.2599 C.ar    1  UNL1       -0.0003
      6 C          -7.3855  -19.2098   20.0873 C.ar    1  UNL1       -0.0003
      7 C          -7.7545  -18.4058   21.2987 C.ar    1  UNL1       -0.0043
      8 C          -9.1957  -18.2466   21.6826 C.ar    1  UNL1       -0.0223
      9 C          -9.5648  -17.4426   22.8940 C.3     1  UNL1        0.0456
     10 C         -11.0060  -17.2833   23.2780 C.3     1  UNL1        0.0248
     11 C          -8.4926  -16.7979   23.7215 C.ar    1  UNL1       -0.0175
     12 C          -7.1759  -16.4416   23.0973 C.ar    1  UNL1       -0.0030
     13 C          -6.1037  -15.7969   23.9247 C.ar    1  UNL1        0.0119
     14 C          -6.3481  -15.5084   25.3763 C.ar    1  UNL1        0.0682
     15 CL         -5.2759  -14.8637   26.2038 Cl      1  UNL1       -0.0814
     16 C          -7.6647  -15.8647   26.0004 C.ar    1  UNL1        0.0679
     17 CL         -7.9092  -15.5762   27.4521 Cl      1  UNL1       -0.0814
     18 C          -8.7369  -16.5094   25.1730 C.ar    1  UNL1        0.0083
     19 C         -13.9643  -18.0935   24.2297 C.3     1  UNL1        0.0859
     20 N         -13.5196  -17.7688   22.8345 N.3     1  UNL1       -0.2971
     21 H         -13.7625  -16.7923   22.6678 H       1  UNL1        0.1233
@<TRIPOS>BOND
     1    19    20    1
     2     1    20    1
     3     1     2    1
     4     2     3    1
     5     3     4   ar
     6     4     5   ar
     7     5     6   ar
     8     6     7   ar
     9     7     8   ar
    10     8     9    1
    11     9    11    1
    12    11    12   ar
    13    12    13   ar
    14    13    14   ar
    15    14    15    1
    16    14    16   ar
    17    16    17    1
    18    16    18   ar
    19     9    10    1
    20    10     1    1
    21     8     3   ar
    22    18    11   ar
    23    20    21    1
@<TRIPOS>MOLECULE
*****
 21 23 0 0 0
SMALL
GASTEIGER

@<TRIPOS>ATOM
      1 C          -5.6164  -16.2089   23.9276 C.3     1  UNL1        0.0591
      2 C          -4.6556  -17.1676   23.2892 C.3     1  UNL1        0.0418
      3 C          -5.1678  -18.2654   22.4046 C.ar    1  UNL1       -0.0245
      4 C          -4.2070  -19.2242   21.7663 C.ar    1  UNL1       -0.0045
      5 C          -4.7193  -20.3219   20.8818 C.ar    1  UNL1       -0.0003
      6 C          -6.1924  -20.4610   20.6355 C.ar    1  UNL1       -0.0003
      7 C          -7.1532  -19.5022   21.2739 C.ar    1  UNL1       -0.0043
      8 C          -6.6410  -18.4045   22.1584 C.ar    1  UNL1       -0.0223
      9 C          -7.6018  -17.4456   22.7968 C.3     1  UNL1        0.0456
     10 C          -7.0896  -16.3479   23.6814 C.3     1  UNL1        0.0248
     11 C          -9.0749  -17.5846   22.5506 C.ar    1  UNL1       -0.0175
     12 C          -9.8883  -18.5314   23.3826 C.ar    1  UNL1       -0.0030
     13 C         -11.3614  -18.6704   23.1364 C.ar    1  UNL1        0.0119
     14 C         -12.0212  -17.8627   22.0582 C.ar    1  UNL1        0.0682
     15 CL        -13.4943  -18.0017   21.8120 Cl      1  UNL1       -0.0814
     16 C         -11.2078  -16.9159   21.2263 C.ar    1  UNL1        0.0679
     17 CL        -11.8675  -16.1081   20.1482 Cl      1  UNL1       -0.0814
     18 C          -9.7347  -16.7769   21.4726 C.ar    1  UNL1        0.0083
     19 C          -5.5314  -15.0442   26.2485 C.3     1  UNL1        0.0859
     20 N          -5.1042  -15.1110   24.8122 N.3     1  UNL1       -0.2971
     21 H          -4.0867  -15.1823   24.8107 H       1  UNL1        0.1233
@<TRIPOS>BOND
     1    19    20    1
     2     1    20    1
     3     1     2    1
     4     2     3    1
     5     3     4   ar
     6     4     5   ar
     7     5     6   ar
     8     6     7   ar
     9     7     8   ar
    10     8     9    1
    11     9    11    1
    12    11    12   ar
    13    12    13   ar
    14    13    14   ar
    15    14    15    1
    16    14    16   ar
    17    16    17    1
    18    16    18   ar
    19     9    10    1
    20    10     1    1
    21     8     3   ar
    22    18    11   ar
    23    20    21    1
@<TRIPOS>MOLECULE
*****
 21 23 0 0 0
SMALL
GASTEIGER

@<TRIPOS>ATOM
      1 C          -8.0967  -19.2602   20.6749 C.3     1  UNL1        0.0591
      2 C          -9.4458  -18.9567   20.0939 C.3     1  UNL1        0.0418
      3 C         -10.3619  -17.9928   20.7881 C.ar    1  UNL1       -0.0245
      4 C         -11.7110  -17.6893   20.2070 C.ar    1  UNL1       -0.0045
      5 C         -12.6269  -16.7255   20.9012 C.ar    1  UNL1       -0.0003
      6 C         -12.1937  -16.0651   22.1765 C.ar    1  UNL1       -0.0003
      7 C         -10.8446  -16.3685   22.7575 C.ar    1  UNL1       -0.0043
      8 C          -9.9287  -17.3324   22.0633 C.ar    1  UNL1       -0.0223
      9 C          -8.5794  -17.6359   22.6444 C.3     1  UNL1        0.0456
     10 C          -7.6635  -18.5998   21.9502 C.3     1  UNL1        0.0248
     11 C          -8.1462  -16.9755   23.9196 C.ar    1  UNL1       -0.0175
     12 C          -9.0038  -17.0779   25.1461 C.ar    1  UNL1       -0.0030
     13 C          -8.5706  -16.4175   26.4213 C.ar    1  UNL1        0.0119
     14 C          -7.2798  -15.6547   26.4700 C.ar    1  UNL1        0.0682
     15 CL         -6.8466  -14.9944   27.7453 Cl      1  UNL1       -0.0814
     16 C          -6.4223  -15.5525   25.2436 C.ar    1  UNL1        0.0679
     17 CL         -5.1316  -14.7897   25.2923 Cl      1  UNL1       -0.0814
     18 C          -6.8555  -16.2129   23.9684 C.ar    1  UNL1        0.0083
     19 C          -5.8116  -20.4885   20.5337 C.3     1  UNL1        0.0859
     20 N          -7.1806  -20.2241   19.9807 N.3     1  UNL1       -0.2971
     21 H          -7.6648  -21.1214   19.9516 H       1  UNL1        0.1233
@<TRIPOS>BOND
     1    19    20    1
     2     1    20    1
     3     1     2    1
     4     2     3    1
     5     3     4   ar
     6     4     5   ar
     7     5     6   ar
     8     6     7   ar
     9     7     8   ar
    10     8     9    1
    11     9    11    1
    12    11    12   ar
    13    12    13   ar
    14    13    14   ar
    15    14    15    1
    16    14    16   ar
    17    16    17    1
    18    16    18   ar
    19     9    10    1
    20    10     1    1
    21     8     3   ar
    22    18    11   ar
    23    20    21    1
@<TRIPOS>MOLECULE
*****
 21 23 0 0 0
SMALL
GASTEIGER

@<TRIPOS>ATOM
      1 C          -5.0853  -16.9833   23.2049 C.3     1  UNL1        0.0591
      2 C          -4.8646  -16.3253   24.5347 C.3     1  UNL1        0.0418
      3 C          -6.0391  -15.9266   25.3783 C.ar    1  UNL1       -0.0245
      4 C          -5.8184  -15.2686   26.7081 C.ar    1  UNL1       -0.0045
      5 C          -6.9929  -14.8699   27.5517 C.ar    1  UNL1       -0.0003
      6 C          -8.3880  -15.1292   27.0655 C.ar    1  UNL1       -0.0003
      7 C          -8.6087  -15.7872   25.7357 C.ar    1  UNL1       -0.0043
      8 C          -7.4342  -16.1859   24.8921 C.ar    1  UNL1       -0.0223
      9 C          -7.6549  -16.8439   23.5623 C.3     1  UNL1        0.0456
     10 C          -6.4804  -17.2425   22.7187 C.3     1  UNL1        0.0248
     11 C          -9.0500  -17.1031   23.0761 C.ar    1  UNL1       -0.0175
     12 C          -9.9231  -18.0895   23.7936 C.ar    1  UNL1       -0.0030
     13 C         -11.3182  -18.3488   23.3074 C.ar    1  UNL1        0.0119
     14 C         -11.8402  -17.6217   22.1036 C.ar    1  UNL1        0.0682
     15 CL        -13.2354  -17.8810   21.6174 Cl      1  UNL1       -0.0814
     16 C         -10.9671  -16.6354   21.3862 C.ar    1  UNL1        0.0679
     17 CL        -11.4891  -15.9083   20.1824 Cl      1  UNL1       -0.0814
     18 C          -9.5720  -16.3761   21.8724 C.ar    1  UNL1        0.0083
     19 C          -2.6782  -16.5275   22.3398 C.3     1  UNL1        0.0859
     20 N          -3.9108  -17.3820   22.3613 N.3     1  UNL1       -0.2971
     21 H          -3.6218  -18.3077   22.6775 H       1  UNL1        0.1233
@<TRIPOS>BOND
     1    19    20    1
     2     1    20    1
     3     1     2    1
     4     2     3    1
     5     3     4   ar
     6     4     5   ar
     7     5     6   ar
     8     6     7   ar
     9     7     8   ar
    10     8     9    1
    11     9    11    1
    12    11    12   ar
    13    12    13   ar
    14    13    14   ar
    15    14    15    1
    16    14    16   ar
    17    16    17    1
    18    16    18   ar
    19     9    10    1
    20    10     1    1
    21     8     3   ar
    22    18    11   ar
    23    20    21    1
@<TRIPOS>MOLECULE
*****
 21 23 0 0 0
SMALL
GASTEIGER

@<TRIPOS>ATOM
      1 C          -5.3165  -16.1739   24.1568 C.3     1  UNL1        0.0591
      2 C          -4.2838  -17.0756   23.5483 C.3     1  UNL1        0.0418
      3 C          -4.6941  -18.1254   22.5586 C.ar    1  UNL1       -0.0245
      4 C          -3.6614  -19.0271   21.9501 C.ar    1  UNL1       -0.0045
      5 C          -4.0718  -20.0769   20.9604 C.ar    1  UNL1       -0.0003
      6 C          -5.5150  -20.2249   20.5792 C.ar    1  UNL1       -0.0003
      7 C          -6.5477  -19.3232   21.1877 C.ar    1  UNL1       -0.0043
      8 C          -6.1373  -18.2735   22.1773 C.ar    1  UNL1       -0.0223
      9 C          -7.1701  -17.3717   22.7859 C.3     1  UNL1        0.0456
     10 C          -6.7597  -16.3219   23.7756 C.3     1  UNL1        0.0248
     11 C          -8.6133  -17.5198   22.4047 C.ar    1  UNL1       -0.0175
     12 C          -9.4213  -16.3091   22.0421 C.ar    1  UNL1       -0.0030
     13 C         -10.8645  -16.4571   21.6609 C.ar    1  UNL1        0.0119
     14 C         -11.4996  -17.8159   21.6423 C.ar    1  UNL1        0.0682
     15 CL        -12.9428  -17.9640   21.2611 Cl      1  UNL1       -0.0814
     16 C         -10.6917  -19.0266   22.0048 C.ar    1  UNL1        0.0679
     17 CL        -11.3269  -20.3854   21.9862 Cl      1  UNL1       -0.0814
     18 C          -9.2485  -18.8785   22.3860 C.ar    1  UNL1        0.0083
     19 C          -5.6610  -14.9707   26.4336 C.3     1  UNL1        0.0859
     20 N          -4.9062  -15.1240   25.1465 N.3     1  UNL1       -0.2971
     21 H          -3.9360  -15.3172   25.3954 H       1  UNL1        0.1233
@<TRIPOS>BOND
     1    19    20    1
     2     1    20    1
     3     1     2    1
     4     2     3    1
     5     3     4   ar
     6     4     5   ar
     7     5     6   ar
     8     6     7   ar
     9     7     8   ar
    10     8     9    1
    11     9    11    1
    12    11    12   ar
    13    12    13   ar
    14    13    14   ar
    15    14    15    1
    16    14    16   ar
    17    16    17    1
    18    16    18   ar
    19     9    10    1
    20    10     1    1
    21     8     3   ar
    22    18    11   ar
    23    20    21    1
@<TRIPOS>MOLECULE
*****
 21 23 0 0 0
SMALL
GASTEIGER

@<TRIPOS>ATOM
      1 C          -7.8207  -15.9140   24.6127 C.3     1  UNL1        0.0591
      2 C          -9.2727  -16.2890   24.6474 C.3     1  UNL1        0.0418
      3 C          -9.7774  -17.4140   23.7931 C.ar    1  UNL1       -0.0245
      4 C         -11.2293  -17.7889   23.8277 C.ar    1  UNL1       -0.0045
      5 C         -11.7340  -18.9139   22.9735 C.ar    1  UNL1       -0.0003
      6 C         -10.7867  -19.6639   22.0846 C.ar    1  UNL1       -0.0003
      7 C          -9.3347  -19.2889   22.0500 C.ar    1  UNL1       -0.0043
      8 C          -8.8301  -18.1640   22.9042 C.ar    1  UNL1       -0.0223
      9 C          -7.3781  -17.7890   22.8696 C.3     1  UNL1        0.0456
     10 C          -6.8734  -16.6640   23.7238 C.3     1  UNL1        0.0248
     11 C          -6.4308  -18.5390   21.9807 C.ar    1  UNL1       -0.0175
     12 C          -6.9126  -19.1016   20.6763 C.ar    1  UNL1       -0.0030
     13 C          -5.9653  -19.8516   19.7874 C.ar    1  UNL1        0.0119
     14 C          -4.5362  -20.0390   20.2029 C.ar    1  UNL1        0.0682
     15 CL         -3.5889  -20.7890   19.3140 Cl      1  UNL1       -0.0814
     16 C          -4.0544  -19.4764   21.5072 C.ar    1  UNL1        0.0679
     17 CL         -2.6253  -19.6637   21.9227 Cl      1  UNL1       -0.0814
     18 C          -5.0017  -18.7264   22.3961 C.ar    1  UNL1        0.0083
     19 C          -6.4394  -15.0798   26.6489 C.3     1  UNL1        0.0859
     20 N          -7.3160  -14.7890   25.4670 N.3     1  UNL1       -0.2971
     21 H          -6.7876  -14.1681   24.8541 H       1  UNL1        0.1233
@<TRIPOS>BOND
     1    19    20    1
     2     1    20    1
     3     1     2    1
     4     2     3    1
     5     3     4   ar
     6     4     5   ar
     7     5     6   ar
     8     6     7   ar
     9     7     8   ar
    10     8     9    1
    11     9    11    1
    12    11    12   ar
    13    12    13   ar
    14    13    14   ar
    15    14    15    1
    16    14    16   ar
    17    16    17    1
    18    16    18   ar
    19     9    10    1
    20    10     1    1
    21     8     3   ar
    22    18    11   ar
    23    20    21    1
@<TRIPOS>MOLECULE
*****
 21 23 0 0 0
SMALL
GASTEIGER

@<TRIPOS>ATOM
      1 C         -11.7475  -16.3893   20.3510 C.3     1  UNL1        0.0591
      2 C         -12.7634  -16.7475   21.3948 C.3     1  UNL1        0.0418
      3 C         -12.3575  -17.5597   22.5889 C.ar    1  UNL1       -0.0245
      4 C         -13.3734  -17.9178   23.6327 C.ar    1  UNL1       -0.0045
      5 C         -12.9676  -18.7300   24.8267 C.ar    1  UNL1       -0.0003
      6 C         -11.5459  -19.1840   24.9768 C.ar    1  UNL1       -0.0003
      7 C         -10.5300  -18.8259   23.9330 C.ar    1  UNL1       -0.0043
      8 C         -10.9358  -18.0137   22.7390 C.ar    1  UNL1       -0.0223
      9 C          -9.9199  -17.6555   21.6951 C.3     1  UNL1        0.0456
     10 C         -10.3257  -16.8433   20.5011 C.3     1  UNL1        0.0248
     11 C          -8.4982  -18.1095   21.8452 C.ar    1  UNL1       -0.0175
     12 C          -7.5531  -17.3390   22.7189 C.ar    1  UNL1       -0.0030
     13 C          -6.1313  -17.7930   22.8690 C.ar    1  UNL1        0.0119
     14 C          -5.6547  -19.0176   22.1455 C.ar    1  UNL1        0.0682
     15 CL         -4.2330  -19.4716   22.2956 Cl      1  UNL1       -0.0814
     16 C          -6.5998  -19.7880   21.2719 C.ar    1  UNL1        0.0679
     17 CL         -6.1231  -21.0126   20.5484 Cl      1  UNL1       -0.0814
     18 C          -8.0215  -19.3340   21.1218 C.ar    1  UNL1        0.0083
     19 C         -11.1194  -14.8163   18.3809 C.3     1  UNL1        0.0859
     20 N         -12.1533  -15.5771   19.1569 N.3     1  UNL1       -0.2971
     21 H         -12.5996  -16.2191   18.5020 H       1  UNL1        0.1233
@<TRIPOS>BOND
     1    19    20    1
     2     1    20    1
     3     1     2    1
     4     2     3    1
     5     3     4   ar
     6     4     5   ar
     7     5     6   ar
     8     6     7   ar
     9     7     8   ar
    10     8     9    1
    11     9    11    1
    12    11    12   ar
    13    12    13   ar
    14    13    14   ar
    15    14    15    1
    16    14    16   ar
    17    16    17    1
    18    16    18   ar
    19     9    10    1
    20    10     1    1
    21     8     3   ar
    22    18    11   ar
    23    20    21    1
@<TRIPOS>MOLECULE
*****
 21 23 0 0 0
SMALL
GASTEIGER

@<TRIPOS>ATOM
      1 C          -8.9787  -16.2830   23.7600 C.3     1  UNL1        0.0591
      2 C         -10.1153  -16.7291   22.8888 C.3     1  UNL1        0.0418
      3 C          -9.8690  -17.7030   21.7748 C.ar    1  UNL1       -0.0245
      4 C         -11.0057  -18.1491   20.9036 C.ar    1  UNL1       -0.0045
      5 C         -10.7593  -19.1230   19.7897 C.ar    1  UNL1       -0.0003
      6 C          -9.3764  -19.6508   19.5470 C.ar    1  UNL1       -0.0003
      7 C          -8.2398  -19.2047   20.4183 C.ar    1  UNL1       -0.0043
      8 C          -8.4861  -18.2308   21.5322 C.ar    1  UNL1       -0.0223
      9 C          -7.3494  -17.7847   22.4035 C.3     1  UNL1        0.0456
     10 C          -7.5958  -16.8108   23.5174 C.3     1  UNL1        0.0248
     11 C          -5.9665  -18.3125   22.1608 C.ar    1  UNL1       -0.0175
     12 C          -4.8185  -17.8172   22.9896 C.ar    1  UNL1       -0.0030
     13 C          -3.4356  -18.3451   22.7470 C.ar    1  UNL1        0.0119
     14 C          -3.2006  -19.3681   21.6754 C.ar    1  UNL1        0.0682
     15 CL         -1.8177  -19.8960   21.4327 Cl      1  UNL1       -0.0814
     16 C          -4.3486  -19.8634   20.8466 C.ar    1  UNL1        0.0679
     17 CL         -4.1136  -20.8865   19.7750 Cl      1  UNL1       -0.0814
     18 C          -5.7315  -19.3356   21.0893 C.ar    1  UNL1        0.0083
     19 C          -8.4569  -15.4272   26.1570 C.3     1  UNL1        0.0859
     20 N          -9.2250  -15.3091   24.8740 N.3     1  UNL1       -0.2971
     21 H          -9.0329  -14.3796   24.5004 H       1  UNL1        0.1233
@<TRIPOS>BOND
     1    19    20    1
     2     1    20    1
     3     1     2    1
     4     2     3    1
     5     3     4   ar
     6     4     5   ar
     7     5     6   ar
     8     6     7   ar
     9     7     8   ar
    10     8     9    1
    11     9    11    1
    12    11    12   ar
    13    12    13   ar
    14    13    14   ar
    15    14    15    1
    16    14    16   ar
    17    16    17    1
    18    16    18   ar
    19     9    10    1
    20    10     1    1
    21     8     3   ar
    22    18    11   ar
    23    20    21    1
