@<TRIPOS>MOLECULE
*****
 24 27 0 0 0
SMALL
GASTEIGER

@<TRIPOS>ATOM
      1 C         -13.4798  -18.3432   24.0794 C.2     1  UNL1        0.1219
      2 C         -12.1353  -18.7639   24.5944 C.2     1  UNL1        0.0285
      3 C         -10.9189  -18.6085   23.7304 C.2     1  UNL1       -0.0178
      4 C          -9.5744  -19.0292   24.2454 C.3     1  UNL1        0.0312
      5 C         -11.0472  -18.0325   22.3514 C.2     1  UNL1        0.0179
      6 C         -10.0342  -17.7609   21.2789 C.2     1  UNL1        0.0955
      7 C         -10.7527  -17.1724   20.1010 C.2     1  UNL1        0.1049
      8 N         -12.2097  -17.0803   20.4455 N.2     1  UNL1       -0.2475
      9 C         -12.3917  -17.6119   21.8363 C.2     1  UNL1        0.0665
     10 C         -13.6080  -17.7672   22.7003 C.3     1  UNL1        0.1095
     11 C         -14.5630  -18.4738   26.4372 C.3     1  UNL1        0.2520
     12 O         -14.6961  -18.4985   24.9433 O.2     1  UNL1       -0.4753
     13 C          -8.5614  -18.0305   21.3686 C.2     1  UNL1        0.3428
     14 O          -8.0325  -19.4065   21.0910 O.2     1  UNL1       -0.2448
     15 O          -7.6174  -16.9242   21.7359 O.3     1  UNL1       -0.4454
     16 C          -8.0985  -15.7733   22.5690 C.3     1  UNL1        0.2087
     17 C          -7.6645  -15.6498   23.9995 C.3     1  UNL1        0.0445
     18 C          -8.6789  -15.7354   25.1011 C.3     1  UNL1        0.0210
     19 C          -8.2448  -15.6119   26.5316 C.3     1  UNL1        0.0722
     20 N          -6.7963  -15.4029   26.8604 N.3     1  UNL1       -0.2727
     21 C          -5.7819  -15.3174   25.7588 C.3     1  UNL1        0.0722
     22 C          -6.2160  -15.4408   24.3283 C.3     1  UNL1        0.0210
     23 C          -6.9864  -15.4648   26.0617 C.3     1  UNL1        0.0722
     24 C          -7.3788  -15.5765   24.7682 C.3     1  UNL1        0.0210
@<TRIPOS>BOND
     1    11    12    1
     2    12     1    1
     3     1     2    2
     4     2     3    1
     5     3     4    1
     6     3     5    2
     7     5     6    1
     8     6    13    1
     9    13    14    2
    10    13    15    1
    11    15    16    1
    12    16    17    1
    13    17    18    1
    14    18    19    1
    15    19    20    1
    16    20    21    1
    17    21    22    1
    18    20    23    1
    19    23    24    1
    20     6     7    2
    21     7     8    1
    22     8     9    2
    23     9    10    1
    24    10     1    1
    25     9     5    1
    26    22    17    1
    27    24    17    1
@<TRIPOS>MOLECULE
*****
 24 27 0 0 0
SMALL
GASTEIGER

@<TRIPOS>ATOM
      1 C          -2.4010  -19.0657   21.0203 C.2     1  UNL1        0.1219
      2 C          -3.3499  -20.0996   20.4905 C.2     1  UNL1        0.0285
      3 C          -4.8018  -20.0464   20.8638 C.2     1  UNL1       -0.0178
      4 C          -5.7508  -21.0802   20.3341 C.3     1  UNL1        0.0312
      5 C          -5.3047  -18.9594   21.7669 C.2     1  UNL1        0.0179
      6 C          -6.6712  -18.6527   22.3040 C.2     1  UNL1        0.0955
      7 C          -6.5669  -17.4294   23.1657 C.2     1  UNL1        0.1049
      8 N          -5.1358  -16.9800   23.1612 N.2     1  UNL1       -0.2475
      9 C          -4.3557  -17.9255   22.2966 C.2     1  UNL1        0.0665
     10 C          -2.9039  -17.9787   21.9234 C.3     1  UNL1        0.1095
     11 C          -0.3444  -18.0169   19.8285 C.3     1  UNL1        0.2520
     12 O          -0.9492  -19.1189   20.6470 O.2     1  UNL1       -0.4753
     13 C          -7.9225  -19.4326   22.0278 C.2     1  UNL1        0.3428
     14 O          -8.4700  -20.3649   23.0675 O.2     1  UNL1       -0.2448
     15 O          -8.6262  -19.2801   20.7120 O.3     1  UNL1       -0.4454
     16 C         -10.1031  -19.5257   20.6183 C.3     1  UNL1        0.2087
     17 C         -11.0605  -18.6247   21.3405 C.3     1  UNL1        0.0445
     18 C         -11.5322  -17.3572   20.6917 C.3     1  UNL1        0.0210
     19 C         -12.4896  -16.4563   21.4140 C.3     1  UNL1        0.0722
     20 N         -12.9753  -16.8229   22.7850 N.3     1  UNL1       -0.2727
     21 C         -12.5036  -18.0904   23.4338 C.3     1  UNL1        0.0722
     22 C         -11.5462  -18.9913   22.7115 C.3     1  UNL1        0.0210
     23 C         -12.4510  -17.3481   22.4285 C.3     1  UNL1        0.0722
     24 C         -11.5853  -18.1628   21.7755 C.3     1  UNL1        0.0210
@<TRIPOS>BOND
     1    11    12    1
     2    12     1    1
     3     1     2    2
     4     2     3    1
     5     3     4    1
     6     3     5    2
     7     5     6    1
     8     6    13    1
     9    13    14    2
    10    13    15    1
    11    15    16    1
    12    16    17    1
    13    17    18    1
    14    18    19    1
    15    19    20    1
    16    20    21    1
    17    21    22    1
    18    20    23    1
    19    23    24    1
    20     6     7    2
    21     7     8    1
    22     8     9    2
    23     9    10    1
    24    10     1    1
    25     9     5    1
    26    22    17    1
    27    24    17    1
@<TRIPOS>MOLECULE
*****
 24 27 0 0 0
SMALL
GASTEIGER

@<TRIPOS>ATOM
      1 C          -5.8778  -19.0135   22.0379 C.2     1  UNL1        0.1219
      2 C          -6.7053  -17.8625   22.5283 C.2     1  UNL1        0.0285
      3 C          -8.0537  -17.5983   21.9267 C.2     1  UNL1       -0.0178
      4 C          -8.8813  -16.4473   22.4171 C.3     1  UNL1        0.0312
      5 C          -8.5746  -18.4850   20.8347 C.2     1  UNL1        0.0179
      6 C          -9.8568  -18.4711   20.0563 C.2     1  UNL1        0.0955
      7 C          -9.8217  -19.6135   19.0848 C.2     1  UNL1        0.1049
      8 N          -8.5178  -20.3334   19.2629 N.2     1  UNL1       -0.2475
      9 C          -7.7471  -19.6359   20.3443 C.2     1  UNL1        0.0665
     10 C          -6.3987  -19.9002   20.9459 C.3     1  UNL1        0.1095
     11 C          -3.3244  -18.5433   22.1312 C.3     1  UNL1        0.2520
     12 O          -4.5294  -19.2778   22.6395 O.2     1  UNL1       -0.4753
     13 C         -10.9773  -17.4875   20.2205 C.2     1  UNL1        0.3428
     14 O         -10.7822  -16.0548   19.8214 O.2     1  UNL1       -0.2448
     15 O         -12.2929  -17.9365   20.7839 O.3     1  UNL1       -0.4454
     16 C         -12.5091  -17.9464   22.2683 C.3     1  UNL1        0.2087
     17 C         -11.5449  -18.6688   23.1618 C.3     1  UNL1        0.0445
     18 C         -11.0249  -18.0006   24.4000 C.3     1  UNL1        0.0210
     19 C         -10.0607  -18.7230   25.2935 C.3     1  UNL1        0.0722
     20 N          -9.6166  -20.1137   24.9489 N.3     1  UNL1       -0.2727
     21 C         -10.1367  -20.7820   23.7107 C.3     1  UNL1        0.0722
     22 C         -11.1008  -20.0595   22.8172 C.3     1  UNL1        0.0210
     23 C         -10.1463  -19.7578   24.4286 C.3     1  UNL1        0.0722
     24 C         -11.0181  -19.1047   23.6206 C.3     1  UNL1        0.0210
@<TRIPOS>BOND
     1    11    12    1
     2    12     1    1
     3     1     2    2
     4     2     3    1
     5     3     4    1
     6     3     5    2
     7     5     6    1
     8     6    13    1
     9    13    14    2
    10    13    15    1
    11    15    16    1
    12    16    17    1
    13    17    18    1
    14    18    19    1
    15    19    20    1
    16    20    21    1
    17    21    22    1
    18    20    23    1
    19    23    24    1
    20     6     7    2
    21     7     8    1
    22     8     9    2
    23     9    10    1
    24    10     1    1
    25     9     5    1
    26    22    17    1
    27    24    17    1
@<TRIPOS>MOLECULE
*****
 24 27 0 0 0
SMALL
GASTEIGER

@<TRIPOS>ATOM
      1 C         -11.9785  -17.6053   22.8447 C.2     1  UNL1        0.1219
      2 C         -11.8289  -18.5477   21.6873 C.2     1  UNL1        0.0285
      3 C         -10.4616  -18.9247   21.1990 C.2     1  UNL1       -0.0178
      4 C         -10.3120  -19.8671   20.0417 C.3     1  UNL1        0.0312
      5 C          -9.2439  -18.3592   21.8680 C.2     1  UNL1        0.0179
      6 C          -7.7783  -18.5470   21.6096 C.2     1  UNL1        0.0955
      7 C          -7.0221  -17.7206   22.6072 C.2     1  UNL1        0.1049
      8 N          -8.0204  -17.0221   23.4822 N.2     1  UNL1       -0.2475
      9 C          -9.3935  -17.4168   23.0254 C.2     1  UNL1        0.0665
     10 C         -10.7608  -17.0398   23.5137 C.3     1  UNL1        0.1095
     11 C         -14.0740  -18.1249   24.2899 C.3     1  UNL1        0.2520
     12 O         -13.3457  -17.2283   23.3330 O.2     1  UNL1       -0.4753
     13 C          -7.1749  -19.4097   20.5411 C.2     1  UNL1        0.3428
     14 O          -7.4105  -19.0876   19.0952 O.2     1  UNL1       -0.2448
     15 O          -6.3359  -20.5944   20.9186 O.3     1  UNL1       -0.4454
     16 C          -4.9905  -20.7929   20.2857 C.3     1  UNL1        0.2087
     17 C          -3.9252  -19.7490   20.4453 C.3     1  UNL1        0.0445
     18 C          -3.6388  -18.7925   19.3259 C.3     1  UNL1        0.0210
     19 C          -2.5735  -17.7487   19.4855 C.3     1  UNL1        0.0722
     20 N          -1.7947  -17.6613   20.7645 N.3     1  UNL1       -0.2727
     21 C          -2.0811  -18.6178   21.8839 C.3     1  UNL1        0.0722
     22 C          -3.1464  -19.6617   21.7243 C.3     1  UNL1        0.0210
     23 C          -2.3688  -18.2501   20.7236 C.3     1  UNL1        0.0722
     24 C          -3.3320  -19.1940   20.5793 C.3     1  UNL1        0.0210
@<TRIPOS>BOND
     1    11    12    1
     2    12     1    1
     3     1     2    2
     4     2     3    1
     5     3     4    1
     6     3     5    2
     7     5     6    1
     8     6    13    1
     9    13    14    2
    10    13    15    1
    11    15    16    1
    12    16    17    1
    13    17    18    1
    14    18    19    1
    15    19    20    1
    16    20    21    1
    17    21    22    1
    18    20    23    1
    19    23    24    1
    20     6     7    2
    21     7     8    1
    22     8     9    2
    23     9    10    1
    24    10     1    1
    25     9     5    1
    26    22    17    1
    27    24    17    1
@<TRIPOS>MOLECULE
*****
 24 27 0 0 0
SMALL
GASTEIGER

@<TRIPOS>ATOM
      1 C          -2.1258  -18.6837   21.3731 C.2     1  UNL1        0.1219
      2 C          -2.8281  -17.8108   22.3706 C.2     1  UNL1        0.0285
      3 C          -4.3098  -17.9381   22.5666 C.2     1  UNL1       -0.0178
      4 C          -5.0121  -17.0652   23.5641 C.3     1  UNL1        0.0312
      5 C          -5.0892  -18.9381   21.7652 C.2     1  UNL1        0.0179
      6 C          -6.5478  -19.2874   21.7410 C.2     1  UNL1        0.0955
      7 C          -6.7470  -20.3761   20.7286 C.2     1  UNL1        0.1049
      8 N          -5.4116  -20.6997   20.1271 N.2     1  UNL1       -0.2475
      9 C          -4.3870  -19.8110   20.7677 C.2     1  UNL1        0.0665
     10 C          -2.9053  -19.6838   20.5717 C.3     1  UNL1        0.1095
     11 C          -0.1054  -17.8636   19.9608 C.3     1  UNL1        0.2520
     12 O          -0.6442  -18.5565   21.1771 O.2     1  UNL1       -0.4753
     13 C          -7.6191  -18.6584   22.5816 C.2     1  UNL1        0.3428
     14 O          -7.8331  -17.1744   22.5368 O.2     1  UNL1       -0.2448
     15 O          -8.4763  -19.5133   23.4672 O.3     1  UNL1       -0.4454
     16 C          -9.7805  -20.0505   22.9566 C.3     1  UNL1        0.2087
     17 C         -10.7482  -19.1372   22.2642 C.3     1  UNL1        0.0445
     18 C         -10.5983  -18.8580   20.7981 C.3     1  UNL1        0.0210
     19 C         -11.5661  -17.9447   20.1058 C.3     1  UNL1        0.0722
     20 N         -12.6838  -17.3106   20.8796 N.3     1  UNL1       -0.2727
     21 C         -12.8337  -17.5899   22.3457 C.3     1  UNL1        0.0722
     22 C         -11.8659  -18.5032   23.0380 C.3     1  UNL1        0.0210
     23 C         -12.1781  -17.8041   21.3023 C.3     1  UNL1        0.0722
     24 C         -11.3031  -18.6299   21.9284 C.3     1  UNL1        0.0210
@<TRIPOS>BOND
     1    11    12    1
     2    12     1    1
     3     1     2    2
     4     2     3    1
     5     3     4    1
     6     3     5    2
     7     5     6    1
     8     6    13    1
     9    13    14    2
    10    13    15    1
    11    15    16    1
    12    16    17    1
    13    17    18    1
    14    18    19    1
    15    19    20    1
    16    20    21    1
    17    21    22    1
    18    20    23    1
    19    23    24    1
    20     6     7    2
    21     7     8    1
    22     8     9    2
    23     9    10    1
    24    10     1    1
    25     9     5    1
    26    22    17    1
    27    24    17    1
@<TRIPOS>MOLECULE
*****
 24 27 0 0 0
SMALL
GASTEIGER

@<TRIPOS>ATOM
      1 C         -11.0163  -17.9160   20.5629 C.2     1  UNL1        0.1219
      2 C         -10.5327  -18.9131   19.5520 C.2     1  UNL1        0.0285
      3 C          -9.1453  -19.4739   19.6561 C.2     1  UNL1       -0.0178
      4 C          -8.6616  -20.4710   18.6452 C.3     1  UNL1        0.0312
      5 C          -8.2416  -19.0376   20.7709 C.2     1  UNL1        0.0179
      6 C          -6.8342  -19.4140   21.1279 C.2     1  UNL1        0.0955
      7 C          -6.4480  -18.6496   22.3593 C.2     1  UNL1        0.1049
      8 N          -7.6167  -17.8007   22.7635 N.2     1  UNL1       -0.2475
      9 C          -8.7253  -18.0404   21.7818 C.2     1  UNL1        0.0665
     10 C         -10.1126  -17.4797   21.6778 C.3     1  UNL1        0.1095
     11 C         -12.6069  -15.9307   20.0354 C.3     1  UNL1        0.2520
     12 O         -12.4036  -17.3552   20.4589 O.2     1  UNL1       -0.4753
     13 C          -5.9655  -20.3845   20.3839 C.2     1  UNL1        0.3428
     14 O          -6.1900  -21.8600   20.5343 O.2     1  UNL1       -0.2448
     15 O          -4.8722  -19.8796   19.4897 O.3     1  UNL1       -0.4454
     16 C          -3.4469  -19.9106   19.9564 C.3     1  UNL1        0.2087
     17 C          -2.8093  -18.6674   20.5022 C.3     1  UNL1        0.0445
     18 C          -1.8218  -17.9038   19.6706 C.3     1  UNL1        0.0210
     19 C          -1.1842  -16.6606   20.2165 C.3     1  UNL1        0.0722
     20 N          -1.5342  -16.1811   21.5940 N.3     1  UNL1       -0.2727
     21 C          -2.5218  -16.9447   22.4256 C.3     1  UNL1        0.0722
     22 C          -3.1593  -18.1878   21.8797 C.3     1  UNL1        0.0210
     23 C          -1.9094  -16.8677   21.3378 C.3     1  UNL1        0.0722
     24 C          -2.4860  -17.9918   20.8443 C.3     1  UNL1        0.0210
@<TRIPOS>BOND
     1    11    12    1
     2    12     1    1
     3     1     2    2
     4     2     3    1
     5     3     4    1
     6     3     5    2
     7     5     6    1
     8     6    13    1
     9    13    14    2
    10    13    15    1
    11    15    16    1
    12    16    17    1
    13    17    18    1
    14    18    19    1
    15    19    20    1
    16    20    21    1
    17    21    22    1
    18    20    23    1
    19    23    24    1
    20     6     7    2
    21     7     8    1
    22     8     9    2
    23     9    10    1
    24    10     1    1
    25     9     5    1
    26    22    17    1
    27    24    17    1
@<TRIPOS>MOLECULE
*****
 24 27 0 0 0
SMALL
GASTEIGER

@<TRIPOS>ATOM
      1 C          -6.7616  -20.3169   20.7300 C.2     1  UNL1        0.1219
      2 C          -7.1491  -20.3067   22.1791 C.2     1  UNL1        0.0285
      3 C          -8.4132  -19.6254   22.6126 C.2     1  UNL1       -0.0178
      4 C          -8.8007  -19.6152   24.0617 C.3     1  UNL1        0.0312
      5 C          -9.2897  -18.9542   21.5971 C.2     1  UNL1        0.0179
      6 C         -10.5848  -18.2085   21.7253 C.2     1  UNL1        0.0955
      7 C         -10.9978  -17.7577   20.3555 C.2     1  UNL1        0.1049
      8 N          -9.9579  -18.2250   19.3808 N.2     1  UNL1       -0.2475
      9 C          -8.9022  -18.9645   20.1481 C.2     1  UNL1        0.0665
     10 C          -7.6382  -19.6458   19.7145 C.3     1  UNL1        0.1095
     11 C          -4.2465  -20.1969   20.0899 C.3     1  UNL1        0.2520
     12 O          -5.4976  -20.9983   20.2965 O.2     1  UNL1       -0.4753
     13 C         -11.3353  -17.9575   22.9996 C.2     1  UNL1        0.3428
     14 O         -12.7540  -18.4242   23.1389 O.2     1  UNL1       -0.2448
     15 O         -10.6670  -17.2397   24.1346 O.3     1  UNL1       -0.4454
     16 C          -9.8114  -16.0381   23.8623 C.3     1  UNL1        0.2087
     17 C          -8.5188  -15.8549   24.6009 C.3     1  UNL1        0.0445
     18 C          -7.2204  -15.8461   23.8497 C.3     1  UNL1        0.0210
     19 C          -5.9278  -15.6629   24.5884 C.3     1  UNL1        0.0722
     20 N          -5.9336  -15.4885   26.0782 N.3     1  UNL1       -0.2727
     21 C          -7.2319  -15.4973   26.8294 C.3     1  UNL1        0.0722
     22 C          -8.5245  -15.6805   26.0907 C.3     1  UNL1        0.0210
     23 C          -6.6670  -15.5857   25.7170 C.3     1  UNL1        0.0722
     24 C          -7.8359  -15.7513   25.0492 C.3     1  UNL1        0.0210
@<TRIPOS>BOND
     1    11    12    1
     2    12     1    1
     3     1     2    2
     4     2     3    1
     5     3     4    1
     6     3     5    2
     7     5     6    1
     8     6    13    1
     9    13    14    2
    10    13    15    1
    11    15    16    1
    12    16    17    1
    13    17    18    1
    14    18    19    1
    15    19    20    1
    16    20    21    1
    17    21    22    1
    18    20    23    1
    19    23    24    1
    20     6     7    2
    21     7     8    1
    22     8     9    2
    23     9    10    1
    24    10     1    1
    25     9     5    1
    26    22    17    1
    27    24    17    1
@<TRIPOS>MOLECULE
*****
 24 27 0 0 0
SMALL
GASTEIGER

@<TRIPOS>ATOM
      1 C          -3.7483  -18.1520   22.3781 C.2     1  UNL1        0.1219
      2 C          -5.0534  -18.8476   22.1274 C.2     1  UNL1        0.0285
      3 C          -6.3251  -18.2795   22.6843 C.2     1  UNL1       -0.0178
      4 C          -7.6302  -18.9752   22.4336 C.3     1  UNL1        0.0312
      5 C          -6.2918  -17.0159   23.4917 C.2     1  UNL1        0.0179
      6 C          -7.3750  -16.2250   24.1634 C.2     1  UNL1        0.0955
      7 C          -6.7395  -15.0406   24.8291 C.2     1  UNL1        0.1049
      8 N          -5.2634  -15.0995   24.5689 N.2     1  UNL1       -0.2475
      9 C          -4.9867  -16.3202   23.7424 C.2     1  UNL1        0.0665
     10 C          -3.7150  -16.8882   23.1856 C.3     1  UNL1        0.1095
     11 C          -2.3579  -18.9938   20.3513 C.3     1  UNL1        0.2520
     12 O          -2.4766  -18.7200   21.8213 O.2     1  UNL1       -0.4753
     13 C          -8.8372  -16.5599   24.1683 C.2     1  UNL1        0.3428
     14 O          -9.3498  -17.6684   25.0393 O.2     1  UNL1       -0.2448
     15 O          -9.7867  -15.7863   23.3024 O.3     1  UNL1       -0.4454
     16 C         -11.0506  -16.4298   22.8140 C.3     1  UNL1        0.2087
     17 C         -10.9832  -17.6488   21.9425 C.3     1  UNL1        0.0445
     18 C         -11.2484  -19.0044   22.5272 C.3     1  UNL1        0.0210
     19 C         -11.1810  -20.2234   21.6557 C.3     1  UNL1        0.0722
     20 N         -10.8484  -20.0867   20.1994 N.3     1  UNL1       -0.2727
     21 C         -10.5832  -18.7311   19.6147 C.3     1  UNL1        0.0722
     22 C         -10.6506  -17.5121   20.4863 C.3     1  UNL1        0.0210
     23 C         -10.8737  -19.3899   20.6373 C.3     1  UNL1        0.0722
     24 C         -10.9346  -18.2877   21.4253 C.3     1  UNL1        0.0210
@<TRIPOS>BOND
     1    11    12    1
     2    12     1    1
     3     1     2    2
     4     2     3    1
     5     3     4    1
     6     3     5    2
     7     5     6    1
     8     6    13    1
     9    13    14    2
    10    13    15    1
    11    15    16    1
    12    16    17    1
    13    17    18    1
    14    18    19    1
    15    19    20    1
    16    20    21    1
    17    21    22    1
    18    20    23    1
    19    23    24    1
    20     6     7    2
    21     7     8    1
    22     8     9    2
    23     9    10    1
    24    10     1    1
    25     9     5    1
    26    22    17    1
    27    24    17    1
@<TRIPOS>MOLECULE
*****
 24 27 0 0 0
SMALL
GASTEIGER

@<TRIPOS>ATOM
      1 C         -12.0986  -16.6301   20.8886 C.2     1  UNL1        0.1219
      2 C         -11.7807  -18.0558   20.5477 C.2     1  UNL1        0.0285
      3 C         -10.9017  -18.8656   21.4542 C.2     1  UNL1       -0.0178
      4 C         -10.5838  -20.2913   21.1134 C.3     1  UNL1        0.0312
      5 C         -10.3406  -18.2496   22.7015 C.2     1  UNL1        0.0179
      6 C          -9.4517  -18.7966   23.7788 C.2     1  UNL1        0.0955
      7 C          -9.2201  -17.7089   24.7854 C.2     1  UNL1        0.1049
      8 N          -9.9660  -16.4897   24.3303 N.2     1  UNL1       -0.2475
      9 C         -10.6585  -16.8238   23.0423 C.2     1  UNL1        0.0665
     10 C         -11.5375  -16.0141   22.1359 C.3     1  UNL1        0.1095
     11 C         -12.4051  -15.1946   18.7449 C.3     1  UNL1        0.2520
     12 O         -12.9776  -15.8203   19.9821 O.2     1  UNL1       -0.4753
     13 C          -8.8924  -20.1871   23.8389 C.2     1  UNL1        0.3428
     14 O          -9.4699  -21.1870   24.7963 O.2     1  UNL1       -0.2448
     15 O          -7.7557  -20.5778   22.9415 O.3     1  UNL1       -0.4454
     16 C          -7.0740  -19.5402   22.0996 C.3     1  UNL1        0.2087
     17 C          -5.6530  -19.7430   21.6641 C.3     1  UNL1        0.0445
     18 C          -4.5277  -19.2352   22.5161 C.3     1  UNL1        0.0210
     19 C          -3.1068  -19.4380   22.0805 C.3     1  UNL1        0.0722
     20 N          -2.8111  -20.1486   20.7930 N.3     1  UNL1       -0.2727
     21 C          -3.9364  -20.6563   19.9410 C.3     1  UNL1        0.0722
     22 C          -5.3574  -20.4535   20.3766 C.3     1  UNL1        0.0210
     23 C          -3.6057  -20.0611   20.9901 C.3     1  UNL1        0.0722
     24 C          -4.8906  -19.8778   21.3839 C.3     1  UNL1        0.0210
@<TRIPOS>BOND
     1    11    12    1
     2    12     1    1
     3     1     2    2
     4     2     3    1
     5     3     4    1
     6     3     5    2
     7     5     6    1
     8     6    13    1
     9    13    14    2
    10    13    15    1
    11    15    16    1
    12    16    17    1
    13    17    18    1
    14    18    19    1
    15    19    20    1
    16    20    21    1
    17    21    22    1
    18    20    23    1
    19    23    24    1
    20     6     7    2
    21     7     8    1
    22     8     9    2
    23     9    10    1
    24    10     1    1
    25     9     5    1
    26    22    17    1
    27    24    17    1
