@<TRIPOS>MOLECULE
*****
 35 39 0 0 0
SMALL
GASTEIGER

@<TRIPOS>ATOM
      1 N           4.3479   -1.2337   24.8262 N.am    1  UNL1       -0.2761
      2 C           3.3810   -0.1789   24.3764 C.3     1  UNL1        0.0985
      3 C           2.8182   -0.2210   22.9866 C.3     1  UNL1        0.0507
      4 C           3.2224   -1.3179   22.0467 C.ar    1  UNL1        0.0153
      5 C           4.1893   -2.3727   22.4965 C.ar    1  UNL1        0.1335
      6 N           4.5935   -3.4696   21.5566 N.ar    1  UNL1       -0.2190
      7 C           4.0307   -3.5117   20.1668 C.ar    1  UNL1        0.2349
      8 N           3.0637   -2.4569   19.7169 N.ar    1  UNL1       -0.2280
      9 C           2.6595   -1.3600   20.6569 C.ar    1  UNL1        0.0579
     10 C           4.7521   -2.3306   23.8863 C.2     1  UNL1        0.2665
     11 O           5.7191   -3.3854   24.3362 O.2     1  UNL1       -0.2683
     12 C           6.0363   -1.1075   28.9956 C.3     1  UNL1        0.0333
     13 C           4.6121   -1.5236   28.7754 C.3     1  UNL1        0.0071
     14 C           4.0493   -1.5657   27.3856 C.3     1  UNL1        0.0202
     15 C           4.9107   -1.1916   26.2160 C.3     1  UNL1        0.0757
     16 C           6.3349   -0.7755   26.4362 C.3     1  UNL1        0.0202
     17 C           6.8977   -0.7334   27.8260 C.3     1  UNL1        0.0071
     18 C           5.6192   -1.3685   30.4126 C.ar    1  UNL1       -0.0207
     19 C           6.0931   -2.6043   31.1184 C.ar    1  UNL1       -0.0042
     20 C           5.6760   -2.8653   32.5354 C.ar    1  UNL1        0.0005
     21 C           4.7849   -1.8905   33.2465 C.ar    1  UNL1        0.0114
     22 C           4.3110   -0.6547   32.5407 C.ar    1  UNL1        0.0574
     23 CL          3.4199    0.3200   33.2520 Cl      1  UNL1       -0.0823
     24 C           4.7281   -0.3937   31.1238 C.ar    1  UNL1        0.0072
     25 N           7.9978    0.5311   29.4620 N.3     1  UNL1       -0.3209
     26 C           7.3157   -0.7820   29.7079 C.3     1  UNL1        0.0691
     27 H           8.8470    0.5836   30.0246 H       1  UNL1        0.1189
     28 H           7.3712    1.2933   29.7203 H       1  UNL1        0.1189
     29 C           4.4349   -4.6086   19.2269 C.3     1  UNL1        0.4523
     30 F           4.8390   -5.7055   18.2870 F       1  UNL1       -0.1632
     31 F           5.8505   -4.5020   19.7113 F       1  UNL1       -0.1632
     32 F           3.0192   -4.7152   18.7425 F       1  UNL1       -0.1632
     33 C           1.6926   -0.3052   20.2070 C.3     1  UNL1        0.0401
     34 C           1.3849    0.9066   19.3782 C.3     1  UNL1        0.0063
     35 C           0.3255    0.3100   20.2566 C.3     1  UNL1        0.0063
@<TRIPOS>BOND
     1    25    26    1
     2    12    26    1
     3    12    18    1
     4    18    19   ar
     5    19    20   ar
     6    20    21   ar
     7    21    22   ar
     8    22    23    1
     9    22    24   ar
    10    12    13    1
    11    13    14    1
    12    14    15    1
    13    15     1    1
    14     1     2    1
    15     2     3    1
    16     3     4    1
    17     4     5   ar
    18     5     6   ar
    19     6     7   ar
    20     7    29    1
    21    29    30    1
    22    29    31    1
    23    29    32    1
    24     7     8   ar
    25     8     9   ar
    26     9    33    1
    27    33    34    1
    28    34    35    1
    29     5    10    1
    30    10    11    2
    31    15    16    1
    32    16    17    1
    33    17    12    1
    34    24    18   ar
    35    10     1   am
    36     9     4   ar
    37    35    33    1
    38    25    27    1
    39    25    28    1
@<TRIPOS>MOLECULE
*****
 35 39 0 0 0
SMALL
GASTEIGER

@<TRIPOS>ATOM
      1 N           1.6247    1.6508   19.6764 N.am    1  UNL1       -0.2761
      2 C           2.6646    2.4798   18.9828 C.3     1  UNL1        0.0985
      3 C           3.8708    1.8210   18.3820 C.3     1  UNL1        0.0507
      4 C           4.0371    0.3331   18.4749 C.ar    1  UNL1        0.0153
      5 C           2.9972   -0.4959   19.1685 C.ar    1  UNL1        0.1335
      6 N           3.1634   -1.9838   19.2614 N.ar    1  UNL1       -0.2190
      7 C           4.3696   -2.6426   18.6606 C.ar    1  UNL1        0.2349
      8 N           5.4096   -1.8136   17.9669 N.ar    1  UNL1       -0.2280
      9 C           5.2434   -0.3257   17.8741 C.ar    1  UNL1        0.0579
     10 C           1.7909    0.1629   19.7693 C.2     1  UNL1        0.2665
     11 O           0.7509   -0.6661   20.4630 O.2     1  UNL1       -0.2683
     12 C          -1.9941    3.6272   21.4788 C.3     1  UNL1        0.0333
     13 C          -1.9063    3.4344   19.9938 C.3     1  UNL1        0.0071
     14 C          -0.7001    2.7756   19.3930 C.3     1  UNL1        0.0202
     15 C           0.4184    2.3096   20.2772 C.3     1  UNL1        0.0757
     16 C           0.3307    2.5024   21.7622 C.3     1  UNL1        0.0202
     17 C          -0.8756    3.1613   22.3630 C.3     1  UNL1        0.0071
     18 C          -3.3006    4.2333   21.0598 C.ar    1  UNL1       -0.0207
     19 C          -3.6512    5.6282   21.4856 C.ar    1  UNL1       -0.0042
     20 C          -4.9578    6.2342   21.0665 C.ar    1  UNL1        0.0005
     21 C          -5.9138    5.4454   20.2217 C.ar    1  UNL1        0.0114
     22 C          -5.5632    4.0504   19.7959 C.ar    1  UNL1        0.0574
     23 CL         -6.5193    3.2617   18.9511 Cl      1  UNL1       -0.0823
     24 C          -4.2567    3.4444   20.2149 C.ar    1  UNL1        0.0072
     25 N          -1.5959    4.3195   23.9510 N.3     1  UNL1       -0.3209
     26 C          -2.5356    4.0305   22.8182 C.3     1  UNL1        0.0691
     27 H          -2.1316    4.5766   24.7801 H       1  UNL1        0.1189
     28 H          -0.9787    5.0894   23.6928 H       1  UNL1        0.1189
     29 C           4.5359   -4.1305   18.7535 C.3     1  UNL1        0.4523
     30 F           4.7021   -5.6183   18.8463 F       1  UNL1       -0.1632
     31 F           6.0239   -3.9592   18.8334 F       1  UNL1       -0.1632
     32 F           3.0478   -4.3017   18.6735 F       1  UNL1       -0.1632
     33 C           6.2833    0.5033   17.1805 C.3     1  UNL1        0.0401
     34 C           7.6326    1.1587   17.1775 C.3     1  UNL1        0.0063
     35 C           6.7354    1.2840   15.9821 C.3     1  UNL1        0.0063
@<TRIPOS>BOND
     1    25    26    1
     2    12    26    1
     3    12    18    1
     4    18    19   ar
     5    19    20   ar
     6    20    21   ar
     7    21    22   ar
     8    22    23    1
     9    22    24   ar
    10    12    13    1
    11    13    14    1
    12    14    15    1
    13    15     1    1
    14     1     2    1
    15     2     3    1
    16     3     4    1
    17     4     5   ar
    18     5     6   ar
    19     6     7   ar
    20     7    29    1
    21    29    30    1
    22    29    31    1
    23    29    32    1
    24     7     8   ar
    25     8     9   ar
    26     9    33    1
    27    33    34    1
    28    34    35    1
    29     5    10    1
    30    10    11    2
    31    15    16    1
    32    16    17    1
    33    17    12    1
    34    24    18   ar
    35    10     1   am
    36     9     4   ar
    37    35    33    1
    38    25    27    1
    39    25    28    1
@<TRIPOS>MOLECULE
*****
 35 39 0 0 0
SMALL
GASTEIGER

@<TRIPOS>ATOM
      1 N           2.8297    0.0083   24.1229 N.am    1  UNL1       -0.2761
      2 C           3.7230   -0.4870   25.2214 C.3     1  UNL1        0.0985
      3 C           4.6386   -1.6495   24.9767 C.3     1  UNL1        0.0507
      4 C           4.6610   -2.3169   23.6335 C.ar    1  UNL1        0.0153
      5 C           3.7677   -1.8216   22.5350 C.ar    1  UNL1        0.1335
      6 N           3.7901   -2.4890   21.1918 N.ar    1  UNL1       -0.2190
      7 C           4.7057   -3.6515   20.9471 C.ar    1  UNL1        0.2349
      8 N           5.5991   -4.1468   22.0456 N.ar    1  UNL1       -0.2280
      9 C           5.5768   -3.4795   23.3888 C.ar    1  UNL1        0.0579
     10 C           2.8520   -0.6591   22.7797 C.2     1  UNL1        0.2665
     11 O           1.9587   -0.1638   21.6812 O.2     1  UNL1       -0.2683
     12 C           0.0825    3.4961   24.8570 C.3     1  UNL1        0.0333
     13 C          -0.4306    2.0938   25.0010 C.3     1  UNL1        0.0071
     14 C           0.4851    0.9313   24.7563 C.3     1  UNL1        0.0202
     15 C           1.9139    1.1709   24.3676 C.3     1  UNL1        0.0757
     16 C           2.4270    2.5730   24.2236 C.3     1  UNL1        0.0202
     17 C           1.5113    3.7356   24.4683 C.3     1  UNL1        0.0071
     18 C          -1.3397    3.7773   25.2421 C.ar    1  UNL1       -0.0207
     19 C          -1.6436    4.4585   26.5435 C.ar    1  UNL1       -0.0042
     20 C          -3.0658    4.7398   26.9286 C.ar    1  UNL1        0.0005
     21 C          -4.1840    4.3399   26.0123 C.ar    1  UNL1        0.0114
     22 C          -3.8801    3.6588   24.7109 C.ar    1  UNL1        0.0574
     23 CL         -4.9984    3.2589   23.7947 Cl      1  UNL1       -0.0823
     24 C          -2.4580    3.3775   24.3258 C.ar    1  UNL1        0.0072
     25 N           0.4258    5.7331   23.5813 N.3     1  UNL1       -0.3209
     26 C           0.1017    4.9959   24.8467 C.3     1  UNL1        0.0691
     27 H           0.3935    6.7377   23.7553 H       1  UNL1        0.1189
     28 H          -0.2558    5.4905   22.8623 H       1  UNL1        0.1189
     29 C           4.7281   -4.3189   19.6039 C.3     1  UNL1        0.4523
     30 F           4.7505   -4.9862   18.2607 F       1  UNL1       -0.1632
     31 F           5.9877   -3.5813   19.2585 F       1  UNL1       -0.1632
     32 F           3.4685   -5.0564   19.9494 F       1  UNL1       -0.1632
     33 C           6.4701   -3.9747   24.4873 C.3     1  UNL1        0.0401
     34 C           6.7515   -4.9480   25.5934 C.3     1  UNL1        0.0063
     35 C           7.7358   -3.8593   25.2838 C.3     1  UNL1        0.0063
@<TRIPOS>BOND
     1    25    26    1
     2    12    26    1
     3    12    18    1
     4    18    19   ar
     5    19    20   ar
     6    20    21   ar
     7    21    22   ar
     8    22    23    1
     9    22    24   ar
    10    12    13    1
    11    13    14    1
    12    14    15    1
    13    15     1    1
    14     1     2    1
    15     2     3    1
    16     3     4    1
    17     4     5   ar
    18     5     6   ar
    19     6     7   ar
    20     7    29    1
    21    29    30    1
    22    29    31    1
    23    29    32    1
    24     7     8   ar
    25     8     9   ar
    26     9    33    1
    27    33    34    1
    28    34    35    1
    29     5    10    1
    30    10    11    2
    31    15    16    1
    32    16    17    1
    33    17    12    1
    34    24    18   ar
    35    10     1   am
    36     9     4   ar
    37    35    33    1
    38    25    27    1
    39    25    28    1
@<TRIPOS>MOLECULE
*****
 35 39 0 0 0
SMALL
GASTEIGER

@<TRIPOS>ATOM
      1 N           4.3758   -1.3694   24.4214 N.am    1  UNL1       -0.2761
      2 C           4.8603   -2.6623   23.8352 C.3     1  UNL1        0.0985
      3 C           4.5147   -3.0203   22.4202 C.3     1  UNL1        0.0507
      4 C           3.6847   -2.0854   21.5913 C.ar    1  UNL1        0.0153
      5 C           3.2002   -0.7925   22.1775 C.ar    1  UNL1        0.1335
      6 N           2.3702    0.1423   21.3486 N.ar    1  UNL1       -0.2190
      7 C           2.0246   -0.2157   19.9336 C.ar    1  UNL1        0.2349
      8 N           2.5091   -1.5086   19.3473 N.ar    1  UNL1       -0.2280
      9 C           3.3392   -2.4435   20.1762 C.ar    1  UNL1        0.0579
     10 C           3.5457   -0.4345   23.5925 C.2     1  UNL1        0.2665
     11 O           3.0612    0.8584   24.1788 O.2     1  UNL1       -0.2683
     12 C           5.4123   -0.2953   28.6667 C.3     1  UNL1        0.0333
     13 C           4.0652   -0.8721   28.3465 C.3     1  UNL1        0.0071
     14 C           3.7197   -1.2301   26.9314 C.3     1  UNL1        0.0202
     15 C           4.7213   -1.0114   25.8365 C.3     1  UNL1        0.0757
     16 C           6.0684   -0.4346   26.1566 C.3     1  UNL1        0.0202
     17 C           6.4140   -0.0765   27.5718 C.3     1  UNL1        0.0071
     18 C           4.8053   -0.3162   30.0382 C.ar    1  UNL1       -0.0207
     19 C           3.9708    0.8388   30.5068 C.ar    1  UNL1       -0.0042
     20 C           3.3638    0.8178   31.8783 C.ar    1  UNL1        0.0005
     21 C           3.5913   -0.3582   32.7812 C.ar    1  UNL1        0.0114
     22 C           4.4258   -1.5132   32.3126 C.ar    1  UNL1        0.0574
     23 CL          4.6533   -2.6891   33.2157 Cl      1  UNL1       -0.0823
     24 C           5.0328   -1.4922   30.9412 C.ar    1  UNL1        0.0072
     25 N           7.9539   -0.1746   29.1917 N.3     1  UNL1       -0.3209
     26 C           6.5487    0.2743   29.4631 C.3     1  UNL1        0.0691
     27 H           8.5935    0.3114   29.8203 H       1  UNL1        0.1189
     28 H           8.1987    0.0399   28.2250 H       1  UNL1        0.1189
     29 C           1.1946    0.7192   19.1047 C.3     1  UNL1        0.4523
     30 F           0.3645    1.6541   18.2759 F       1  UNL1       -0.1632
     31 F           2.3778    0.9878   18.2227 F       1  UNL1       -0.1632
     32 F           0.0114    0.4507   19.9867 F       1  UNL1       -0.1632
     33 C           3.8237   -3.7364   19.5900 C.3     1  UNL1        0.0401
     34 C           4.8298   -4.4994   18.7804 C.3     1  UNL1        0.0063
     35 C           3.6567   -5.2128   19.3843 C.3     1  UNL1        0.0063
@<TRIPOS>BOND
     1    25    26    1
     2    12    26    1
     3    12    18    1
     4    18    19   ar
     5    19    20   ar
     6    20    21   ar
     7    21    22   ar
     8    22    23    1
     9    22    24   ar
    10    12    13    1
    11    13    14    1
    12    14    15    1
    13    15     1    1
    14     1     2    1
    15     2     3    1
    16     3     4    1
    17     4     5   ar
    18     5     6   ar
    19     6     7   ar
    20     7    29    1
    21    29    30    1
    22    29    31    1
    23    29    32    1
    24     7     8   ar
    25     8     9   ar
    26     9    33    1
    27    33    34    1
    28    34    35    1
    29     5    10    1
    30    10    11    2
    31    15    16    1
    32    16    17    1
    33    17    12    1
    34    24    18   ar
    35    10     1   am
    36     9     4   ar
    37    35    33    1
    38    25    27    1
    39    25    28    1
@<TRIPOS>MOLECULE
*****
 35 39 0 0 0
SMALL
GASTEIGER

@<TRIPOS>ATOM
      1 N           6.8380   -4.0161   24.1069 N.am    1  UNL1       -0.2761
      2 C           7.4739   -5.3554   23.8794 C.3     1  UNL1        0.0985
      3 C           7.8145   -6.2321   25.0478 C.3     1  UNL1        0.0507
      4 C           7.5191   -5.7696   26.4438 C.ar    1  UNL1        0.0153
      5 C           6.8832   -4.4303   26.6714 C.ar    1  UNL1        0.1335
      6 N           6.5878   -3.9678   28.0674 N.ar    1  UNL1       -0.2190
      7 C           6.9284   -4.8445   29.2358 C.ar    1  UNL1        0.2349
      8 N           7.5644   -6.1838   29.0083 N.ar    1  UNL1       -0.2280
      9 C           7.8598   -6.6464   27.6123 C.ar    1  UNL1        0.0579
     10 C           6.5426   -3.5536   25.5029 C.2     1  UNL1        0.2665
     11 O           5.9066   -2.2142   25.7304 O.2     1  UNL1       -0.2683
     12 C           5.8161   -1.3857   20.6016 C.3     1  UNL1        0.0333
     13 C           4.7297   -2.1197   21.3305 C.3     1  UNL1        0.0071
     14 C           5.0703   -2.9964   22.4989 C.3     1  UNL1        0.0202
     15 C           6.4974   -3.1393   22.9385 C.3     1  UNL1        0.0757
     16 C           7.5837   -2.4054   22.2097 C.3     1  UNL1        0.0202
     17 C           7.2431   -1.5286   21.0412 C.3     1  UNL1        0.0071
     18 C           4.6224   -0.9334   19.8139 C.ar    1  UNL1       -0.0207
     19 C           4.7579   -0.6391   18.3493 C.ar    1  UNL1       -0.0042
     20 C           3.5642   -0.1868   17.5616 C.ar    1  UNL1        0.0005
     21 C           2.2350   -0.0288   18.2385 C.ar    1  UNL1        0.0114
     22 C           2.0995   -0.3231   19.7031 C.ar    1  UNL1        0.0574
     23 CL          0.7702   -0.1651   20.3798 Cl      1  UNL1       -0.0823
     24 C           3.2931   -0.7754   20.4908 C.ar    1  UNL1        0.0072
     25 N           7.6080    0.4060   20.0282 N.3     1  UNL1       -0.3209
     26 C           6.4879   -0.4947   19.5992 C.3     1  UNL1        0.0691
     27 H           7.9446    0.9363   19.2246 H       1  UNL1        0.1189
     28 H           8.3698   -0.1560   20.4079 H       1  UNL1        0.1189
     29 C           6.6330   -4.3819   30.6318 C.3     1  UNL1        0.4523
     30 F           6.3377   -3.9194   32.0278 F       1  UNL1       -0.1632
     31 F           6.3362   -3.0061   30.1131 F       1  UNL1       -0.1632
     32 F           6.9298   -5.7578   31.1504 F       1  UNL1       -0.1632
     33 C           8.4957   -7.9857   27.3847 C.3     1  UNL1        0.0401
     34 C           8.5643   -9.4566   27.6706 C.3     1  UNL1        0.0063
     35 C           9.5287   -8.8345   26.7047 C.3     1  UNL1        0.0063
@<TRIPOS>BOND
     1    25    26    1
     2    12    26    1
     3    12    18    1
     4    18    19   ar
     5    19    20   ar
     6    20    21   ar
     7    21    22   ar
     8    22    23    1
     9    22    24   ar
    10    12    13    1
    11    13    14    1
    12    14    15    1
    13    15     1    1
    14     1     2    1
    15     2     3    1
    16     3     4    1
    17     4     5   ar
    18     5     6   ar
    19     6     7   ar
    20     7    29    1
    21    29    30    1
    22    29    31    1
    23    29    32    1
    24     7     8   ar
    25     8     9   ar
    26     9    33    1
    27    33    34    1
    28    34    35    1
    29     5    10    1
    30    10    11    2
    31    15    16    1
    32    16    17    1
    33    17    12    1
    34    24    18   ar
    35    10     1   am
    36     9     4   ar
    37    35    33    1
    38    25    27    1
    39    25    28    1
@<TRIPOS>MOLECULE
*****
 35 39 0 0 0
SMALL
GASTEIGER

@<TRIPOS>ATOM
      1 N           1.1892    2.2318   21.0504 N.am    1  UNL1       -0.2761
      2 C           1.8315    3.3494   21.8175 C.3     1  UNL1        0.0985
      3 C           0.9788    4.3770   22.5008 C.3     1  UNL1        0.0507
      4 C          -0.5161    4.2870   22.4171 C.ar    1  UNL1        0.0153
      5 C          -1.1584    3.1694   21.6500 C.ar    1  UNL1        0.1335
      6 N          -2.6534    3.0793   21.5663 N.ar    1  UNL1       -0.2190
      7 C          -3.5061    4.1069   22.2496 C.ar    1  UNL1        0.2349
      8 N          -2.8638    5.2246   23.0168 N.ar    1  UNL1       -0.2280
      9 C          -1.3688    5.3146   23.1005 C.ar    1  UNL1        0.0579
     10 C          -0.3057    2.1418   20.9667 C.2     1  UNL1        0.2665
     11 O          -0.9480    1.0241   20.1996 O.2     1  UNL1       -0.2683
     12 C           3.7473   -0.8511   19.0004 C.3     1  UNL1        0.0333
     13 C           3.1972   -1.1229   20.3692 C.3     1  UNL1        0.0071
     14 C           2.3445   -0.0953   21.0525 C.3     1  UNL1        0.0202
     15 C           2.0419    1.2042   20.3671 C.3     1  UNL1        0.0757
     16 C           2.5920    1.4761   18.9983 C.3     1  UNL1        0.0202
     17 C           3.4447    0.4484   18.3150 C.3     1  UNL1        0.0071
     18 C           4.3086   -2.2214   19.2392 C.ar    1  UNL1       -0.0207
     19 C           3.4731   -3.4342   18.9547 C.ar    1  UNL1       -0.0042
     20 C           4.0344   -4.8046   19.1936 C.ar    1  UNL1        0.0005
     21 C           5.4313   -4.9620   19.7170 C.ar    1  UNL1        0.0114
     22 C           6.2668   -3.7492   20.0016 C.ar    1  UNL1        0.0574
     23 CL          7.6636   -3.9069   20.5250 Cl      1  UNL1       -0.0823
     24 C           5.7055   -2.3789   19.7627 C.ar    1  UNL1        0.0072
     25 N           3.7417   -1.1457   16.4191 N.3     1  UNL1       -0.3209
     26 C           4.4923   -1.0551   17.7146 C.3     1  UNL1        0.0691
     27 H           4.4010   -1.2837   15.6531 H       1  UNL1        0.1189
     28 H           3.2201   -0.2824   16.2673 H       1  UNL1        0.1189
     29 C          -5.0010    4.0168   22.1659 C.3     1  UNL1        0.4523
     30 F          -6.4960    3.9268   22.0822 F       1  UNL1       -0.1632
     31 F          -4.9096    2.5198   22.1429 F       1  UNL1       -0.1632
     32 F          -5.0925    5.5139   22.1890 F       1  UNL1       -0.1632
     33 C          -0.7266    6.4322   23.8675 C.3     1  UNL1        0.0401
     34 C          -0.3981    7.0893   25.1753 C.3     1  UNL1        0.0063
     35 C           0.0573    7.7108   23.8884 C.3     1  UNL1        0.0063
@<TRIPOS>BOND
     1    25    26    1
     2    12    26    1
     3    12    18    1
     4    18    19   ar
     5    19    20   ar
     6    20    21   ar
     7    21    22   ar
     8    22    23    1
     9    22    24   ar
    10    12    13    1
    11    13    14    1
    12    14    15    1
    13    15     1    1
    14     1     2    1
    15     2     3    1
    16     3     4    1
    17     4     5   ar
    18     5     6   ar
    19     6     7   ar
    20     7    29    1
    21    29    30    1
    22    29    31    1
    23    29    32    1
    24     7     8   ar
    25     8     9   ar
    26     9    33    1
    27    33    34    1
    28    34    35    1
    29     5    10    1
    30    10    11    2
    31    15    16    1
    32    16    17    1
    33    17    12    1
    34    24    18   ar
    35    10     1   am
    36     9     4   ar
    37    35    33    1
    38    25    27    1
    39    25    28    1
@<TRIPOS>MOLECULE
*****
 35 39 0 0 0
SMALL
GASTEIGER

@<TRIPOS>ATOM
      1 N           4.4079    1.0996   34.1421 N.am    1  UNL1       -0.2761
      2 C           4.0089    2.3334   33.3883 C.3     1  UNL1        0.0985
      3 C           3.1052    3.3446   34.0293 C.3     1  UNL1        0.0507
      4 C           2.6006    3.1218   35.4242 C.ar    1  UNL1        0.0153
      5 C           2.9996    1.8879   36.1780 C.ar    1  UNL1        0.1335
      6 N           2.4949    1.6652   37.5729 N.ar    1  UNL1       -0.2190
      7 C           1.5913    2.6763   38.2140 C.ar    1  UNL1        0.2349
      8 N           1.1922    3.9103   37.4601 N.ar    1  UNL1       -0.2280
      9 C           1.6969    4.1330   36.0652 C.ar    1  UNL1        0.0579
     10 C           3.9032    0.8768   35.5370 C.2     1  UNL1        0.2665
     11 O           4.3023   -0.3571   36.2908 O.2     1  UNL1       -0.2683
     12 C           7.1189   -1.9340   32.2190 C.3     1  UNL1        0.0333
     13 C           5.6310   -2.0618   32.0781 C.3     1  UNL1        0.0071
     14 C           4.7274   -1.0506   32.7191 C.3     1  UNL1        0.0202
     15 C           5.3116    0.0884   33.5011 C.3     1  UNL1        0.0757
     16 C           6.7995    0.2161   33.6420 C.3     1  UNL1        0.0202
     17 C           7.7032   -0.7951   33.0009 C.3     1  UNL1        0.0071
     18 C           7.0421   -3.1787   31.3855 C.ar    1  UNL1       -0.0207
     19 C           7.0247   -4.5247   32.0473 C.ar    1  UNL1       -0.0042
     20 C           6.9479   -5.7694   31.2137 C.ar    1  UNL1        0.0005
     21 C           6.8886   -5.6681   29.7184 C.ar    1  UNL1        0.0114
     22 C           6.9060   -4.3222   29.0565 C.ar    1  UNL1        0.0574
     23 CL          6.8467   -4.2210   27.5611 Cl      1  UNL1       -0.0823
     24 C           6.9828   -3.0775   29.8900 C.ar    1  UNL1        0.0072
     25 N           9.5355   -1.1534   31.6706 N.3     1  UNL1       -0.3209
     26 C           8.5801   -2.2385   32.0704 C.3     1  UNL1        0.0691
     27 H          10.4801   -1.5346   31.6180 H       1  UNL1        0.1189
     28 H           9.5089   -0.4049   32.3630 H       1  UNL1        0.1189
     29 C           1.0866    2.4536   39.6088 C.3     1  UNL1        0.4523
     30 F           0.5820    2.2308   41.0037 F       1  UNL1       -0.1632
     31 F          -0.1317    1.7726   39.0593 F       1  UNL1       -0.1632
     32 F           2.3050    3.1345   40.1584 F       1  UNL1       -0.1632
     33 C           1.2979    5.3669   35.3114 C.3     1  UNL1        0.0401
     34 C           1.3764    6.8520   35.1159 C.3     1  UNL1        0.0063
     35 C           0.5283    6.0190   34.2012 C.3     1  UNL1        0.0063
@<TRIPOS>BOND
     1    25    26    1
     2    12    26    1
     3    12    18    1
     4    18    19   ar
     5    19    20   ar
     6    20    21   ar
     7    21    22   ar
     8    22    23    1
     9    22    24   ar
    10    12    13    1
    11    13    14    1
    12    14    15    1
    13    15     1    1
    14     1     2    1
    15     2     3    1
    16     3     4    1
    17     4     5   ar
    18     5     6   ar
    19     6     7   ar
    20     7    29    1
    21    29    30    1
    22    29    31    1
    23    29    32    1
    24     7     8   ar
    25     8     9   ar
    26     9    33    1
    27    33    34    1
    28    34    35    1
    29     5    10    1
    30    10    11    2
    31    15    16    1
    32    16    17    1
    33    17    12    1
    34    24    18   ar
    35    10     1   am
    36     9     4   ar
    37    35    33    1
    38    25    27    1
    39    25    28    1
@<TRIPOS>MOLECULE
*****
 35 39 0 0 0
SMALL
GASTEIGER

@<TRIPOS>ATOM
      1 N          -2.9965    3.7816   25.9210 N.am    1  UNL1       -0.2761
      2 C          -4.2391    4.3338   26.5544 C.3     1  UNL1        0.0985
      3 C          -5.4531    4.6016   25.7152 C.3     1  UNL1        0.0507
      4 C          -5.4247    4.3173   24.2427 C.ar    1  UNL1        0.0153
      5 C          -4.1821    3.7652   23.6093 C.ar    1  UNL1        0.1335
      6 N          -4.1537    3.4810   22.1368 N.ar    1  UNL1       -0.2190
      7 C          -5.3678    3.7488   21.2976 C.ar    1  UNL1        0.2349
      8 N          -6.6104    4.3010   21.9310 N.ar    1  UNL1       -0.2280
      9 C          -6.6388    4.5852   23.4035 C.ar    1  UNL1        0.0579
     10 C          -2.9681    3.4974   24.4484 C.2     1  UNL1        0.2665
     11 O          -1.7254    2.9452   23.8151 O.2     1  UNL1       -0.2683
     12 C           0.6459    2.9780   28.4384 C.3     1  UNL1        0.0333
     13 C          -0.2658    1.8496   28.0565 C.3     1  UNL1        0.0071
     14 C          -1.4799    2.1176   27.2174 C.3     1  UNL1        0.0202
     15 C          -1.7824    3.5138   26.7602 C.3     1  UNL1        0.0757
     16 C          -0.8707    4.6421   27.1420 C.3     1  UNL1        0.0202
     17 C           0.3434    4.3742   27.9812 C.3     1  UNL1        0.0071
     18 C           1.3499    1.8359   29.1092 C.ar    1  UNL1       -0.0207
     19 C           1.6750    0.5948   28.3320 C.ar    1  UNL1       -0.0042
     20 C           2.3790   -0.5473   29.0028 C.ar    1  UNL1        0.0005
     21 C           2.7579   -0.4483   30.4508 C.ar    1  UNL1        0.0114
     22 C           2.4327    0.7927   31.2280 C.ar    1  UNL1        0.0574
     23 CL          2.8116    0.8916   32.6759 Cl      1  UNL1       -0.0823
     24 C           1.7288    1.9348   30.5572 C.ar    1  UNL1        0.0072
     25 N           2.6243    4.6477   28.2204 N.3     1  UNL1       -0.3209
     26 C           1.8020    3.7097   29.0532 C.3     1  UNL1        0.0691
     27 H           3.3622    5.0548   28.7950 H       1  UNL1        0.1189
     28 H           2.0280    5.3908   27.8562 H       1  UNL1        0.1189
     29 C          -5.3393    3.4645   19.8251 C.3     1  UNL1        0.4523
     30 F          -5.3109    3.1803   18.3525 F       1  UNL1       -0.1632
     31 F          -3.8769    3.1434   19.9153 F       1  UNL1       -0.1632
     32 F          -6.8017    3.7857   19.7348 F       1  UNL1       -0.1632
     33 C          -7.8814    5.1373   24.0369 C.3     1  UNL1        0.0401
     34 C          -8.6407    6.2947   24.6149 C.3     1  UNL1        0.0063
     35 C          -9.2742    4.9364   24.5560 C.3     1  UNL1        0.0063
@<TRIPOS>BOND
     1    25    26    1
     2    12    26    1
     3    12    18    1
     4    18    19   ar
     5    19    20   ar
     6    20    21   ar
     7    21    22   ar
     8    22    23    1
     9    22    24   ar
    10    12    13    1
    11    13    14    1
    12    14    15    1
    13    15     1    1
    14     1     2    1
    15     2     3    1
    16     3     4    1
    17     4     5   ar
    18     5     6   ar
    19     6     7   ar
    20     7    29    1
    21    29    30    1
    22    29    31    1
    23    29    32    1
    24     7     8   ar
    25     8     9   ar
    26     9    33    1
    27    33    34    1
    28    34    35    1
    29     5    10    1
    30    10    11    2
    31    15    16    1
    32    16    17    1
    33    17    12    1
    34    24    18   ar
    35    10     1   am
    36     9     4   ar
    37    35    33    1
    38    25    27    1
    39    25    28    1
@<TRIPOS>MOLECULE
*****
 35 39 0 0 0
SMALL
GASTEIGER

@<TRIPOS>ATOM
      1 N           2.3287    0.2142   22.8239 N.am    1  UNL1       -0.2761
      2 C           2.1933   -0.2701   21.4107 C.3     1  UNL1        0.0985
      3 C           2.9843   -1.4567   20.9456 C.3     1  UNL1        0.0507
      4 C           3.9105   -2.1590   21.8937 C.ar    1  UNL1        0.0153
      5 C           4.0459   -1.6747   23.3068 C.ar    1  UNL1        0.1335
      6 N           4.9721   -2.3770   24.2549 N.ar    1  UNL1       -0.2190
      7 C           5.7630   -3.5637   23.7898 C.ar    1  UNL1        0.2349
      8 N           5.6277   -4.0480   22.3766 N.ar    1  UNL1       -0.2280
      9 C           4.7014   -3.3457   21.4285 C.ar    1  UNL1        0.0579
     10 C           3.2549   -0.4881   23.7719 C.2     1  UNL1        0.2665
     11 O           3.3903   -0.0038   25.1852 O.2     1  UNL1       -0.2683
     12 C          -0.0441    3.7741   24.2194 C.3     1  UNL1        0.0333
     13 C          -0.4260    2.3950   24.6693 C.3     1  UNL1        0.0071
     14 C           0.3649    1.2085   24.2042 C.3     1  UNL1        0.0202
     15 C           1.5378    1.4009   23.2890 C.3     1  UNL1        0.0757
     16 C           1.9197    2.7798   22.8391 C.3     1  UNL1        0.0202
     17 C           1.1287    3.9665   23.3043 C.3     1  UNL1        0.0071
     18 C          -1.2269    4.0999   25.0823 C.ar    1  UNL1       -0.0207
     19 C          -1.0337    4.8457   26.3693 C.ar    1  UNL1       -0.0042
     20 C          -2.2166    5.1715   27.2323 C.ar    1  UNL1        0.0005
     21 C          -3.5927    4.7515   26.8082 C.ar    1  UNL1        0.0114
     22 C          -3.7859    4.0057   25.5211 C.ar    1  UNL1        0.0574
     23 CL         -5.1621    3.5858   25.0971 Cl      1  UNL1       -0.0823
     24 C          -2.6031    3.6799   24.6582 C.ar    1  UNL1        0.0072
     25 N           1.1905    6.0136   23.7607 N.3     1  UNL1       -0.3209
     26 C          -0.0730    5.2663   24.0691 C.3     1  UNL1        0.0691
     27 H           0.9878    7.0110   23.6937 H       1  UNL1        0.1189
     28 H           1.5726    5.6840   22.8742 H       1  UNL1        0.1189
     29 C           6.6893   -4.2660   24.7379 C.3     1  UNL1        0.4523
     30 F           7.6155   -4.9683   25.6859 F       1  UNL1       -0.1632
     31 F           6.1621   -3.4340   25.8692 F       1  UNL1       -0.1632
     32 F           7.2164   -5.0979   23.6065 F       1  UNL1       -0.1632
     33 C           4.5661   -3.8300   20.0153 C.3     1  UNL1        0.0401
     34 C           3.8618   -4.6709   18.9921 C.3     1  UNL1        0.0063
     35 C           5.0359   -3.8281   18.5908 C.3     1  UNL1        0.0063
@<TRIPOS>BOND
     1    25    26    1
     2    12    26    1
     3    12    18    1
     4    18    19   ar
     5    19    20   ar
     6    20    21   ar
     7    21    22   ar
     8    22    23    1
     9    22    24   ar
    10    12    13    1
    11    13    14    1
    12    14    15    1
    13    15     1    1
    14     1     2    1
    15     2     3    1
    16     3     4    1
    17     4     5   ar
    18     5     6   ar
    19     6     7   ar
    20     7    29    1
    21    29    30    1
    22    29    31    1
    23    29    32    1
    24     7     8   ar
    25     8     9   ar
    26     9    33    1
    27    33    34    1
    28    34    35    1
    29     5    10    1
    30    10    11    2
    31    15    16    1
    32    16    17    1
    33    17    12    1
    34    24    18   ar
    35    10     1   am
    36     9     4   ar
    37    35    33    1
    38    25    27    1
    39    25    28    1
