@<TRIPOS>MOLECULE
*****
 29 33 0 0 0
SMALL
GASTEIGER

@<TRIPOS>ATOM
      1 C           6.9083   -4.2984   22.7228 C.ar    1  UNL1        0.1133
      2 C           7.9043   -4.1160   21.6161 C.ar    1  UNL1        0.0189
      3 C           7.5585   -3.2679   20.4281 C.ar    1  UNL1        0.0041
      4 C           6.2168   -2.6021   20.3469 C.ar    1  UNL1        0.0333
      5 C           5.5981   -1.7145   19.3080 C.ar    1  UNL1        0.0138
      6 C           4.2197   -1.3482   19.7727 C.ar    1  UNL1        0.1337
      7 O           3.9866   -2.0095   21.0987 O.2     1  UNL1       -0.4567
      8 C           5.2208   -2.7844   21.4536 C.ar    1  UNL1        0.1459
      9 C           5.5665   -3.6325   22.6415 C.ar    1  UNL1        0.0562
     10 C           3.3549   -0.4599   18.9282 C.3     1  UNL1        0.1210
     11 C           2.8413   -0.9820   20.2373 C.3     1  UNL1        0.0268
     12 C           1.4630   -0.6157   20.7019 C.3     1  UNL1        0.0339
     13 C           0.5982    0.2726   19.8575 C.3     1  UNL1        0.1423
     14 O           1.1118    0.7947   18.5484 O.3     1  UNL1       -0.3519
     15 C           2.4901    0.4284   18.0838 C.3     1  UNL1        0.1637
     16 N           3.8686    0.0622   17.6191 N.3     1  UNL1       -0.2917
     17 C           5.2469   -0.3041   17.1545 C.3     1  UNL1        0.0737
     18 C           6.1117   -1.1924   17.9989 C.3     1  UNL1        0.0463
     19 H           3.8377    1.0801   17.6756 H       1  UNL1        0.1236
     20 O           6.4780   -4.2193   24.7985 O.2     1  UNL1       -0.1642
     21 S           7.2540   -5.1465   23.9107 S.O2    1  UNL1        0.0276
     22 O           8.0300   -6.0736   23.0229 O.2     1  UNL1       -0.1642
     23 C           7.5997   -5.9946   25.0986 C.ar    1  UNL1        0.1125
     24 C           8.3926   -7.2546   24.9153 C.ar    1  UNL1        0.0189
     25 C           8.7383   -8.1027   26.1032 C.ar    1  UNL1        0.0036
     26 C           8.2911   -7.6908   27.4745 C.ar    1  UNL1        0.0297
     27 C           7.4982   -6.4307   27.6578 C.ar    1  UNL1        0.1414
     28 F           7.0510   -6.0188   29.0291 F       1  UNL1       -0.2041
     29 C           7.1525   -5.5826   26.4699 C.ar    1  UNL1        0.0484
@<TRIPOS>BOND
     1    20    21    2
     2    21    22    2
     3    21    23    1
     4    23    24   ar
     5    24    25   ar
     6    25    26   ar
     7    26    27   ar
     8    27    28    1
     9    27    29   ar
    10    21     1    1
    11     1     2   ar
    12     2     3   ar
    13     3     4   ar
    14     4     5   ar
    15     5     6   ar
    16     6     7   ar
    17     7     8   ar
    18     8     9   ar
    19     6    10    1
    20    10    11    1
    21    11    12    1
    22    12    13    1
    23    13    14    1
    24    14    15    1
    25    10    16    1
    26    16    17    1
    27    17    18    1
    28    29    23   ar
    29     9     1   ar
    30    15    10    1
    31     8     4   ar
    32    18     5    1
    33    16    19    1
@<TRIPOS>MOLECULE
*****
 29 33 0 0 0
SMALL
GASTEIGER

@<TRIPOS>ATOM
      1 C           6.4822   -3.8763   23.7782 C.ar    1  UNL1        0.1133
      2 C           7.4886   -4.0228   22.6755 C.ar    1  UNL1        0.0189
      3 C           7.2119   -3.4328   21.3244 C.ar    1  UNL1        0.0041
      4 C           5.9290   -2.6963   21.0760 C.ar    1  UNL1        0.0333
      5 C           5.3837   -2.0132   19.8570 C.ar    1  UNL1        0.0138
      6 C           4.0403   -1.4445   20.2063 C.ar    1  UNL1        0.1337
      7 O           3.7554   -1.7762   21.6411 O.2     1  UNL1       -0.4567
      8 C           4.9227   -2.5498   22.1787 C.ar    1  UNL1        0.1459
      9 C           5.1992   -3.1398   23.5297 C.ar    1  UNL1        0.0562
     10 C           3.2501   -0.6982   19.1726 C.3     1  UNL1        0.1210
     11 C           2.6970   -0.8758   20.5555 C.3     1  UNL1        0.0268
     12 C           1.3536   -0.3072   20.9048 C.3     1  UNL1        0.0339
     13 C           0.5634    0.4392   19.8711 C.3     1  UNL1        0.1423
     14 O           1.1165    0.6169   18.4882 O.3     1  UNL1       -0.3519
     15 C           2.4598    0.0482   18.1389 C.3     1  UNL1        0.1637
     16 N           3.8032   -0.5205   17.7897 N.3     1  UNL1       -0.2917
     17 C           5.1466   -1.0892   17.4404 C.3     1  UNL1        0.0737
     18 C           5.9368   -1.8355   18.4741 C.3     1  UNL1        0.0463
     19 H           3.8557    0.4840   17.6203 H       1  UNL1        0.1236
     20 O           7.4015   -5.6552   24.4785 O.2     1  UNL1       -0.1642
     21 S           6.7588   -4.4663   25.1293 S.O2    1  UNL1        0.0276
     22 O           6.1160   -3.2775   25.7800 O.2     1  UNL1       -0.1642
     23 C           7.0353   -5.0563   26.4803 C.ar    1  UNL1        0.1125
     24 C           7.7901   -6.3475   26.5946 C.ar    1  UNL1        0.0189
     25 C           8.0667   -6.9375   27.9456 C.ar    1  UNL1        0.0036
     26 C           7.5885   -6.2363   29.1824 C.ar    1  UNL1        0.0297
     27 C           6.8337   -4.9451   29.0682 C.ar    1  UNL1        0.1414
     28 F           6.3555   -4.2439   30.3050 F       1  UNL1       -0.2041
     29 C           6.5571   -4.3551   27.7171 C.ar    1  UNL1        0.0484
@<TRIPOS>BOND
     1    20    21    2
     2    21    22    2
     3    21    23    1
     4    23    24   ar
     5    24    25   ar
     6    25    26   ar
     7    26    27   ar
     8    27    28    1
     9    27    29   ar
    10    21     1    1
    11     1     2   ar
    12     2     3   ar
    13     3     4   ar
    14     4     5   ar
    15     5     6   ar
    16     6     7   ar
    17     7     8   ar
    18     8     9   ar
    19     6    10    1
    20    10    11    1
    21    11    12    1
    22    12    13    1
    23    13    14    1
    24    14    15    1
    25    10    16    1
    26    16    17    1
    27    17    18    1
    28    29    23   ar
    29     9     1   ar
    30    15    10    1
    31     8     4   ar
    32    18     5    1
    33    16    19    1
@<TRIPOS>MOLECULE
*****
 29 33 0 0 0
SMALL
GASTEIGER

@<TRIPOS>ATOM
      1 C           6.6211   -4.2714   24.3761 C.ar    1  UNL1        0.1133
      2 C           7.2860   -5.5741   24.7092 C.ar    1  UNL1        0.0189
      3 C           7.5612   -5.9314   26.1399 C.ar    1  UNL1        0.0041
      4 C           7.1715   -4.9861   27.2373 C.ar    1  UNL1        0.0333
      5 C           7.3142   -5.0659   28.7284 C.ar    1  UNL1        0.0138
      6 C           6.7374   -3.8124   29.3169 C.ar    1  UNL1        0.1337
      7 O           6.2384   -2.9580   28.1895 O.2     1  UNL1       -0.4567
      8 C           6.5067   -3.6834   26.9043 C.ar    1  UNL1        0.1459
      9 C           6.2315   -3.3260   25.4737 C.ar    1  UNL1        0.0562
     10 C           6.7412   -3.6110   30.8033 C.3     1  UNL1        0.1210
     11 C           6.1607   -2.5590   29.9053 C.3     1  UNL1        0.0268
     12 C           5.5840   -1.3056   30.4938 C.3     1  UNL1        0.0339
     13 C           5.5877   -1.1042   31.9802 C.3     1  UNL1        0.1423
     14 O           6.1682   -2.1562   32.8782 O.3     1  UNL1       -0.3519
     15 C           6.7450   -3.4095   32.2897 C.3     1  UNL1        0.1637
     16 N           7.3217   -4.6630   31.7012 N.3     1  UNL1       -0.2917
     17 C           7.8984   -5.9164   31.1127 C.3     1  UNL1        0.0737
     18 C           7.8947   -6.1178   29.6263 C.3     1  UNL1        0.0463
     19 H           6.5776   -4.9513   32.3365 H       1  UNL1        0.1236
     20 O           5.3668   -2.8701   23.3947 O.2     1  UNL1       -0.1642
     21 S           6.3459   -3.9140   22.9456 S.O2    1  UNL1        0.0276
     22 O           7.3250   -4.9579   22.4965 O.2     1  UNL1       -0.1642
     23 C           6.0707   -3.5566   21.5150 C.ar    1  UNL1        0.1125
     24 C           7.1129   -2.8423   20.7066 C.ar    1  UNL1        0.0189
     25 C           6.8377   -2.4849   19.2760 C.ar    1  UNL1        0.0036
     26 C           5.5203   -2.8419   18.6539 C.ar    1  UNL1        0.0297
     27 C           4.4781   -3.5562   19.4623 C.ar    1  UNL1        0.1414
     28 F           3.1607   -3.9131   18.8402 F       1  UNL1       -0.2041
     29 C           4.7533   -3.9135   20.8929 C.ar    1  UNL1        0.0484
@<TRIPOS>BOND
     1    20    21    2
     2    21    22    2
     3    21    23    1
     4    23    24   ar
     5    24    25   ar
     6    25    26   ar
     7    26    27   ar
     8    27    28    1
     9    27    29   ar
    10    21     1    1
    11     1     2   ar
    12     2     3   ar
    13     3     4   ar
    14     4     5   ar
    15     5     6   ar
    16     6     7   ar
    17     7     8   ar
    18     8     9   ar
    19     6    10    1
    20    10    11    1
    21    11    12    1
    22    12    13    1
    23    13    14    1
    24    14    15    1
    25    10    16    1
    26    16    17    1
    27    17    18    1
    28    29    23   ar
    29     9     1   ar
    30    15    10    1
    31     8     4   ar
    32    18     5    1
    33    16    19    1
@<TRIPOS>MOLECULE
*****
 29 33 0 0 0
SMALL
GASTEIGER

@<TRIPOS>ATOM
      1 C           1.4913    0.7441   19.7009 C.ar    1  UNL1        0.1133
      2 C           1.9258    1.7664   18.6929 C.ar    1  UNL1        0.0189
      3 C           1.0620    2.9612   18.4162 C.ar    1  UNL1        0.0041
      4 C          -0.2361    3.1337   19.1477 C.ar    1  UNL1        0.0333
      5 C          -1.2889    4.2004   19.0858 C.ar    1  UNL1        0.0138
      6 C          -2.3741    3.8373   20.0557 C.ar    1  UNL1        0.1337
      7 O          -1.9920    2.5462   20.7169 O.2     1  UNL1       -0.4567
      8 C          -0.6706    2.1114   20.1557 C.ar    1  UNL1        0.1459
      9 C           0.1930    0.9166   20.4324 C.ar    1  UNL1        0.0562
     10 C          -3.5700    4.7292   20.2115 C.3     1  UNL1        0.1210
     11 C          -3.4593    3.4743   21.0256 C.3     1  UNL1        0.0268
     12 C          -4.5444    3.1112   21.9954 C.3     1  UNL1        0.0339
     13 C          -5.7403    4.0032   22.1511 C.3     1  UNL1        0.1423
     14 O          -5.8511    5.2581   21.3371 O.3     1  UNL1       -0.3519
     15 C          -4.7659    5.6212   20.3672 C.3     1  UNL1        0.1637
     16 N          -3.6807    5.9842   19.3973 N.3     1  UNL1       -0.2917
     17 C          -2.5956    6.3472   18.4275 C.3     1  UNL1        0.0737
     18 C          -1.3997    5.4553   18.2718 C.3     1  UNL1        0.0463
     19 H          -3.7563    6.7579   20.0577 H       1  UNL1        0.1236
     20 O           2.8185   -0.4459   18.5510 O.2     1  UNL1       -0.1642
     21 S           2.3550   -0.4507   19.9776 S.O2    1  UNL1        0.0276
     22 O           1.8914   -0.4555   21.4041 O.2     1  UNL1       -0.1642
     23 C           3.2186   -1.6455   20.2542 C.ar    1  UNL1        0.1125
     24 C           3.7990   -1.8508   21.6221 C.ar    1  UNL1        0.0189
     25 C           4.6627   -3.0456   21.8987 C.ar    1  UNL1        0.0036
     26 C           4.9460   -4.0350   20.8075 C.ar    1  UNL1        0.0297
     27 C           4.3656   -3.8297   19.4396 C.ar    1  UNL1        0.1414
     28 F           4.6490   -4.8192   18.3484 F       1  UNL1       -0.2041
     29 C           3.5020   -2.6349   19.1630 C.ar    1  UNL1        0.0484
@<TRIPOS>BOND
     1    20    21    2
     2    21    22    2
     3    21    23    1
     4    23    24   ar
     5    24    25   ar
     6    25    26   ar
     7    26    27   ar
     8    27    28    1
     9    27    29   ar
    10    21     1    1
    11     1     2   ar
    12     2     3   ar
    13     3     4   ar
    14     4     5   ar
    15     5     6   ar
    16     6     7   ar
    17     7     8   ar
    18     8     9   ar
    19     6    10    1
    20    10    11    1
    21    11    12    1
    22    12    13    1
    23    13    14    1
    24    14    15    1
    25    10    16    1
    26    16    17    1
    27    17    18    1
    28    29    23   ar
    29     9     1   ar
    30    15    10    1
    31     8     4   ar
    32    18     5    1
    33    16    19    1
@<TRIPOS>MOLECULE
*****
 29 33 0 0 0
SMALL
GASTEIGER

@<TRIPOS>ATOM
      1 C           0.0378    2.5068   19.8060 C.ar    1  UNL1        0.1133
      2 C           0.9596    3.4566   19.1001 C.ar    1  UNL1        0.0189
      3 C           2.2606    2.9624   18.5402 C.ar    1  UNL1        0.0041
      4 C           2.6397    1.5185   18.6863 C.ar    1  UNL1        0.0333
      5 C           3.8471    0.7479   18.2409 C.ar    1  UNL1        0.0138
      6 C           3.6714   -0.6783   18.6716 C.ar    1  UNL1        0.1337
      7 O           2.3556   -0.7889   19.3831 O.2     1  UNL1       -0.4567
      8 C           1.7179    0.5687   19.3922 C.ar    1  UNL1        0.1459
      9 C           0.4170    1.0629   19.9520 C.ar    1  UNL1        0.0562
     10 C           4.7325   -1.6918   18.3602 C.3     1  UNL1        0.1210
     11 C           3.4959   -2.1043   19.1022 C.3     1  UNL1        0.0268
     12 C           3.3203   -3.5304   19.5328 C.3     1  UNL1        0.0339
     13 C           4.3814   -4.5439   19.2214 C.3     1  UNL1        0.1423
     14 O           5.6179   -4.1314   18.4794 O.3     1  UNL1       -0.3519
     15 C           5.7935   -2.7053   18.0488 C.3     1  UNL1        0.1637
     16 N           5.9691   -1.2792   17.6181 N.3     1  UNL1       -0.2917
     17 C           6.1447    0.1468   17.1875 C.3     1  UNL1        0.0737
     18 C           5.0836    1.1604   17.4989 C.3     1  UNL1        0.0463
     19 H           6.0093   -1.8491   16.7731 H       1  UNL1        0.1236
     20 O          -1.5768    3.6598   19.0554 O.2     1  UNL1       -0.1642
     21 S          -1.2631    3.0010   20.3659 S.O2    1  UNL1        0.0276
     22 O          -0.9493    2.3421   21.6764 O.2     1  UNL1       -0.1642
     23 C          -2.5639    3.4951   20.9257 C.ar    1  UNL1        0.1125
     24 C          -2.5995    4.1491   22.2752 C.ar    1  UNL1        0.0189
     25 C          -3.9004    4.6433   22.8350 C.ar    1  UNL1        0.0036
     26 C          -5.1657    4.4834   22.0455 C.ar    1  UNL1        0.0297
     27 C          -5.1302    3.8294   20.6960 C.ar    1  UNL1        0.1414
     28 F          -6.3955    3.6696   19.9064 F       1  UNL1       -0.2041
     29 C          -3.8293    3.3353   20.1361 C.ar    1  UNL1        0.0484
@<TRIPOS>BOND
     1    20    21    2
     2    21    22    2
     3    21    23    1
     4    23    24   ar
     5    24    25   ar
     6    25    26   ar
     7    26    27   ar
     8    27    28    1
     9    27    29   ar
    10    21     1    1
    11     1     2   ar
    12     2     3   ar
    13     3     4   ar
    14     4     5   ar
    15     5     6   ar
    16     6     7   ar
    17     7     8   ar
    18     8     9   ar
    19     6    10    1
    20    10    11    1
    21    11    12    1
    22    12    13    1
    23    13    14    1
    24    14    15    1
    25    10    16    1
    26    16    17    1
    27    17    18    1
    28    29    23   ar
    29     9     1   ar
    30    15    10    1
    31     8     4   ar
    32    18     5    1
    33    16    19    1
@<TRIPOS>MOLECULE
*****
 29 33 0 0 0
SMALL
GASTEIGER

@<TRIPOS>ATOM
      1 C           5.7105   -2.8967   21.5558 C.ar    1  UNL1        0.1133
      2 C           6.7025   -3.7684   20.8444 C.ar    1  UNL1        0.0189
      3 C           7.5201   -4.7599   21.6181 C.ar    1  UNL1        0.0041
      4 C           7.3456   -4.8797   23.1031 C.ar    1  UNL1        0.0333
      5 C           8.0053   -5.7593   24.1234 C.ar    1  UNL1        0.0138
      6 C           7.4210   -5.4312   25.4654 C.ar    1  UNL1        0.1337
      7 O           6.4002   -4.3489   25.2745 O.2     1  UNL1       -0.4567
      8 C           6.3536   -4.0080   23.8145 C.ar    1  UNL1        0.1459
      9 C           5.5360   -3.0166   23.0408 C.ar    1  UNL1        0.0562
     10 C           7.8939   -6.1604   26.6880 C.3     1  UNL1        0.1210
     11 C           6.8367   -5.1032   26.8074 C.3     1  UNL1        0.0268
     12 C           6.2524   -4.7751   28.1494 C.3     1  UNL1        0.0339
     13 C           6.7253   -5.5043   29.3719 C.3     1  UNL1        0.1423
     14 O           7.7826   -6.5616   29.2524 O.3     1  UNL1       -0.3519
     15 C           8.3669   -6.8897   27.9105 C.3     1  UNL1        0.1637
     16 N           8.9513   -7.2178   26.5685 N.3     1  UNL1       -0.2917
     17 C           9.5356   -7.5458   25.2265 C.3     1  UNL1        0.0737
     18 C           9.0626   -6.8166   24.0040 C.3     1  UNL1        0.0463
     19 H           8.5473   -8.0807   26.9326 H       1  UNL1        0.1236
     20 O           5.9941   -1.7865   19.7706 O.2     1  UNL1       -0.1642
     21 S           4.8929   -1.9052   20.7821 S.O2    1  UNL1        0.0276
     22 O           3.7917   -2.0240   21.7937 O.2     1  UNL1       -0.1642
     23 C           4.0753   -0.9138   20.0085 C.ar    1  UNL1        0.1125
     24 C           4.7436    0.0154   19.0389 C.ar    1  UNL1        0.0189
     25 C           3.9261    1.0068   18.2653 C.ar    1  UNL1        0.0036
     26 C           2.4402    1.0692   18.4613 C.ar    1  UNL1        0.0297
     27 C           1.7719    0.1401   19.4309 C.ar    1  UNL1        0.1414
     28 F           0.2861    0.2025   19.6269 F       1  UNL1       -0.2041
     29 C           2.5895   -0.8514   20.2045 C.ar    1  UNL1        0.0484
@<TRIPOS>BOND
     1    20    21    2
     2    21    22    2
     3    21    23    1
     4    23    24   ar
     5    24    25   ar
     6    25    26   ar
     7    26    27   ar
     8    27    28    1
     9    27    29   ar
    10    21     1    1
    11     1     2   ar
    12     2     3   ar
    13     3     4   ar
    14     4     5   ar
    15     5     6   ar
    16     6     7   ar
    17     7     8   ar
    18     8     9   ar
    19     6    10    1
    20    10    11    1
    21    11    12    1
    22    12    13    1
    23    13    14    1
    24    14    15    1
    25    10    16    1
    26    16    17    1
    27    17    18    1
    28    29    23   ar
    29     9     1   ar
    30    15    10    1
    31     8     4   ar
    32    18     5    1
    33    16    19    1
@<TRIPOS>MOLECULE
*****
 29 33 0 0 0
SMALL
GASTEIGER

@<TRIPOS>ATOM
      1 C           5.0497   -2.1790   24.2712 C.ar    1  UNL1        0.1133
      2 C           6.1713   -2.6954   25.1229 C.ar    1  UNL1        0.0189
      3 C           6.1645   -2.4486   26.6025 C.ar    1  UNL1        0.0041
      4 C           5.0361   -1.6855   27.2304 C.ar    1  UNL1        0.0333
      5 C           4.7594   -1.2905   28.6507 C.ar    1  UNL1        0.0138
      6 C           3.4667   -0.5300   28.6769 C.ar    1  UNL1        0.1337
      7 O           2.9445   -0.4549   27.2727 O.2     1  UNL1       -0.4567
      8 C           3.9145   -1.1691   26.3787 C.ar    1  UNL1        0.1459
      9 C           3.9212   -1.4158   24.8992 C.ar    1  UNL1        0.0562
     10 C           2.9321   -0.0041   29.9760 C.3     1  UNL1        0.1210
     11 C           2.1741    0.2305   28.7031 C.3     1  UNL1        0.0268
     12 C           0.8815    0.9910   28.7293 C.3     1  UNL1        0.0339
     13 C           0.3469    1.5169   30.0284 C.3     1  UNL1        0.1423
     14 O           1.1049    1.2823   31.3013 O.3     1  UNL1       -0.3519
     15 C           2.3975    0.5218   31.2751 C.3     1  UNL1        0.1637
     16 N           3.6902   -0.2387   31.2489 N.3     1  UNL1       -0.2917
     17 C           4.9829   -0.9992   31.2227 C.3     1  UNL1        0.0737
     18 C           5.5174   -1.5251   29.9236 C.3     1  UNL1        0.0463
     19 H           3.0640   -0.7440   31.8758 H       1  UNL1        0.1236
     20 O           5.1964   -0.9525   22.5467 O.2     1  UNL1       -0.1642
     21 S           5.0565   -2.4258   22.7917 S.O2    1  UNL1        0.0276
     22 O           4.9166   -3.8990   23.0368 O.2     1  UNL1       -0.1642
     23 C           5.0633   -2.6725   21.3122 C.ar    1  UNL1        0.1125
     24 C           6.1358   -2.0672   20.4558 C.ar    1  UNL1        0.0189
     25 C           6.1425   -2.3139   18.9763 C.ar    1  UNL1        0.0036
     26 C           5.0768   -3.1660   18.3531 C.ar    1  UNL1        0.0297
     27 C           4.0043   -3.7713   19.2095 C.ar    1  UNL1        0.1414
     28 F           2.9386   -4.6233   18.5863 F       1  UNL1       -0.2041
     29 C           3.9976   -3.5245   20.6890 C.ar    1  UNL1        0.0484
@<TRIPOS>BOND
     1    20    21    2
     2    21    22    2
     3    21    23    1
     4    23    24   ar
     5    24    25   ar
     6    25    26   ar
     7    26    27   ar
     8    27    28    1
     9    27    29   ar
    10    21     1    1
    11     1     2   ar
    12     2     3   ar
    13     3     4   ar
    14     4     5   ar
    15     5     6   ar
    16     6     7   ar
    17     7     8   ar
    18     8     9   ar
    19     6    10    1
    20    10    11    1
    21    11    12    1
    22    12    13    1
    23    13    14    1
    24    14    15    1
    25    10    16    1
    26    16    17    1
    27    17    18    1
    28    29    23   ar
    29     9     1   ar
    30    15    10    1
    31     8     4   ar
    32    18     5    1
    33    16    19    1
@<TRIPOS>MOLECULE
*****
 29 33 0 0 0
SMALL
GASTEIGER

@<TRIPOS>ATOM
      1 C           3.5410   -0.7101   25.7927 C.ar    1  UNL1        0.1133
      2 C           4.6671   -1.6599   26.0750 C.ar    1  UNL1        0.0189
      3 C           5.4218   -2.2869   24.9403 C.ar    1  UNL1        0.0041
      4 C           5.0504   -1.9640   23.5234 C.ar    1  UNL1        0.0333
      5 C           5.6089   -2.4244   22.2096 C.ar    1  UNL1        0.0138
      6 C           4.8279   -1.7591   21.1152 C.ar    1  UNL1        0.1337
      7 O           3.7868   -0.8875   21.7527 O.2     1  UNL1       -0.4567
      8 C           3.9243   -1.0141   23.2410 C.ar    1  UNL1        0.1459
      9 C           3.1696   -0.3872   24.3756 C.ar    1  UNL1        0.0562
     10 C           5.1657   -2.0330   19.6797 C.3     1  UNL1        0.1210
     11 C           4.0470   -1.0939   20.0209 C.3     1  UNL1        0.0268
     12 C           3.2661   -0.4287   18.9266 C.3     1  UNL1        0.0339
     13 C           3.6039   -0.7025   17.4910 C.3     1  UNL1        0.1423
     14 O           4.7226   -1.6416   17.1498 O.3     1  UNL1       -0.3519
     15 C           5.5035   -2.3069   18.2441 C.3     1  UNL1        0.1637
     16 N           6.2845   -2.9722   19.3384 N.3     1  UNL1       -0.2917
     17 C           7.0654   -3.6374   20.4327 C.3     1  UNL1        0.0737
     18 C           6.7276   -3.3635   21.8683 C.3     1  UNL1        0.0463
     19 H           6.9534   -2.4425   18.7795 H       1  UNL1        0.1236
     20 O           3.0313   -1.3034   27.7645 O.2     1  UNL1       -0.1642
     21 S           2.7863   -0.0831   26.9273 S.O2    1  UNL1        0.0276
     22 O           2.5414    1.1371   26.0901 O.2     1  UNL1       -0.1642
     23 C           2.0316    0.5438   28.0619 C.ar    1  UNL1        0.1125
     24 C           2.7157    1.5266   28.9653 C.ar    1  UNL1        0.0189
     25 C           1.9610    2.1535   30.0999 C.ar    1  UNL1        0.0036
     26 C           0.5223    1.7977   30.3311 C.ar    1  UNL1        0.0297
     27 C          -0.1618    0.8148   29.4277 C.ar    1  UNL1        0.1414
     28 F          -1.6005    0.4589   29.6589 F       1  UNL1       -0.2041
     29 C           0.5929    0.1879   28.2931 C.ar    1  UNL1        0.0484
@<TRIPOS>BOND
     1    20    21    2
     2    21    22    2
     3    21    23    1
     4    23    24   ar
     5    24    25   ar
     6    25    26   ar
     7    26    27   ar
     8    27    28    1
     9    27    29   ar
    10    21     1    1
    11     1     2   ar
    12     2     3   ar
    13     3     4   ar
    14     4     5   ar
    15     5     6   ar
    16     6     7   ar
    17     7     8   ar
    18     8     9   ar
    19     6    10    1
    20    10    11    1
    21    11    12    1
    22    12    13    1
    23    13    14    1
    24    14    15    1
    25    10    16    1
    26    16    17    1
    27    17    18    1
    28    29    23   ar
    29     9     1   ar
    30    15    10    1
    31     8     4   ar
    32    18     5    1
    33    16    19    1
@<TRIPOS>MOLECULE
*****
 29 33 0 0 0
SMALL
GASTEIGER

@<TRIPOS>ATOM
      1 C           6.9474   -3.9968   25.6645 C.ar    1  UNL1        0.1133
      2 C           7.6250   -4.8511   24.6344 C.ar    1  UNL1        0.0189
      3 C           7.2297   -4.7418   23.1915 C.ar    1  UNL1        0.0041
      4 C           6.1568   -3.7782   22.7787 C.ar    1  UNL1        0.0333
      5 C           5.5600   -3.4531   21.4415 C.ar    1  UNL1        0.0138
      6 C           4.5135   -2.3978   21.6452 C.ar    1  UNL1        0.1337
      7 O           4.4636   -2.0708   23.1082 O.2     1  UNL1       -0.4567
      8 C           5.4791   -2.9239   23.8088 C.ar    1  UNL1        0.1459
      9 C           5.8744   -3.0332   25.2516 C.ar    1  UNL1        0.0562
     10 C           3.7413   -1.8711   20.4720 C.3     1  UNL1        0.1210
     11 C           3.4671   -1.3427   21.8487 C.3     1  UNL1        0.0268
     12 C           2.4207   -0.2875   22.0523 C.3     1  UNL1        0.0339
     13 C           1.6485    0.2393   20.8792 C.3     1  UNL1        0.1423
     14 O           1.9227   -0.2892   19.5025 O.3     1  UNL1       -0.3519
     15 C           2.9691   -1.3444   19.2989 C.3     1  UNL1        0.1637
     16 N           4.0156   -2.3997   19.0952 N.3     1  UNL1       -0.2917
     17 C           5.0620   -3.4548   18.8916 C.3     1  UNL1        0.0737
     18 C           5.8342   -3.9816   20.0648 C.3     1  UNL1        0.0463
     19 H           4.2874   -1.6010   18.5219 H       1  UNL1        0.1236
     20 O           6.3986   -2.9921   27.4503 O.2     1  UNL1       -0.1642
     21 S           7.3427   -4.1061   27.1073 S.O2    1  UNL1        0.0276
     22 O           8.2868   -5.2201   26.7643 O.2     1  UNL1       -0.1642
     23 C           7.7380   -4.2153   28.5501 C.ar    1  UNL1        0.1125
     24 C           8.8848   -3.4046   29.0770 C.ar    1  UNL1        0.0189
     25 C           9.2801   -3.5139   30.5198 C.ar    1  UNL1        0.0036
     26 C           8.5285   -4.4339   31.4358 C.ar    1  UNL1        0.0297
     27 C           7.3818   -5.2446   30.9089 C.ar    1  UNL1        0.1414
     28 F           6.6302   -6.1646   31.8248 F       1  UNL1       -0.2041
     29 C           6.9865   -5.1353   29.4660 C.ar    1  UNL1        0.0484
@<TRIPOS>BOND
     1    20    21    2
     2    21    22    2
     3    21    23    1
     4    23    24   ar
     5    24    25   ar
     6    25    26   ar
     7    26    27   ar
     8    27    28    1
     9    27    29   ar
    10    21     1    1
    11     1     2   ar
    12     2     3   ar
    13     3     4   ar
    14     4     5   ar
    15     5     6   ar
    16     6     7   ar
    17     7     8   ar
    18     8     9   ar
    19     6    10    1
    20    10    11    1
    21    11    12    1
    22    12    13    1
    23    13    14    1
    24    14    15    1
    25    10    16    1
    26    16    17    1
    27    17    18    1
    28    29    23   ar
    29     9     1   ar
    30    15    10    1
    31     8     4   ar
    32    18     5    1
    33    16    19    1
