@<TRIPOS>MOLECULE
*****
 29 32 0 0 0
SMALL
GASTEIGER

@<TRIPOS>ATOM
      1 C          -9.5038  -20.4960   18.7789 C.3     1  UNL1        0.0233
      2 C          -8.5136  -19.7914   19.6580 C.3     1  UNL1        0.0956
      3 C          -7.0431  -19.9480   19.4069 C.3     1  UNL1        0.1135
      4 N          -6.0528  -19.2435   20.2861 N.am    1  UNL1       -0.2726
      5 C          -4.5823  -19.4002   20.0349 C.2     1  UNL1        0.2491
      6 O          -4.1020  -20.2615   18.9046 O.2     1  UNL1       -0.2699
      7 C          -6.5330  -18.3822   21.4164 C.3     1  UNL1        0.1152
      8 C          -8.0035  -18.2255   21.6675 C.3     1  UNL1        0.1153
      9 N          -8.9938  -18.9301   20.7883 N.am    1  UNL1       -0.2716
     10 C         -10.4643  -18.7734   21.0394 C.2     1  UNL1        0.2883
     11 O         -11.4545  -19.4780   20.1603 O.2     1  UNL1       -0.2664
     12 C          -3.5921  -18.6956   20.9141 C.ar    1  UNL1        0.0536
     13 C          -2.5799  -17.7679   20.3102 C.ar    1  UNL1        0.0045
     14 C          -1.5896  -17.0633   21.1893 C.ar    1  UNL1        0.0001
     15 C          -1.6115  -17.2864   22.6725 C.ar    1  UNL1        0.0000
     16 C          -2.6237  -18.2141   23.2764 C.ar    1  UNL1        0.0001
     17 C          -3.6140  -18.9187   22.3972 C.ar    1  UNL1        0.0045
     18 C         -10.9446  -17.9121   22.1698 C.2     1  UNL1        0.2502
     19 O         -11.8638  -16.7590   21.8957 O.2     1  UNL1       -0.2816
     20 C         -10.5055  -18.2039   23.5741 C.ar    1  UNL1        0.0656
     21 C         -10.7548  -19.4756   24.3295 C.ar    1  UNL1        0.1039
     22 N         -10.1434  -19.3329   25.6918 N.ar    1  UNL1       -0.2269
     23 C          -9.5161  -17.9731   25.7783 C.ar    1  UNL1        0.1407
     24 N          -8.7702  -17.2801   26.8797 N.ar    1  UNL1       -0.3374
     25 C          -8.2480  -15.8893   26.6723 C.ar    1  UNL1        0.0735
     26 C          -8.4718  -15.1916   25.3635 C.ar    1  UNL1        0.0186
     27 C          -9.2177  -15.8846   24.2620 C.ar    1  UNL1        0.0047
     28 C          -9.7399  -17.2753   24.4694 C.ar    1  UNL1        0.0387
     29 H          -8.6233  -17.7381   27.7387 H       1  UNL1        0.1674
@<TRIPOS>BOND
     1     2     1    1
     2     2     3    1
     3     3     4    1
     4     4     5   am
     5     5     6    2
     6     5    12    1
     7    12    13   ar
     8    13    14   ar
     9    14    15   ar
    10    15    16   ar
    11    16    17   ar
    12     4     7    1
    13     7     8    1
    14     8     9    1
    15     9    10   am
    16    10    11    2
    17    10    18    1
    18    18    19    2
    19    18    20    1
    20    20    21   ar
    21    21    22   ar
    22    22    23   ar
    23    23    24   ar
    24    24    25   ar
    25    25    26   ar
    26    26    27   ar
    27    27    28   ar
    28     9     2    1
    29    28    20   ar
    30    17    12   ar
    31    28    23    1
    32    24    29    1
@<TRIPOS>MOLECULE
*****
 29 32 0 0 0
SMALL
GASTEIGER

@<TRIPOS>ATOM
      1 C           8.3609   -3.9160   23.1583 C.3     1  UNL1        0.0233
      2 C           7.0906   -3.2289   23.5637 C.3     1  UNL1        0.0956
      3 C           7.0102   -2.5176   24.8819 C.3     1  UNL1        0.1135
      4 N           5.7399   -1.8306   25.2872 N.am    1  UNL1       -0.2726
      5 C           5.6597   -1.1193   26.6054 C.2     1  UNL1        0.2491
      6 O           6.8497   -1.0951   27.5183 O.2     1  UNL1       -0.2699
      7 C           4.5499   -1.8548   24.3744 C.3     1  UNL1        0.1152
      8 C           4.6303   -2.5660   23.0562 C.3     1  UNL1        0.1153
      9 N           5.9006   -3.2531   22.6509 N.am    1  UNL1       -0.2716
     10 C           5.9809   -3.9644   21.3327 C.2     1  UNL1        0.2883
     11 O           7.2512   -4.6514   20.9273 O.2     1  UNL1       -0.2664
     12 C           4.3894   -0.4323   27.0108 C.ar    1  UNL1        0.0536
     13 C           4.1088    0.9641   26.5403 C.ar    1  UNL1        0.0045
     14 C           2.8386    1.6511   26.9456 C.ar    1  UNL1        0.0001
     15 C           1.8487    0.9418   27.8215 C.ar    1  UNL1        0.0000
     16 C           2.1293   -0.4546   28.2919 C.ar    1  UNL1        0.0001
     17 C           3.3996   -1.1416   27.8866 C.ar    1  UNL1        0.0045
     18 C           4.7908   -3.9886   20.4197 C.2     1  UNL1        0.2502
     19 O           3.7419   -5.0482   20.5830 O.2     1  UNL1       -0.2816
     20 C           4.6499   -2.9531   19.3436 C.ar    1  UNL1        0.0656
     21 C           5.5346   -2.8048   18.1415 C.ar    1  UNL1        0.1039
     22 N           5.0309   -1.6442   17.3357 N.ar    1  UNL1       -0.2269
     23 C           3.8349   -1.0752   18.0398 C.ar    1  UNL1        0.1407
     24 N           2.9299    0.0750   17.7113 N.ar    1  UNL1       -0.3374
     25 C           1.7893    0.4162   18.6238 C.ar    1  UNL1        0.0735
     26 C           1.5538   -0.3928   19.8648 C.ar    1  UNL1        0.0186
     27 C           2.4589   -1.5430   20.1933 C.ar    1  UNL1        0.0047
     28 C           3.5994   -1.8842   19.2808 C.ar    1  UNL1        0.0387
     29 H           3.0845    0.6059   16.8968 H       1  UNL1        0.1674
@<TRIPOS>BOND
     1     2     1    1
     2     2     3    1
     3     3     4    1
     4     4     5   am
     5     5     6    2
     6     5    12    1
     7    12    13   ar
     8    13    14   ar
     9    14    15   ar
    10    15    16   ar
    11    16    17   ar
    12     4     7    1
    13     7     8    1
    14     8     9    1
    15     9    10   am
    16    10    11    2
    17    10    18    1
    18    18    19    2
    19    18    20    1
    20    20    21   ar
    21    21    22   ar
    22    22    23   ar
    23    23    24   ar
    24    24    25   ar
    25    25    26   ar
    26    26    27   ar
    27    27    28   ar
    28     9     2    1
    29    28    20   ar
    30    17    12   ar
    31    28    23    1
    32    24    29    1
@<TRIPOS>MOLECULE
*****
 29 32 0 0 0
SMALL
GASTEIGER

@<TRIPOS>ATOM
      1 C           3.1840   -0.2886   26.7674 C.3     1  UNL1        0.0233
      2 C           3.8776   -0.9027   25.5876 C.3     1  UNL1        0.0956
      3 C           3.2722   -0.7908   24.2198 C.3     1  UNL1        0.1135
      4 N           3.9658   -1.4048   23.0401 N.am    1  UNL1       -0.2726
      5 C           3.3603   -1.2929   21.6723 C.2     1  UNL1        0.2491
      6 O           2.0612   -0.5670   21.4842 O.2     1  UNL1       -0.2699
      7 C           5.2649   -2.1307   23.2280 C.3     1  UNL1        0.1152
      8 C           5.8703   -2.2426   24.5959 C.3     1  UNL1        0.1153
      9 N           5.1767   -1.6286   25.7756 N.am    1  UNL1       -0.2716
     10 C           5.7821   -1.7405   27.1434 C.2     1  UNL1        0.2883
     11 O           5.0885   -1.1264   28.3232 O.2     1  UNL1       -0.2664
     12 C           4.0539   -1.9069   20.4925 C.ar    1  UNL1        0.0536
     13 C           5.0484   -1.1052   19.7063 C.ar    1  UNL1        0.0045
     14 C           5.7420   -1.7192   18.5265 C.ar    1  UNL1        0.0001
     15 C           5.4412   -3.1350   18.1330 C.ar    1  UNL1        0.0000
     16 C           4.4467   -3.9368   18.9192 C.ar    1  UNL1        0.0001
     17 C           3.7531   -3.3228   20.0990 C.ar    1  UNL1        0.0045
     18 C           7.0813   -2.4664   27.3315 C.2     1  UNL1        0.2502
     19 O           8.3728   -1.8017   26.9574 O.2     1  UNL1       -0.2816
     20 C           7.0888   -3.8571   27.8937 C.ar    1  UNL1        0.0656
     21 C           6.8489   -4.2301   29.3266 C.ar    1  UNL1        0.1039
     22 N           6.9494   -5.7224   29.4401 N.ar    1  UNL1       -0.2269
     23 C           7.2514   -6.2717   28.0773 C.ar    1  UNL1        0.1407
     24 N           7.4591   -7.6726   27.5833 N.ar    1  UNL1       -0.3374
     25 C           7.7529   -7.9207   26.1334 C.ar    1  UNL1        0.0735
     26 C           7.8391   -6.7679   25.1777 C.ar    1  UNL1        0.0186
     27 C           7.6314   -5.3669   25.6718 C.ar    1  UNL1        0.0047
     28 C           7.3376   -5.1188   27.1216 C.ar    1  UNL1        0.0387
     29 H           7.4025   -8.4293   28.2106 H       1  UNL1        0.1674
@<TRIPOS>BOND
     1     2     1    1
     2     2     3    1
     3     3     4    1
     4     4     5   am
     5     5     6    2
     6     5    12    1
     7    12    13   ar
     8    13    14   ar
     9    14    15   ar
    10    15    16   ar
    11    16    17   ar
    12     4     7    1
    13     7     8    1
    14     8     9    1
    15     9    10   am
    16    10    11    2
    17    10    18    1
    18    18    19    2
    19    18    20    1
    20    20    21   ar
    21    21    22   ar
    22    22    23   ar
    23    23    24   ar
    24    24    25   ar
    25    25    26   ar
    26    26    27   ar
    27    27    28   ar
    28     9     2    1
    29    28    20   ar
    30    17    12   ar
    31    28    23    1
    32    24    29    1
@<TRIPOS>MOLECULE
*****
 29 32 0 0 0
SMALL
GASTEIGER

@<TRIPOS>ATOM
      1 C         -17.9787   -1.5042   19.1312 C.3     1  UNL1        0.0233
      2 C         -17.5351   -2.9369   19.1500 C.3     1  UNL1        0.0956
      3 C         -18.5113   -4.0287   18.8259 C.3     1  UNL1        0.1135
      4 N         -18.0677   -5.4614   18.8447 N.am    1  UNL1       -0.2726
      5 C         -19.0441   -6.5531   18.5207 C.2     1  UNL1        0.2491
      6 O         -20.4640   -6.2121   18.1778 O.2     1  UNL1       -0.2699
      7 C         -16.6479   -5.8025   19.1876 C.3     1  UNL1        0.1152
      8 C         -15.6716   -4.7108   19.5116 C.3     1  UNL1        0.1153
      9 N         -16.1152   -3.2780   19.4928 N.am    1  UNL1       -0.2716
     10 C         -15.1389   -2.1863   19.8169 C.2     1  UNL1        0.2883
     11 O         -15.5826   -0.7535   19.7981 O.2     1  UNL1       -0.2664
     12 C         -18.6004   -7.9859   18.5395 C.ar    1  UNL1        0.0536
     13 C         -19.0139   -8.9137   17.4357 C.ar    1  UNL1        0.0045
     14 C         -18.5703  -10.3464   17.4546 C.ar    1  UNL1        0.0001
     15 C         -17.7131  -10.8515   18.5771 C.ar    1  UNL1        0.0000
     16 C         -17.2996   -9.9237   19.6808 C.ar    1  UNL1        0.0001
     17 C         -17.7433   -8.4910   19.6620 C.ar    1  UNL1        0.0045
     18 C         -13.7190   -2.5273   20.1597 C.2     1  UNL1        0.2502
     19 O         -13.3979   -3.1608   21.4809 O.2     1  UNL1       -0.2816
     20 C         -12.6202   -2.2349   19.1814 C.ar    1  UNL1        0.0656
     21 C         -12.3327   -0.9050   18.5501 C.ar    1  UNL1        0.1039
     22 N         -11.1508   -1.0692   17.6411 N.ar    1  UNL1       -0.2269
     23 C         -10.7079   -2.5007   17.7107 C.ar    1  UNL1        0.1407
     24 N          -9.5950   -3.2411   17.0302 N.ar    1  UNL1       -0.3374
     25 C          -9.3902   -4.7021   17.3016 C.ar    1  UNL1        0.0735
     26 C         -10.2984   -5.4225   18.2536 C.ar    1  UNL1        0.0186
     27 C         -11.4113   -4.6820   18.9341 C.ar    1  UNL1        0.0047
     28 C         -11.6160   -3.2211   18.6626 C.ar    1  UNL1        0.0387
     29 H          -8.9990   -2.7683   16.4054 H       1  UNL1        0.1674
@<TRIPOS>BOND
     1     2     1    1
     2     2     3    1
     3     3     4    1
     4     4     5   am
     5     5     6    2
     6     5    12    1
     7    12    13   ar
     8    13    14   ar
     9    14    15   ar
    10    15    16   ar
    11    16    17   ar
    12     4     7    1
    13     7     8    1
    14     8     9    1
    15     9    10   am
    16    10    11    2
    17    10    18    1
    18    18    19    2
    19    18    20    1
    20    20    21   ar
    21    21    22   ar
    22    22    23   ar
    23    23    24   ar
    24    24    25   ar
    25    25    26   ar
    26    26    27   ar
    27    27    28   ar
    28     9     2    1
    29    28    20   ar
    30    17    12   ar
    31    28    23    1
    32    24    29    1
@<TRIPOS>MOLECULE
*****
 29 32 0 0 0
SMALL
GASTEIGER

@<TRIPOS>ATOM
      1 C          -6.1478  -15.2759   26.5607 C.3     1  UNL1        0.0233
      2 C          -6.0612  -16.0172   25.2596 C.3     1  UNL1        0.0956
      3 C          -4.7261  -16.4505   24.7307 C.3     1  UNL1        0.1135
      4 N          -4.6394  -17.1919   23.4296 N.am    1  UNL1       -0.2726
      5 C          -3.3042  -17.6251   22.9008 C.2     1  UNL1        0.2491
      6 O          -2.0557  -17.3171   23.6730 O.2     1  UNL1       -0.2699
      7 C          -5.8878  -17.4999   22.6573 C.3     1  UNL1        0.1152
      8 C          -7.2229  -17.0666   23.1862 C.3     1  UNL1        0.1153
      9 N          -7.3096  -16.3253   24.4873 N.am    1  UNL1       -0.2716
     10 C          -8.6447  -15.8920   25.0162 C.2     1  UNL1        0.2883
     11 O          -8.7314  -15.1507   26.3173 O.2     1  UNL1       -0.2664
     12 C          -3.2176  -18.3664   21.5997 C.ar    1  UNL1        0.0536
     13 C          -2.4871  -17.7603   20.4383 C.ar    1  UNL1        0.0045
     14 C          -2.4004  -18.5016   19.1371 C.ar    1  UNL1        0.0001
     15 C          -3.0443  -19.8492   18.9974 C.ar    1  UNL1        0.0000
     16 C          -3.7748  -20.4553   20.1588 C.ar    1  UNL1        0.0001
     17 C          -3.8614  -19.7140   21.4599 C.ar    1  UNL1        0.0045
     18 C          -9.8933  -16.2000   24.2438 C.2     1  UNL1        0.2502
     19 O         -10.8279  -15.0927   23.8565 O.2     1  UNL1       -0.2816
     20 C         -10.2071  -17.6155   23.8590 C.ar    1  UNL1        0.0656
     21 C         -10.3879  -18.7666   24.8035 C.ar    1  UNL1        0.1039
     22 N         -10.6877  -19.9908   23.9903 N.ar    1  UNL1       -0.2269
     23 C         -10.6922  -19.5963   22.5431 C.ar    1  UNL1        0.1407
     24 N         -10.9284  -20.3841   21.2887 N.ar    1  UNL1       -0.3374
     25 C         -10.8675  -19.7039   19.9532 C.ar    1  UNL1        0.0735
     26 C         -10.5705  -18.2359   19.8721 C.ar    1  UNL1        0.0186
     27 C         -10.3343  -17.4480   21.1264 C.ar    1  UNL1        0.0047
     28 C         -10.3951  -18.1282   22.4619 C.ar    1  UNL1        0.0387
     29 H         -11.1234  -21.3477   21.3420 H       1  UNL1        0.1674
@<TRIPOS>BOND
     1     2     1    1
     2     2     3    1
     3     3     4    1
     4     4     5   am
     5     5     6    2
     6     5    12    1
     7    12    13   ar
     8    13    14   ar
     9    14    15   ar
    10    15    16   ar
    11    16    17   ar
    12     4     7    1
    13     7     8    1
    14     8     9    1
    15     9    10   am
    16    10    11    2
    17    10    18    1
    18    18    19    2
    19    18    20    1
    20    20    21   ar
    21    21    22   ar
    22    22    23   ar
    23    23    24   ar
    24    24    25   ar
    25    25    26   ar
    26    26    27   ar
    27    27    28   ar
    28     9     2    1
    29    28    20   ar
    30    17    12   ar
    31    28    23    1
    32    24    29    1
@<TRIPOS>MOLECULE
*****
 29 32 0 0 0
SMALL
GASTEIGER

@<TRIPOS>ATOM
      1 C           6.2296   -3.5026   25.2856 C.3     1  UNL1        0.0233
      2 C           5.3710   -2.5342   24.5272 C.3     1  UNL1        0.0956
      3 C           5.0764   -2.7705   23.0755 C.3     1  UNL1        0.1135
      4 N           4.2178   -1.8022   22.3172 N.am    1  UNL1       -0.2726
      5 C           3.9233   -2.0385   20.8655 C.2     1  UNL1        0.2491
      6 O           4.4873   -3.2432   20.1721 O.2     1  UNL1       -0.2699
      7 C           3.6538   -0.5975   23.0104 C.3     1  UNL1        0.1152
      8 C           3.9484   -0.3612   24.4621 C.3     1  UNL1        0.1153
      9 N           4.8070   -1.3296   25.2205 N.am    1  UNL1       -0.2716
     10 C           5.1015   -1.0933   26.6722 C.2     1  UNL1        0.2883
     11 O           5.9601   -2.0617   27.4305 O.2     1  UNL1       -0.2664
     12 C           3.0647   -1.0702   20.1071 C.ar    1  UNL1        0.0536
     13 C           3.6517   -0.2670   18.9845 C.ar    1  UNL1        0.0045
     14 C           2.7931    0.7013   18.2262 C.ar    1  UNL1        0.0001
     15 C           1.3474    0.8666   18.5904 C.ar    1  UNL1        0.0000
     16 C           0.7604    0.0634   19.7130 C.ar    1  UNL1        0.0001
     17 C           1.6190   -0.9049   20.4714 C.ar    1  UNL1        0.0045
     18 C           4.5375    0.1114   27.3655 C.2     1  UNL1        0.2502
     19 O           5.1559    1.4604   27.1472 O.2     1  UNL1       -0.2816
     20 C           3.3551   -0.0330   28.2772 C.ar    1  UNL1        0.0656
     21 C           3.3702   -0.6307   29.6528 C.ar    1  UNL1        0.1039
     22 N           1.9744   -0.5722   30.1990 N.ar    1  UNL1       -0.2269
     23 C           1.0966    0.0617   29.1609 C.ar    1  UNL1        0.1407
     24 N          -0.3694    0.3786   29.1438 N.ar    1  UNL1       -0.3374
     25 C          -0.9821    1.0287   27.9388 C.ar    1  UNL1        0.0735
     26 C          -0.1288    1.3619   26.7510 C.ar    1  UNL1        0.0186
     27 C           1.3372    1.0451   26.7682 C.ar    1  UNL1        0.0047
     28 C           1.9500    0.3950   27.9731 C.ar    1  UNL1        0.0387
     29 H          -0.9294    0.1599   29.9233 H       1  UNL1        0.1674
@<TRIPOS>BOND
     1     2     1    1
     2     2     3    1
     3     3     4    1
     4     4     5   am
     5     5     6    2
     6     5    12    1
     7    12    13   ar
     8    13    14   ar
     9    14    15   ar
    10    15    16   ar
    11    16    17   ar
    12     4     7    1
    13     7     8    1
    14     8     9    1
    15     9    10   am
    16    10    11    2
    17    10    18    1
    18    18    19    2
    19    18    20    1
    20    20    21   ar
    21    21    22   ar
    22    22    23   ar
    23    23    24   ar
    24    24    25   ar
    25    25    26   ar
    26    26    27   ar
    27    27    28   ar
    28     9     2    1
    29    28    20   ar
    30    17    12   ar
    31    28    23    1
    32    24    29    1
@<TRIPOS>MOLECULE
*****
 29 32 0 0 0
SMALL
GASTEIGER

@<TRIPOS>ATOM
      1 C           2.8767    0.1423   26.5164 C.3     1  UNL1        0.0233
      2 C           3.5977   -0.5397   25.3918 C.3     1  UNL1        0.0956
      3 C           3.0186   -0.5200   24.0082 C.3     1  UNL1        0.1135
      4 N           3.7396   -1.2020   22.8835 N.am    1  UNL1       -0.2726
      5 C           3.1603   -1.1822   21.5000 C.2     1  UNL1        0.2491
      6 O           1.8602   -0.4804   21.2411 O.2     1  UNL1       -0.2699
      7 C           5.0398   -1.9038   23.1423 C.3     1  UNL1        0.1152
      8 C           5.6189   -1.9235   24.5258 C.3     1  UNL1        0.1153
      9 N           4.8979   -1.2415   25.6505 N.am    1  UNL1       -0.2716
     10 C           5.4770   -1.2613   27.0341 C.2     1  UNL1        0.2883
     11 O           4.7560   -0.5792   28.1588 O.2     1  UNL1       -0.2664
     12 C           3.8814   -1.8642   20.3753 C.ar    1  UNL1        0.0536
     13 C           3.6042   -3.3068   20.0720 C.ar    1  UNL1        0.0045
     14 C           4.3252   -3.9888   18.9473 C.ar    1  UNL1        0.0001
     15 C           5.3235   -3.2282   18.1258 C.ar    1  UNL1        0.0000
     16 C           5.6007   -1.7856   18.4291 C.ar    1  UNL1        0.0001
     17 C           4.8797   -1.1036   19.5538 C.ar    1  UNL1        0.0045
     18 C           6.7773   -1.9631   27.2929 C.2     1  UNL1        0.2502
     19 O           8.0729   -1.2982   26.9335 O.2     1  UNL1       -0.2816
     20 C           6.7818   -3.3297   27.9111 C.ar    1  UNL1        0.0656
     21 C           6.8294   -4.6327   27.1696 C.ar    1  UNL1        0.1039
     22 N           6.8165   -5.7416   28.1796 N.ar    1  UNL1       -0.2269
     23 C           6.7610   -5.1240   29.5454 C.ar    1  UNL1        0.1407
     24 N           6.7271   -5.7263   30.9187 N.ar    1  UNL1       -0.3374
     25 C           6.6718   -4.8380   32.1261 C.ar    1  UNL1        0.0735
     26 C           6.6504   -3.3473   31.9602 C.ar    1  UNL1        0.0186
     27 C           6.6842   -2.7450   30.5869 C.ar    1  UNL1        0.0047
     28 C           6.7395   -3.6333   29.3795 C.ar    1  UNL1        0.0387
     29 H           6.7412   -6.7046   31.0277 H       1  UNL1        0.1674
@<TRIPOS>BOND
     1     2     1    1
     2     2     3    1
     3     3     4    1
     4     4     5   am
     5     5     6    2
     6     5    12    1
     7    12    13   ar
     8    13    14   ar
     9    14    15   ar
    10    15    16   ar
    11    16    17   ar
    12     4     7    1
    13     7     8    1
    14     8     9    1
    15     9    10   am
    16    10    11    2
    17    10    18    1
    18    18    19    2
    19    18    20    1
    20    20    21   ar
    21    21    22   ar
    22    22    23   ar
    23    23    24   ar
    24    24    25   ar
    25    25    26   ar
    26    26    27   ar
    27    27    28   ar
    28     9     2    1
    29    28    20   ar
    30    17    12   ar
    31    28    23    1
    32    24    29    1
@<TRIPOS>MOLECULE
*****
 29 32 0 0 0
SMALL
GASTEIGER

@<TRIPOS>ATOM
      1 C          -6.4598  -14.8892   25.8555 C.3     1  UNL1        0.0233
      2 C          -6.2930  -15.8881   24.7490 C.3     1  UNL1        0.0956
      3 C          -4.9565  -16.0616   24.0904 C.3     1  UNL1        0.1135
      4 N          -4.7897  -17.0605   22.9839 N.am    1  UNL1       -0.2726
      5 C          -3.4531  -17.2339   22.3253 C.2     1  UNL1        0.2491
      6 O          -2.2835  -16.4085   22.7732 O.2     1  UNL1       -0.2699
      7 C          -5.9593  -17.8859   22.5359 C.3     1  UNL1        0.1152
      8 C          -7.2957  -17.7124   23.1945 C.3     1  UNL1        0.1153
      9 N          -7.4626  -16.7135   24.3011 N.am    1  UNL1       -0.2716
     10 C          -8.7990  -16.5401   24.9597 C.2     1  UNL1        0.2883
     11 O          -8.9659  -15.5412   26.0662 O.2     1  UNL1       -0.2664
     12 C          -3.2863  -18.2328   21.2188 C.ar    1  UNL1        0.0536
     13 C          -3.7827  -19.6372   21.3950 C.ar    1  UNL1        0.0045
     14 C          -3.6159  -20.6361   20.2885 C.ar    1  UNL1        0.0001
     15 C          -2.9526  -20.2306   19.0057 C.ar    1  UNL1        0.0000
     16 C          -2.4562  -18.8261   18.8295 C.ar    1  UNL1        0.0001
     17 C          -2.6230  -17.8273   19.9360 C.ar    1  UNL1        0.0045
     18 C          -9.9687  -17.3655   24.5117 C.2     1  UNL1        0.2502
     19 O         -10.4425  -18.5135   25.3529 O.2     1  UNL1       -0.2816
     20 C         -10.6646  -17.0429   23.2226 C.ar    1  UNL1        0.0656
     21 C         -11.5205  -15.8395   22.9599 C.ar    1  UNL1        0.1039
     22 N         -12.0115  -15.9199   21.5448 N.ar    1  UNL1       -0.2269
     23 C         -11.4590  -17.1731   20.9330 C.ar    1  UNL1        0.1407
     24 N         -11.6064  -17.7718   19.5656 N.ar    1  UNL1       -0.3374
     25 C         -10.9213  -19.0646   19.2352 C.ar    1  UNL1        0.0735
     26 C         -10.0888  -19.7587   20.2722 C.ar    1  UNL1        0.0186
     27 C          -9.9414  -19.1599   21.6395 C.ar    1  UNL1        0.0047
     28 C         -10.6265  -17.8671   21.9699 C.ar    1  UNL1        0.0387
     29 H         -12.1528  -17.3163   18.8851 H       1  UNL1        0.1674
@<TRIPOS>BOND
     1     2     1    1
     2     2     3    1
     3     3     4    1
     4     4     5   am
     5     5     6    2
     6     5    12    1
     7    12    13   ar
     8    13    14   ar
     9    14    15   ar
    10    15    16   ar
    11    16    17   ar
    12     4     7    1
    13     7     8    1
    14     8     9    1
    15     9    10   am
    16    10    11    2
    17    10    18    1
    18    18    19    2
    19    18    20    1
    20    20    21   ar
    21    21    22   ar
    22    22    23   ar
    23    23    24   ar
    24    24    25   ar
    25    25    26   ar
    26    26    27   ar
    27    27    28   ar
    28     9     2    1
    29    28    20   ar
    30    17    12   ar
    31    28    23    1
    32    24    29    1
@<TRIPOS>MOLECULE
*****
 29 32 0 0 0
SMALL
GASTEIGER

@<TRIPOS>ATOM
      1 C           2.7848   -0.1767   23.4677 C.3     1  UNL1        0.0233
      2 C           3.7861   -1.2934   23.4822 C.3     1  UNL1        0.0956
      3 C           4.4715   -1.6696   24.7624 C.3     1  UNL1        0.1135
      4 N           5.4729   -2.7863   24.7770 N.am    1  UNL1       -0.2726
      5 C           6.1582   -3.1624   26.0572 C.2     1  UNL1        0.2491
      6 O           5.8423   -2.4218   27.3227 O.2     1  UNL1       -0.2699
      7 C           5.7888   -3.5269   23.5115 C.3     1  UNL1        0.1152
      8 C           5.1034   -3.1508   22.2313 C.3     1  UNL1        0.1153
      9 N           4.1021   -2.0341   22.2167 N.am    1  UNL1       -0.2716
     10 C           3.4167   -1.6580   20.9366 C.2     1  UNL1        0.2883
     11 O           2.4154   -0.5412   20.9220 O.2     1  UNL1       -0.2664
     12 C           7.1596   -4.2791   26.0718 C.ar    1  UNL1        0.0536
     13 C           8.5332   -4.0622   25.5097 C.ar    1  UNL1        0.0045
     14 C           9.5346   -5.1789   25.5243 C.ar    1  UNL1        0.0001
     15 C           9.1622   -6.5126   26.1009 C.ar    1  UNL1        0.0000
     16 C           7.7886   -6.7296   26.6630 C.ar    1  UNL1        0.0001
     17 C           6.7872   -5.6128   26.6484 C.ar    1  UNL1        0.0045
     18 C           3.7327   -2.3986   19.6710 C.2     1  UNL1        0.2502
     19 O           2.8992   -3.5774   19.2639 O.2     1  UNL1       -0.2816
     20 C           4.8821   -1.9604   18.8126 C.ar    1  UNL1        0.0656
     21 C           5.9745   -2.8423   18.2845 C.ar    1  UNL1        0.1039
     22 N           6.9084   -1.9903   17.4771 N.ar    1  UNL1       -0.2269
     23 C           6.3931   -0.5818   17.5061 C.ar    1  UNL1        0.1407
     24 N           6.9025    0.6862   16.8876 N.ar    1  UNL1       -0.3374
     25 C           6.1595    1.9727   17.0945 C.ar    1  UNL1        0.0735
     26 C           4.9071    1.9911   17.9199 C.ar    1  UNL1        0.0186
     27 C           4.3977    0.7231   18.5384 C.ar    1  UNL1        0.0047
     28 C           5.1408   -0.5634   18.3315 C.ar    1  UNL1        0.0387
     29 H           7.7245    0.6741   16.3459 H       1  UNL1        0.1674
@<TRIPOS>BOND
     1     2     1    1
     2     2     3    1
     3     3     4    1
     4     4     5   am
     5     5     6    2
     6     5    12    1
     7    12    13   ar
     8    13    14   ar
     9    14    15   ar
    10    15    16   ar
    11    16    17   ar
    12     4     7    1
    13     7     8    1
    14     8     9    1
    15     9    10   am
    16    10    11    2
    17    10    18    1
    18    18    19    2
    19    18    20    1
    20    20    21   ar
    21    21    22   ar
    22    22    23   ar
    23    23    24   ar
    24    24    25   ar
    25    25    26   ar
    26    26    27   ar
    27    27    28   ar
    28     9     2    1
    29    28    20   ar
    30    17    12   ar
    31    28    23    1
    32    24    29    1
