@<TRIPOS>MOLECULE
*****
 28 31 0 0 0
SMALL
GASTEIGER

@<TRIPOS>ATOM
      1 O           7.8797   -2.2866   21.3921 O.2     1  UNL1       -0.1683
      2 S           7.0687   -3.4704   20.9551 S.O2    1  UNL1        0.0143
      3 O           6.2577   -4.6542   20.5182 O.2     1  UNL1       -0.1683
      4 C           5.8873   -2.5756   20.7236 C.ar    1  UNL1        0.1252
      5 C           4.6019   -3.1495   20.2056 C.ar    1  UNL1        0.0228
      6 C           3.4205   -2.2547   19.9741 C.ar    1  UNL1        0.0356
      7 C           3.5245   -0.7860   20.2606 C.ar    1  UNL1        0.1319
      8 N           4.8100   -0.2120   20.7786 N.ar    1  UNL1       -0.2278
      9 C           5.9914   -1.1068   21.0101 C.ar    1  UNL1        0.1186
     10 N           2.3432    0.1089   20.0291 N.pl3   1  UNL1       -0.2881
     11 C           1.4511    0.4846   21.1750 C.3     1  UNL1        0.1242
     12 C           0.2697    1.3795   20.9436 C.3     1  UNL1        0.1636
     13 O          -0.0196    1.8987   19.5663 O.3     1  UNL1       -0.3501
     14 C           0.8726    1.5229   18.4205 C.3     1  UNL1        0.1636
     15 C           2.0538    0.6281   18.6519 C.3     1  UNL1        0.1242
     16 C           8.2501   -4.3652   21.1866 C.3     1  UNL1        0.1823
     17 C           8.2936   -5.2523   22.3954 C.ar    1  UNL1        0.0014
     18 C           9.0286   -6.5587   22.3409 C.ar    1  UNL1       -0.0029
     19 C           9.0721   -7.4459   23.5498 C.ar    1  UNL1       -0.0048
     20 C           8.3804   -7.0265   24.8131 C.ar    1  UNL1       -0.0247
     21 C           7.6455   -5.7201   24.8675 C.ar    1  UNL1       -0.0250
     22 C           7.6020   -4.8330   23.6588 C.ar    1  UNL1       -0.0071
     23 C           6.8946   -5.1167   26.0174 C.3     1  UNL1        0.0431
     24 C           6.6933   -5.6707   27.3968 C.3     1  UNL1        0.0733
     25 N           7.1932   -6.9649   27.9668 N.3     1  UNL1       -0.2969
     26 C           8.0178   -8.0248   27.2985 C.3     1  UNL1        0.0733
     27 C           8.5462   -8.0522   25.8949 C.3     1  UNL1        0.0431
     28 H           6.3507   -7.4517   28.2727 H       1  UNL1        0.1233
@<TRIPOS>BOND
     1     1     2    2
     2     2     3    2
     3     2    16    1
     4    16    17    1
     5    17    18   ar
     6    18    19   ar
     7    19    20   ar
     8    20    21   ar
     9    21    22   ar
    10    21    23    1
    11    23    24    1
    12    24    25    1
    13    25    26    1
    14    26    27    1
    15     2     4    1
    16     4     5   ar
    17     5     6   ar
    18     6     7   ar
    19     7    10    1
    20    10    11    1
    21    11    12    1
    22    12    13    1
    23    13    14    1
    24    14    15    1
    25     7     8   ar
    26     8     9   ar
    27    22    17   ar
    28     9     4   ar
    29    27    20    1
    30    15    10    1
    31    25    28    1
@<TRIPOS>MOLECULE
*****
 28 31 0 0 0
SMALL
GASTEIGER

@<TRIPOS>ATOM
      1 O           0.6764    3.7438   21.1138 O.2     1  UNL1       -0.1683
      2 S           0.0289    2.4228   20.8210 S.O2    1  UNL1        0.0143
      3 O          -0.6186    1.1018   20.5282 O.2     1  UNL1       -0.1683
      4 C          -1.2414    2.9045   21.4568 C.ar    1  UNL1        0.1252
      5 C          -1.2470    3.3245   22.8969 C.ar    1  UNL1        0.0228
      6 C          -2.5174    3.8062   23.5326 C.ar    1  UNL1        0.0356
      7 C          -3.7821    3.8680   22.7285 C.ar    1  UNL1        0.1319
      8 N          -3.7765    3.4480   21.2884 N.ar    1  UNL1       -0.2278
      9 C          -2.5062    2.9663   20.6526 C.ar    1  UNL1        0.1186
     10 N          -5.0524    4.3496   23.3642 N.pl3   1  UNL1       -0.2881
     11 C          -6.3607    4.1758   22.6512 C.3     1  UNL1        0.1242
     12 C          -7.6311    4.6575   23.2868 C.3     1  UNL1        0.1636
     13 O          -7.5933    5.3130   24.6355 O.3     1  UNL1       -0.3501
     14 C          -6.2850    5.4868   25.3485 C.3     1  UNL1        0.1636
     15 C          -5.0147    5.0051   24.7129 C.3     1  UNL1        0.1242
     16 C           1.2992    1.9411   20.1852 C.3     1  UNL1        0.1823
     17 C           2.0419    0.7809   20.7788 C.ar    1  UNL1        0.0014
     18 C           2.4041    0.7880   22.2344 C.ar    1  UNL1       -0.0029
     19 C           3.1468   -0.3722   22.8281 C.ar    1  UNL1       -0.0048
     20 C           3.5273   -1.5394   21.9660 C.ar    1  UNL1       -0.0247
     21 C           3.1651   -1.5464   20.5106 C.ar    1  UNL1       -0.0250
     22 C           2.4224   -0.3863   19.9168 C.ar    1  UNL1       -0.0071
     23 C           3.4462   -2.6013   19.4818 C.3     1  UNL1        0.0431
     24 C           4.1591   -3.9098   19.6548 C.3     1  UNL1        0.0733
     25 N           4.7667   -4.4864   20.8989 N.3     1  UNL1       -0.2969
     26 C           4.8117   -3.8971   22.2776 C.3     1  UNL1        0.0733
     27 C           4.2601   -2.5856   22.7525 C.3     1  UNL1        0.0431
     28 H           5.7449   -4.6438   20.6563 H       1  UNL1        0.1233
@<TRIPOS>BOND
     1     1     2    2
     2     2     3    2
     3     2    16    1
     4    16    17    1
     5    17    18   ar
     6    18    19   ar
     7    19    20   ar
     8    20    21   ar
     9    21    22   ar
    10    21    23    1
    11    23    24    1
    12    24    25    1
    13    25    26    1
    14    26    27    1
    15     2     4    1
    16     4     5   ar
    17     5     6   ar
    18     6     7   ar
    19     7    10    1
    20    10    11    1
    21    11    12    1
    22    12    13    1
    23    13    14    1
    24    14    15    1
    25     7     8   ar
    26     8     9   ar
    27    22    17   ar
    28     9     4   ar
    29    27    20    1
    30    15    10    1
    31    25    28    1
@<TRIPOS>MOLECULE
*****
 28 31 0 0 0
SMALL
GASTEIGER

@<TRIPOS>ATOM
      1 O           1.8078    3.5312   19.9090 O.2     1  UNL1       -0.1683
      2 S           1.2213    2.4936   18.9982 S.O2    1  UNL1        0.0143
      3 O           0.6348    1.4561   18.0875 O.2     1  UNL1       -0.1683
      4 C          -0.1529    2.8378   19.4912 C.ar    1  UNL1        0.1252
      5 C          -1.0843    3.6311   18.6232 C.ar    1  UNL1        0.0228
      6 C          -2.4585    3.9752   19.1163 C.ar    1  UNL1        0.0356
      7 C          -2.9015    3.5260   20.4771 C.ar    1  UNL1        0.1319
      8 N          -1.9701    2.7327   21.3451 N.ar    1  UNL1       -0.2278
      9 C          -0.5959    2.3886   20.8521 C.ar    1  UNL1        0.1186
     10 N          -4.2757    3.8701   20.9702 N.pl3   1  UNL1       -0.2881
     11 C          -5.2435    4.5719   20.0642 C.3     1  UNL1        0.1242
     12 C          -6.6178    4.9161   20.5572 C.3     1  UNL1        0.1636
     13 O          -7.0242    4.5584   21.9561 O.3     1  UNL1       -0.3501
     14 C          -6.0562    3.8565   22.8620 C.3     1  UNL1        0.1636
     15 C          -4.6821    3.5125   22.3690 C.3     1  UNL1        0.1242
     16 C           2.5956    2.1495   18.5052 C.3     1  UNL1        0.1823
     17 C           3.1169    0.7508   18.6530 C.ar    1  UNL1        0.0014
     18 C           3.5220   -0.0307   17.4385 C.ar    1  UNL1       -0.0029
     19 C           4.0433   -1.4295   17.5861 C.ar    1  UNL1       -0.0048
     20 C           4.1595   -2.0467   18.9484 C.ar    1  UNL1       -0.0247
     21 C           3.7543   -1.2651   20.1628 C.ar    1  UNL1       -0.0250
     22 C           3.2330    0.1336   20.0152 C.ar    1  UNL1       -0.0071
     23 C           3.7894   -1.6878   21.6017 C.3     1  UNL1        0.0431
     24 C           4.2384   -2.9965   22.1813 C.3     1  UNL1        0.0733
     25 N           4.7631   -4.2055   21.4653 N.3     1  UNL1       -0.2969
     26 C           4.9685   -4.4047   19.9928 C.3     1  UNL1        0.0733
     27 C           4.6998   -3.4439   18.8727 C.3     1  UNL1        0.0431
     28 H           4.1322   -4.9586   21.7394 H       1  UNL1        0.1233
@<TRIPOS>BOND
     1     1     2    2
     2     2     3    2
     3     2    16    1
     4    16    17    1
     5    17    18   ar
     6    18    19   ar
     7    19    20   ar
     8    20    21   ar
     9    21    22   ar
    10    21    23    1
    11    23    24    1
    12    24    25    1
    13    25    26    1
    14    26    27    1
    15     2     4    1
    16     4     5   ar
    17     5     6   ar
    18     6     7   ar
    19     7    10    1
    20    10    11    1
    21    11    12    1
    22    12    13    1
    23    13    14    1
    24    14    15    1
    25     7     8   ar
    26     8     9   ar
    27    22    17   ar
    28     9     4   ar
    29    27    20    1
    30    15    10    1
    31    25    28    1
@<TRIPOS>MOLECULE
*****
 28 31 0 0 0
SMALL
GASTEIGER

@<TRIPOS>ATOM
      1 O           0.2071    2.2856   17.9370 O.2     1  UNL1       -0.1683
      2 S           0.7391    2.7266   19.2683 S.O2    1  UNL1        0.0143
      3 O           1.2711    3.1676   20.5997 O.2     1  UNL1       -0.1683
      4 C           1.5332    1.4582   19.3711 C.ar    1  UNL1        0.1252
      5 C           0.9529    0.2646   20.0702 C.ar    1  UNL1        0.0228
      6 C           1.7471   -1.0038   20.1730 C.ar    1  UNL1        0.0356
      7 C           3.1214   -1.0787   19.5768 C.ar    1  UNL1        0.1319
      8 N           3.7017    0.1149   18.8777 N.ar    1  UNL1       -0.2278
      9 C           2.9076    1.3833   18.7749 C.ar    1  UNL1        0.1186
     10 N           3.9156   -2.3470   19.6795 N.pl3   1  UNL1       -0.2881
     11 C           5.2450   -2.3452   20.3744 C.3     1  UNL1        0.1242
     12 C           6.0392   -3.6135   20.4772 C.3     1  UNL1        0.1636
     13 O           5.5041   -4.8836   19.8851 O.3     1  UNL1       -0.3501
     14 C           4.1747   -4.8854   19.1903 C.3     1  UNL1        0.1636
     15 C           3.3805   -3.6171   19.0875 C.3     1  UNL1        0.1242
     16 C          -0.0550    3.9950   19.1655 C.3     1  UNL1        0.1823
     17 C          -1.5529    3.9492   19.2297 C.ar    1  UNL1        0.0014
     18 C          -2.2337    3.2318   20.3574 C.ar    1  UNL1       -0.0029
     19 C          -3.7317    3.1860   20.4217 C.ar    1  UNL1       -0.0048
     20 C          -4.5488    3.8577   19.3581 C.ar    1  UNL1       -0.0247
     21 C          -3.8680    4.5751   18.2304 C.ar    1  UNL1       -0.0250
     22 C          -2.3701    4.6209   18.1661 C.ar    1  UNL1       -0.0071
     23 C          -4.4886    5.3050   17.0761 C.3     1  UNL1        0.0431
     24 C          -5.9432    5.4976   16.7646 C.3     1  UNL1        0.0733
     25 N          -7.1364    5.0081   17.5303 N.3     1  UNL1       -0.2969
     26 C          -7.1699    4.2049   18.7967 C.3     1  UNL1        0.0733
     27 C          -6.0183    3.6929   19.6102 C.3     1  UNL1        0.0431
     28 H          -7.6588    4.4466   16.8578 H       1  UNL1        0.1233
@<TRIPOS>BOND
     1     1     2    2
     2     2     3    2
     3     2    16    1
     4    16    17    1
     5    17    18   ar
     6    18    19   ar
     7    19    20   ar
     8    20    21   ar
     9    21    22   ar
    10    21    23    1
    11    23    24    1
    12    24    25    1
    13    25    26    1
    14    26    27    1
    15     2     4    1
    16     4     5   ar
    17     5     6   ar
    18     6     7   ar
    19     7    10    1
    20    10    11    1
    21    11    12    1
    22    12    13    1
    23    13    14    1
    24    14    15    1
    25     7     8   ar
    26     8     9   ar
    27    22    17   ar
    28     9     4   ar
    29    27    20    1
    30    15    10    1
    31    25    28    1
@<TRIPOS>MOLECULE
*****
 28 31 0 0 0
SMALL
GASTEIGER

@<TRIPOS>ATOM
      1 O           7.1815   -1.9792   21.3796 O.2     1  UNL1       -0.1683
      2 S           6.6696   -3.3175   20.9359 S.O2    1  UNL1        0.0143
      3 O           6.1577   -4.6558   20.4921 O.2     1  UNL1       -0.1683
      4 C           6.8313   -3.8422   22.3318 C.ar    1  UNL1        0.1252
      5 C           7.8405   -4.9145   22.6177 C.ar    1  UNL1        0.0228
      6 C           8.0022   -5.4392   24.0136 C.ar    1  UNL1        0.0356
      7 C           7.1548   -4.8917   25.1236 C.ar    1  UNL1        0.1319
      8 N           6.1456   -3.8194   24.8377 N.ar    1  UNL1       -0.2278
      9 C           5.9838   -3.2947   23.4418 C.ar    1  UNL1        0.1186
     10 N           7.3165   -5.4163   26.5195 N.pl3   1  UNL1       -0.2881
     11 C           6.5215   -4.8183   27.6422 C.3     1  UNL1        0.1242
     12 C           6.6831   -5.3428   29.0381 C.3     1  UNL1        0.1636
     13 O           7.6397   -6.4655   29.3114 O.3     1  UNL1       -0.3501
     14 C           8.4346   -7.0635   28.1887 C.3     1  UNL1        0.1636
     15 C           8.2730   -6.5389   26.7928 C.3     1  UNL1        0.1242
     16 C           6.5078   -2.7928   19.5400 C.3     1  UNL1        0.1823
     17 C           5.4779   -1.7420   19.2485 C.ar    1  UNL1        0.0014
     18 C           5.7753   -0.6543   18.2592 C.ar    1  UNL1       -0.0029
     19 C           4.7454    0.3965   17.9677 C.ar    1  UNL1       -0.0048
     20 C           3.4180    0.3596   18.6653 C.ar    1  UNL1       -0.0247
     21 C           3.1206   -0.7280   19.6545 C.ar    1  UNL1       -0.0250
     22 C           4.1505   -1.7788   19.9461 C.ar    1  UNL1       -0.0071
     23 C           1.8710   -0.9484   20.4546 C.3     1  UNL1        0.0431
     24 C           0.6103   -0.1356   20.4630 C.3     1  UNL1        0.0733
     25 N           0.2879    1.0983   19.6735 N.3     1  UNL1       -0.2969
     26 C           1.1463    1.8242   18.6805 C.3     1  UNL1        0.0733
     27 C           2.5394    1.4955   18.2318 C.3     1  UNL1        0.0431
     28 H           0.0623    1.8006   20.3779 H       1  UNL1        0.1233
@<TRIPOS>BOND
     1     1     2    2
     2     2     3    2
     3     2    16    1
     4    16    17    1
     5    17    18   ar
     6    18    19   ar
     7    19    20   ar
     8    20    21   ar
     9    21    22   ar
    10    21    23    1
    11    23    24    1
    12    24    25    1
    13    25    26    1
    14    26    27    1
    15     2     4    1
    16     4     5   ar
    17     5     6   ar
    18     6     7   ar
    19     7    10    1
    20    10    11    1
    21    11    12    1
    22    12    13    1
    23    13    14    1
    24    14    15    1
    25     7     8   ar
    26     8     9   ar
    27    22    17   ar
    28     9     4   ar
    29    27    20    1
    30    15    10    1
    31    25    28    1
@<TRIPOS>MOLECULE
*****
 28 31 0 0 0
SMALL
GASTEIGER

@<TRIPOS>ATOM
      1 O          -0.8572    1.2338   20.5333 O.2     1  UNL1       -0.1683
      2 S           0.2556    2.1446   20.1065 S.O2    1  UNL1        0.0143
      3 O           1.3684    3.0555   19.6798 O.2     1  UNL1       -0.1683
      4 C           1.1892    0.9725   20.0390 C.ar    1  UNL1        0.1252
      5 C           1.4403    0.1422   21.2627 C.ar    1  UNL1        0.0228
      6 C           2.3739   -1.0299   21.1951 C.ar    1  UNL1        0.0356
      7 C           3.0563   -1.3718   19.9038 C.ar    1  UNL1        0.1319
      8 N           2.8052   -0.5415   18.6801 N.ar    1  UNL1       -0.2278
      9 C           1.8716    0.6306   18.7476 C.ar    1  UNL1        0.1186
     10 N           3.9899   -2.5439   19.8362 N.pl3   1  UNL1       -0.2881
     11 C           3.5777   -3.7899   19.1097 C.3     1  UNL1        0.1242
     12 C           4.5112   -4.9621   19.0420 C.3     1  UNL1        0.1636
     13 O           5.8569   -4.8883   19.7008 O.3     1  UNL1       -0.3501
     14 C           6.2689   -3.6422   20.4272 C.3     1  UNL1        0.1636
     15 C           5.3354   -2.4702   20.4949 C.3     1  UNL1        0.1242
     16 C          -0.6780    3.3168   20.1741 C.3     1  UNL1        0.1823
     17 C          -1.5949    3.4784   21.3501 C.ar    1  UNL1        0.0014
     18 C          -1.0331    3.5074   22.7407 C.ar    1  UNL1       -0.0029
     19 C          -1.9500    3.6690   23.9168 C.ar    1  UNL1       -0.0048
     20 C          -3.4287    3.8016   23.7023 C.ar    1  UNL1       -0.0247
     21 C          -3.9904    3.7726   22.3118 C.ar    1  UNL1       -0.0250
     22 C          -3.0736    3.6110   21.1357 C.ar    1  UNL1       -0.0071
     23 C          -5.4221    3.8872   21.8788 C.3     1  UNL1        0.0431
     24 C          -6.6455    4.0593   22.7296 C.3     1  UNL1        0.0733
     25 N          -6.7394    4.1591   24.2233 N.3     1  UNL1       -0.2969
     26 C          -5.6332    4.1116   25.2352 C.3     1  UNL1        0.0733
     27 C          -4.1598    3.9525   25.0034 C.3     1  UNL1        0.0431
     28 H          -7.3638    3.3985   24.4914 H       1  UNL1        0.1233
@<TRIPOS>BOND
     1     1     2    2
     2     2     3    2
     3     2    16    1
     4    16    17    1
     5    17    18   ar
     6    18    19   ar
     7    19    20   ar
     8    20    21   ar
     9    21    22   ar
    10    21    23    1
    11    23    24    1
    12    24    25    1
    13    25    26    1
    14    26    27    1
    15     2     4    1
    16     4     5   ar
    17     5     6   ar
    18     6     7   ar
    19     7    10    1
    20    10    11    1
    21    11    12    1
    22    12    13    1
    23    13    14    1
    24    14    15    1
    25     7     8   ar
    26     8     9   ar
    27    22    17   ar
    28     9     4   ar
    29    27    20    1
    30    15    10    1
    31    25    28    1
@<TRIPOS>MOLECULE
*****
 28 31 0 0 0
SMALL
GASTEIGER

@<TRIPOS>ATOM
      1 O           1.7453    3.5343   21.2707 O.2     1  UNL1       -0.1683
      2 S           1.0290    2.7024   20.2485 S.O2    1  UNL1        0.0143
      3 O           0.3127    1.8705   19.2263 O.2     1  UNL1       -0.1683
      4 C          -0.2732    2.9699   20.9434 C.ar    1  UNL1        0.1252
      5 C          -0.2890    3.2951   22.4076 C.ar    1  UNL1        0.0228
      6 C          -1.5912    3.5625   23.1024 C.ar    1  UNL1        0.0356
      7 C          -2.8776    3.5048   22.3330 C.ar    1  UNL1        0.1319
      8 N          -2.8617    3.1796   20.8687 N.ar    1  UNL1       -0.2278
      9 C          -1.5596    2.9121   20.1739 C.ar    1  UNL1        0.1186
     10 N          -4.1798    3.7722   23.0277 N.pl3   1  UNL1       -0.2881
     11 C          -5.4471    3.8753   22.2318 C.3     1  UNL1        0.1242
     12 C          -6.7493    4.1427   22.9264 C.3     1  UNL1        0.1636
     13 O          -6.7844    4.3071   24.4170 O.3     1  UNL1       -0.3501
     14 C          -5.5170    4.2041   25.2129 C.3     1  UNL1        0.1636
     15 C          -4.2149    3.9366   24.5183 C.3     1  UNL1        0.1242
     16 C           2.3312    2.4349   19.5537 C.3     1  UNL1        0.1823
     17 C           2.8485    1.0312   19.4445 C.ar    1  UNL1        0.0014
     18 C           3.1069    0.4301   18.0948 C.ar    1  UNL1       -0.0029
     19 C           3.6242   -0.9737   17.9855 C.ar    1  UNL1       -0.0048
     20 C           3.8831   -1.7763   19.2261 C.ar    1  UNL1       -0.0247
     21 C           3.6246   -1.1751   20.5757 C.ar    1  UNL1       -0.0250
     22 C           3.1073    0.2286   20.6850 C.ar    1  UNL1       -0.0071
     23 C           3.8138   -1.7962   21.9280 C.3     1  UNL1        0.0431
     24 C           4.3082   -3.1719   22.2644 C.3     1  UNL1        0.0733
     25 N           4.7354   -4.2662   21.3317 N.3     1  UNL1       -0.2969
     26 C           4.7739   -4.2551   19.8323 C.3     1  UNL1        0.0733
     27 C           4.3945   -3.1470   18.8951 C.3     1  UNL1        0.0431
     28 H           4.1296   -5.0526   21.5660 H       1  UNL1        0.1233
@<TRIPOS>BOND
     1     1     2    2
     2     2     3    2
     3     2    16    1
     4    16    17    1
     5    17    18   ar
     6    18    19   ar
     7    19    20   ar
     8    20    21   ar
     9    21    22   ar
    10    21    23    1
    11    23    24    1
    12    24    25    1
    13    25    26    1
    14    26    27    1
    15     2     4    1
    16     4     5   ar
    17     5     6   ar
    18     6     7   ar
    19     7    10    1
    20    10    11    1
    21    11    12    1
    22    12    13    1
    23    13    14    1
    24    14    15    1
    25     7     8   ar
    26     8     9   ar
    27    22    17   ar
    28     9     4   ar
    29    27    20    1
    30    15    10    1
    31    25    28    1
@<TRIPOS>MOLECULE
*****
 28 31 0 0 0
SMALL
GASTEIGER

@<TRIPOS>ATOM
      1 O           1.0264    3.2444   20.4249 O.2     1  UNL1       -0.1683
      2 S           0.4453    2.6794   19.1627 S.O2    1  UNL1        0.0143
      3 O          -0.1358    2.1144   17.9005 O.2     1  UNL1       -0.1683
      4 C           1.2793    1.4441   19.3317 C.ar    1  UNL1        0.1252
      5 C           0.7629    0.2964   20.1479 C.ar    1  UNL1        0.0228
      6 C           1.5969   -0.9388   20.3168 C.ar    1  UNL1        0.0356
      7 C           2.9472   -1.0265   19.6696 C.ar    1  UNL1        0.1319
      8 N           3.4636    0.1212   18.8534 N.ar    1  UNL1       -0.2278
      9 C           2.6296    1.3565   18.6844 C.ar    1  UNL1        0.1186
     10 N           3.7812   -2.2618   19.8386 N.pl3   1  UNL1       -0.2881
     11 C           3.4507   -3.5018   19.0619 C.3     1  UNL1        0.1242
     12 C           4.2847   -4.7371   19.2307 C.3     1  UNL1        0.1636
     13 O           5.4491   -4.7324   20.1763 O.3     1  UNL1       -0.3501
     14 C           5.7796   -3.4924   20.9529 C.3     1  UNL1        0.1636
     15 C           4.9456   -2.2572   20.7840 C.3     1  UNL1        0.1242
     16 C          -0.3886    3.9147   18.9937 C.3     1  UNL1        0.1823
     17 C          -1.7841    3.9583   19.5421 C.ar    1  UNL1        0.0014
     18 C          -2.9441    4.1998   18.6223 C.ar    1  UNL1       -0.0029
     19 C          -4.3397    4.2434   19.1706 C.ar    1  UNL1       -0.0048
     20 C          -4.5751    4.0454   20.6388 C.ar    1  UNL1       -0.0247
     21 C          -3.4151    3.8039   21.5585 C.ar    1  UNL1       -0.0250
     22 C          -2.0196    3.7603   21.0102 C.ar    1  UNL1       -0.0071
     23 C          -3.4280    3.5836   23.0422 C.3     1  UNL1        0.0431
     24 C          -4.6043    3.5504   23.9726 C.3     1  UNL1        0.0733
     25 N          -6.0579    3.7293   23.6490 N.3     1  UNL1       -0.2969
     26 C          -6.6945    3.9856   22.3152 C.3     1  UNL1        0.0733
     27 C          -6.0346    4.1263   20.9755 C.3     1  UNL1        0.0431
     28 H          -6.3538    4.5148   24.2285 H       1  UNL1        0.1233
@<TRIPOS>BOND
     1     1     2    2
     2     2     3    2
     3     2    16    1
     4    16    17    1
     5    17    18   ar
     6    18    19   ar
     7    19    20   ar
     8    20    21   ar
     9    21    22   ar
    10    21    23    1
    11    23    24    1
    12    24    25    1
    13    25    26    1
    14    26    27    1
    15     2     4    1
    16     4     5   ar
    17     5     6   ar
    18     6     7   ar
    19     7    10    1
    20    10    11    1
    21    11    12    1
    22    12    13    1
    23    13    14    1
    24    14    15    1
    25     7     8   ar
    26     8     9   ar
    27    22    17   ar
    28     9     4   ar
    29    27    20    1
    30    15    10    1
    31    25    28    1
@<TRIPOS>MOLECULE
*****
 28 31 0 0 0
SMALL
GASTEIGER

@<TRIPOS>ATOM
      1 O           0.7466    3.4582   20.5467 O.2     1  UNL1       -0.1683
      2 S           0.1533    3.1970   19.1940 S.O2    1  UNL1        0.0143
      3 O          -0.4400    2.9357   17.8413 O.2     1  UNL1       -0.1683
      4 C          -1.2016    3.5740   19.7155 C.ar    1  UNL1        0.1252
      5 C          -2.1543    4.3385   18.8449 C.ar    1  UNL1        0.0228
      6 C          -3.5092    4.7155   19.3664 C.ar    1  UNL1        0.0356
      7 C          -3.9116    4.3280   20.7585 C.ar    1  UNL1        0.1319
      8 N          -2.9589    3.5635   21.6292 N.ar    1  UNL1       -0.2278
      9 C          -1.6040    3.1865   21.1077 C.ar    1  UNL1        0.1186
     10 N          -5.2665    4.7050   21.2801 N.pl3   1  UNL1       -0.2881
     11 C          -5.8902    3.9117   22.3899 C.3     1  UNL1        0.1242
     12 C          -7.2451    4.2886   22.9115 C.3     1  UNL1        0.1636
     13 O          -7.9764    5.4588   22.3234 O.3     1  UNL1       -0.3501
     14 C          -7.3526    6.2522   21.2136 C.3     1  UNL1        0.1636
     15 C          -5.9977    5.8752   20.6920 C.3     1  UNL1        0.1242
     16 C           1.5083    2.8199   18.6725 C.3     1  UNL1        0.1823
     17 C           2.0361    1.4328   18.8897 C.ar    1  UNL1        0.0014
     18 C           1.2287    0.4365   19.6679 C.ar    1  UNL1       -0.0029
     19 C           1.7565   -0.9507   19.8851 C.ar    1  UNL1       -0.0048
     20 C           3.0917   -1.3416   19.3242 C.ar    1  UNL1       -0.0247
     21 C           3.8990   -0.3453   18.5461 C.ar    1  UNL1       -0.0250
     22 C           3.3713    1.0419   18.3288 C.ar    1  UNL1       -0.0071
     23 C           5.2433   -0.5266   17.9058 C.3     1  UNL1        0.0431
     24 C           6.1123   -1.7492   17.8855 C.3     1  UNL1        0.0733
     25 N           5.8515   -3.0922   18.5005 N.3     1  UNL1       -0.2969
     26 C           4.6574   -3.5445   19.2877 C.3     1  UNL1        0.0733
     27 C           3.4292   -2.7654   19.6543 C.3     1  UNL1        0.0431
     28 H           6.6426   -3.2447   19.1260 H       1  UNL1        0.1233
@<TRIPOS>BOND
     1     1     2    2
     2     2     3    2
     3     2    16    1
     4    16    17    1
     5    17    18   ar
     6    18    19   ar
     7    19    20   ar
     8    20    21   ar
     9    21    22   ar
    10    21    23    1
    11    23    24    1
    12    24    25    1
    13    25    26    1
    14    26    27    1
    15     2     4    1
    16     4     5   ar
    17     5     6   ar
    18     6     7   ar
    19     7    10    1
    20    10    11    1
    21    11    12    1
    22    12    13    1
    23    13    14    1
    24    14    15    1
    25     7     8   ar
    26     8     9   ar
    27    22    17   ar
    28     9     4   ar
    29    27    20    1
    30    15    10    1
    31    25    28    1
