@<TRIPOS>MOLECULE
*****
 33 37 0 0 0
SMALL
GASTEIGER

@<TRIPOS>ATOM
      1 O          -3.6253  -17.9325   24.1218 O.2     1  UNL1       -0.2728
      2 C          -4.9527  -18.0300   23.4301 C.2     1  UNL1        0.2488
      3 N          -5.9850  -16.9610   23.6343 N.am    1  UNL1       -0.2779
      4 C          -5.6898  -15.7946   24.5301 C.3     1  UNL1        0.0935
      5 C          -6.7221  -14.7256   24.7343 C.3     1  UNL1        0.0219
      6 C          -8.0495  -14.8230   24.0426 C.3     1  UNL1        0.0078
      7 C          -8.3447  -15.9893   23.1468 C.3     1  UNL1        0.0419
      8 C          -7.3124  -17.0583   22.9426 C.3     1  UNL1        0.0953
      9 C          -9.6721  -16.0867   22.4551 C.ar    1  UNL1       -0.0209
     10 C          -9.7842  -15.7539   20.9968 C.ar    1  UNL1       -0.0042
     11 C         -11.1117  -15.8514   20.3052 C.ar    1  UNL1       -0.0003
     12 C         -12.3271  -16.2816   21.0719 C.ar    1  UNL1       -0.0000
     13 C         -12.2150  -16.6144   22.5302 C.ar    1  UNL1       -0.0003
     14 C         -10.8875  -16.5170   23.2218 C.ar    1  UNL1       -0.0042
     15 C          -5.2478  -19.1963   22.5343 C.3     1  UNL1        0.1946
     16 N          -4.4745  -19.3795   21.2622 N.ar    1  UNL1       -0.2808
     17 C          -4.7392  -20.4164   20.2110 C.ar    1  UNL1        0.2927
     18 O          -5.8237  -21.4520   20.2475 O.2     1  UNL1       -0.2594
     19 S          -3.7290  -20.2357   19.1171 S.2     1  UNL1       -0.0260
     20 C          -2.8400  -19.0872   19.4921 C.ar    1  UNL1        0.0498
     21 C          -1.6704  -18.4549   18.7976 C.ar    1  UNL1        0.0089
     22 C          -0.9617  -17.2934   19.4289 C.ar    1  UNL1        0.0120
     23 C          -1.4224  -16.7643   20.7547 C.ar    1  UNL1        0.0591
     24 CL         -0.7136  -15.6027   21.3860 Cl      1  UNL1       -0.0822
     25 C          -2.5920  -17.3966   21.4492 C.ar    1  UNL1        0.0292
     26 C          -3.3007  -18.5580   20.8178 C.ar    1  UNL1        0.0704
     27 C          -7.6076  -18.2246   22.0468 C.3     1  UNL1        0.0926
     28 N          -8.8448  -19.0441   22.2655 N.3     1  UNL1       -0.2670
     29 C          -9.7733  -19.3205   21.1203 C.3     1  UNL1        0.1047
     30 C         -11.0106  -20.1400   21.3389 C.3     1  UNL1        0.1595
     31 O         -11.3193  -20.6830   22.7026 O.3     1  UNL1       -0.3508
     32 C         -10.3907  -20.4065   23.8478 C.3     1  UNL1        0.1595
     33 C          -9.1535  -19.5871   23.6292 C.3     1  UNL1        0.1047
@<TRIPOS>BOND
     1     1     2    2
     2     2    15    1
     3    15    16    1
     4    16    17   ar
     5    17    18    2
     6    17    19   ar
     7    19    20   ar
     8    20    21   ar
     9    21    22   ar
    10    22    23   ar
    11    23    24    1
    12    23    25   ar
    13    25    26   ar
    14     2     3   am
    15     3     4    1
    16     4     5    1
    17     5     6    1
    18     6     7    1
    19     7     9    1
    20     9    10   ar
    21    10    11   ar
    22    11    12   ar
    23    12    13   ar
    24    13    14   ar
    25     7     8    1
    26     8    27    1
    27    27    28    1
    28    28    29    1
    29    29    30    1
    30    30    31    1
    31    31    32    1
    32    32    33    1
    33    26    16   ar
    34     8     3    1
    35    33    28    1
    36    26    20   ar
    37    14     9   ar
@<TRIPOS>MOLECULE
*****
 33 37 0 0 0
SMALL
GASTEIGER

@<TRIPOS>ATOM
      1 O           5.3062   -0.7901   27.0582 O.2     1  UNL1       -0.2728
      2 C           5.5799   -1.5135   25.7729 C.2     1  UNL1        0.2488
      3 N           4.6698   -1.3218   24.5960 N.am    1  UNL1       -0.2779
      4 C           3.4862   -0.4068   24.7044 C.3     1  UNL1        0.0935
      5 C           2.5761   -0.2150   23.5275 C.3     1  UNL1        0.0219
      6 C           2.8497   -0.9383   22.2422 C.3     1  UNL1        0.0078
      7 C           4.0333   -1.8533   22.1338 C.3     1  UNL1        0.0419
      8 C           4.9434   -2.0451   23.3107 C.3     1  UNL1        0.0953
      9 C           4.3070   -2.5767   20.8486 C.ar    1  UNL1       -0.0209
     10 C           3.9711   -4.0330   20.7213 C.ar    1  UNL1       -0.0042
     11 C           4.2448   -4.7563   19.4359 C.ar    1  UNL1       -0.0003
     12 C           4.8544   -4.0232   18.2779 C.ar    1  UNL1       -0.0000
     13 C           5.1903   -2.5669   18.4052 C.ar    1  UNL1       -0.0003
     14 C           4.9166   -1.8436   19.6905 C.ar    1  UNL1       -0.0042
     15 C           6.7634   -2.4285   25.6645 C.3     1  UNL1        0.1946
     16 N           6.8039   -3.6999   26.4594 N.ar    1  UNL1       -0.2808
     17 C           6.3856   -3.8582   27.8912 C.ar    1  UNL1        0.2927
     18 O           5.8534   -2.7730   28.7795 O.2     1  UNL1       -0.2594
     19 S           6.5929   -5.2924   28.2787 S.2     1  UNL1       -0.0260
     20 C           7.1393   -6.0204   27.0864 C.ar    1  UNL1        0.0498
     21 C           7.5350   -7.4524   26.8794 C.ar    1  UNL1        0.0089
     22 C           8.0611   -7.9001   25.5479 C.ar    1  UNL1        0.0120
     23 C           8.1915   -6.9158   24.4236 C.ar    1  UNL1        0.0591
     24 CL          8.7175   -7.3636   23.0921 Cl      1  UNL1       -0.0822
     25 C           7.7958   -5.4839   24.6306 C.ar    1  UNL1        0.0292
     26 C           7.2697   -5.0362   25.9621 C.ar    1  UNL1        0.0704
     27 C           6.1270   -2.9601   23.2023 C.3     1  UNL1        0.0926
     28 N           7.2273   -2.6513   22.2307 N.3     1  UNL1       -0.2670
     29 C           7.7540   -3.7270   21.3276 C.3     1  UNL1        0.1047
     30 C           8.8544   -3.4183   20.3559 C.3     1  UNL1        0.1595
     31 O           9.4278   -2.0339   20.2873 O.3     1  UNL1       -0.3508
     32 C           8.9010   -0.9583   21.1904 C.3     1  UNL1        0.1595
     33 C           7.8007   -1.2670   22.1620 C.3     1  UNL1        0.1047
@<TRIPOS>BOND
     1     1     2    2
     2     2    15    1
     3    15    16    1
     4    16    17   ar
     5    17    18    2
     6    17    19   ar
     7    19    20   ar
     8    20    21   ar
     9    21    22   ar
    10    22    23   ar
    11    23    24    1
    12    23    25   ar
    13    25    26   ar
    14     2     3   am
    15     3     4    1
    16     4     5    1
    17     5     6    1
    18     6     7    1
    19     7     9    1
    20     9    10   ar
    21    10    11   ar
    22    11    12   ar
    23    12    13   ar
    24    13    14   ar
    25     7     8    1
    26     8    27    1
    27    27    28    1
    28    28    29    1
    29    29    30    1
    30    30    31    1
    31    31    32    1
    32    32    33    1
    33    26    16   ar
    34     8     3    1
    35    33    28    1
    36    26    20   ar
    37    14     9   ar
@<TRIPOS>MOLECULE
*****
 33 37 0 0 0
SMALL
GASTEIGER

@<TRIPOS>ATOM
      1 O           0.1518    2.0636   24.1458 O.2     1  UNL1       -0.2728
      2 C           1.1781    1.1200   23.5922 C.2     1  UNL1        0.2488
      3 N           1.2101    0.8255   22.1217 N.am    1  UNL1       -0.2779
      4 C           0.2161    1.4746   21.2050 C.3     1  UNL1        0.0935
      5 C           0.2482    1.1802   19.7345 C.3     1  UNL1        0.0219
      6 C           1.2743    0.2366   19.1807 C.3     1  UNL1        0.0078
      7 C           2.2684   -0.4125   20.0975 C.3     1  UNL1        0.0419
      8 C           2.2363   -0.1180   21.5680 C.3     1  UNL1        0.0953
      9 C           3.2946   -1.3561   19.5439 C.ar    1  UNL1       -0.0209
     10 C           3.1175   -2.8366   19.7069 C.ar    1  UNL1       -0.0042
     11 C           4.1438   -3.7802   19.1532 C.ar    1  UNL1       -0.0003
     12 C           5.3471   -3.2432   18.4365 C.ar    1  UNL1       -0.0000
     13 C           5.5242   -1.7626   18.2734 C.ar    1  UNL1       -0.0003
     14 C           4.4979   -0.8191   18.8271 C.ar    1  UNL1       -0.0042
     15 C           2.1721    0.4709   24.5089 C.3     1  UNL1        0.1946
     16 N           2.5277    1.1229   25.8122 N.ar    1  UNL1       -0.2808
     17 C           3.8030    1.8527   26.1138 C.ar    1  UNL1        0.2927
     18 O           4.9465    2.0587   25.1653 O.2     1  UNL1       -0.2594
     19 S           3.7338    2.3404   27.5307 S.2     1  UNL1       -0.0260
     20 C           2.4159    1.9120   28.1046 C.ar    1  UNL1        0.0498
     21 C           1.7983    2.1099   29.4572 C.ar    1  UNL1        0.0089
     22 C           0.4352    1.5552   29.7476 C.ar    1  UNL1        0.0120
     23 C          -0.3103    0.8028   28.6855 C.ar    1  UNL1        0.0591
     24 CL         -1.6734    0.2481   28.9759 Cl      1  UNL1       -0.0822
     25 C           0.3073    0.6049   27.3329 C.ar    1  UNL1        0.0292
     26 C           1.6704    1.1595   27.0425 C.ar    1  UNL1        0.0704
     27 C           3.2304   -0.7672   22.4847 C.3     1  UNL1        0.0926
     28 N           4.6978   -0.5203   22.2956 N.3     1  UNL1       -0.2670
     29 C           5.1993    0.8734   22.0583 C.3     1  UNL1        0.1047
     30 C           6.6667    1.1204   21.8692 C.3     1  UNL1        0.1595
     31 O           7.6326   -0.0262   21.9174 O.3     1  UNL1       -0.3508
     32 C           7.1310   -1.4198   22.1548 C.3     1  UNL1        0.1595
     33 C           5.6636   -1.6669   22.3439 C.3     1  UNL1        0.1047
@<TRIPOS>BOND
     1     1     2    2
     2     2    15    1
     3    15    16    1
     4    16    17   ar
     5    17    18    2
     6    17    19   ar
     7    19    20   ar
     8    20    21   ar
     9    21    22   ar
    10    22    23   ar
    11    23    24    1
    12    23    25   ar
    13    25    26   ar
    14     2     3   am
    15     3     4    1
    16     4     5    1
    17     5     6    1
    18     6     7    1
    19     7     9    1
    20     9    10   ar
    21    10    11   ar
    22    11    12   ar
    23    12    13   ar
    24    13    14   ar
    25     7     8    1
    26     8    27    1
    27    27    28    1
    28    28    29    1
    29    29    30    1
    30    30    31    1
    31    31    32    1
    32    32    33    1
    33    26    16   ar
    34     8     3    1
    35    33    28    1
    36    26    20   ar
    37    14     9   ar
@<TRIPOS>MOLECULE
*****
 33 37 0 0 0
SMALL
GASTEIGER

@<TRIPOS>ATOM
      1 O           0.6889    1.7790   20.2233 O.2     1  UNL1       -0.2728
      2 C           0.9833    1.3964   21.6436 C.2     1  UNL1        0.2488
      3 N           0.1916    2.0039   22.7634 N.am    1  UNL1       -0.2779
      4 C          -0.8944    2.9940   22.4631 C.3     1  UNL1        0.0935
      5 C          -1.6862    3.6015   23.5829 C.3     1  UNL1        0.0219
      6 C          -1.3919    3.2190   25.0031 C.3     1  UNL1        0.0078
      7 C          -0.3058    2.2290   25.3035 C.3     1  UNL1        0.0419
      8 C           0.4859    1.6214   24.1836 C.3     1  UNL1        0.0953
      9 C          -0.0114    1.8464   26.7236 C.ar    1  UNL1       -0.0209
     10 C          -0.5890    0.5860   27.2960 C.ar    1  UNL1       -0.0042
     11 C          -0.2946    0.2034   28.7163 C.ar    1  UNL1       -0.0003
     12 C           0.5775    1.0813   29.5641 C.ar    1  UNL1       -0.0000
     13 C           1.1551    2.3418   28.9917 C.ar    1  UNL1       -0.0003
     14 C           0.8607    2.7243   27.5715 C.ar    1  UNL1       -0.0042
     15 C           2.0693    0.4063   21.9439 C.3     1  UNL1        0.1946
     16 N           3.2930    0.3497   21.0782 N.ar    1  UNL1       -0.2808
     17 C           4.2825    1.4589   20.8765 C.ar    1  UNL1        0.2927
     18 O           4.2220    2.8195   21.5051 O.2     1  UNL1       -0.2594
     19 S           5.3430    0.9686   19.9359 S.2     1  UNL1       -0.0260
     20 C           5.0091   -0.4436   19.5562 C.ar    1  UNL1        0.0498
     21 C           5.6950   -1.4306   18.6588 C.ar    1  UNL1        0.0089
     22 C           5.1139   -2.8002   18.4675 C.ar    1  UNL1        0.0120
     23 C           3.8469   -3.1827   19.1735 C.ar    1  UNL1        0.0591
     24 CL          3.2658   -4.5523   18.9821 Cl      1  UNL1       -0.0822
     25 C           3.1610   -2.1957   20.0708 C.ar    1  UNL1        0.0292
     26 C           3.7421   -0.8261   20.2622 C.ar    1  UNL1        0.0704
     27 C           1.5720    0.6313   24.4840 C.3     1  UNL1        0.0926
     28 N           2.7848    1.0595   25.2558 N.3     1  UNL1       -0.2670
     29 C           3.2932    0.2123   26.3843 C.3     1  UNL1        0.1047
     30 C           4.5061    0.6404   27.1562 C.3     1  UNL1        0.1595
     31 O           5.2105    1.9158   26.7995 O.3     1  UNL1       -0.3508
     32 C           4.7020    2.7630   25.6709 C.3     1  UNL1        0.1595
     33 C           3.4892    2.3349   24.8990 C.3     1  UNL1        0.1047
@<TRIPOS>BOND
     1     1     2    2
     2     2    15    1
     3    15    16    1
     4    16    17   ar
     5    17    18    2
     6    17    19   ar
     7    19    20   ar
     8    20    21   ar
     9    21    22   ar
    10    22    23   ar
    11    23    24    1
    12    23    25   ar
    13    25    26   ar
    14     2     3   am
    15     3     4    1
    16     4     5    1
    17     5     6    1
    18     6     7    1
    19     7     9    1
    20     9    10   ar
    21    10    11   ar
    22    11    12   ar
    23    12    13   ar
    24    13    14   ar
    25     7     8    1
    26     8    27    1
    27    27    28    1
    28    28    29    1
    29    29    30    1
    30    30    31    1
    31    31    32    1
    32    32    33    1
    33    26    16   ar
    34     8     3    1
    35    33    28    1
    36    26    20   ar
    37    14     9   ar
@<TRIPOS>MOLECULE
*****
 33 37 0 0 0
SMALL
GASTEIGER

@<TRIPOS>ATOM
      1 O           7.2341   -1.8118   25.8853 O.2     1  UNL1       -0.2728
      2 C           6.2772   -1.9047   24.7338 C.2     1  UNL1        0.2488
      3 N           5.7068   -0.6557   24.1300 N.am    1  UNL1       -0.2779
      4 C           6.0931    0.6862   24.6778 C.3     1  UNL1        0.0935
      5 C           5.5227    1.9353   24.0741 C.3     1  UNL1        0.0219
      6 C           4.5659    1.8424   22.9226 C.3     1  UNL1        0.0078
      7 C           4.1796    0.5005   22.3748 C.3     1  UNL1        0.0419
      8 C           4.7500   -0.7485   22.9786 C.3     1  UNL1        0.0953
      9 C           3.2228    0.4076   21.2234 C.ar    1  UNL1       -0.0209
     10 C           3.7008    0.6770   19.8274 C.ar    1  UNL1       -0.0042
     11 C           2.7440    0.5840   18.6759 C.ar    1  UNL1       -0.0003
     12 C           1.3091    0.2217   18.9205 C.ar    1  UNL1       -0.0000
     13 C           0.8310   -0.0477   20.3165 C.ar    1  UNL1       -0.0003
     14 C           1.7879    0.0453   21.4679 C.ar    1  UNL1       -0.0042
     15 C           5.8910   -3.2466   24.1861 C.3     1  UNL1        0.1946
     16 N           6.8012   -4.4239   24.3743 N.ar    1  UNL1       -0.2808
     17 C           7.5780   -5.1191   23.2957 C.ar    1  UNL1        0.2927
     18 O           7.5809   -4.7590   21.8395 O.2     1  UNL1       -0.2594
     19 S           8.3514   -6.2375   23.9289 S.2     1  UNL1       -0.0260
     20 C           8.0526   -6.2335   25.3989 C.ar    1  UNL1        0.0498
     21 C           8.5291   -7.1058   26.5223 C.ar    1  UNL1        0.0089
     22 C           8.0476   -6.8571   27.9209 C.ar    1  UNL1        0.0120
     23 C           7.0895   -5.7362   28.1962 C.ar    1  UNL1        0.0591
     24 CL          6.6080   -5.4876   29.5949 Cl      1  UNL1       -0.0822
     25 C           6.6130   -4.8640   27.0728 C.ar    1  UNL1        0.0292
     26 C           7.0945   -5.1126   25.6741 C.ar    1  UNL1        0.0704
     27 C           4.3637   -2.0904   22.4308 C.3     1  UNL1        0.0926
     28 N           4.7564   -2.4718   21.0343 N.3     1  UNL1       -0.2670
     29 C           6.0992   -2.0733   20.4976 C.3     1  UNL1        0.1047
     30 C           6.4920   -2.4547   19.1010 C.3     1  UNL1        0.1595
     31 O           5.5420   -3.2347   18.2412 O.3     1  UNL1       -0.3508
     32 C           4.1992   -3.6331   18.7780 C.3     1  UNL1        0.1595
     33 C           3.8064   -3.2518   20.1745 C.3     1  UNL1        0.1047
@<TRIPOS>BOND
     1     1     2    2
     2     2    15    1
     3    15    16    1
     4    16    17   ar
     5    17    18    2
     6    17    19   ar
     7    19    20   ar
     8    20    21   ar
     9    21    22   ar
    10    22    23   ar
    11    23    24    1
    12    23    25   ar
    13    25    26   ar
    14     2     3   am
    15     3     4    1
    16     4     5    1
    17     5     6    1
    18     6     7    1
    19     7     9    1
    20     9    10   ar
    21    10    11   ar
    22    11    12   ar
    23    12    13   ar
    24    13    14   ar
    25     7     8    1
    26     8    27    1
    27    27    28    1
    28    28    29    1
    29    29    30    1
    30    30    31    1
    31    31    32    1
    32    32    33    1
    33    26    16   ar
    34     8     3    1
    35    33    28    1
    36    26    20   ar
    37    14     9   ar
@<TRIPOS>MOLECULE
*****
 33 37 0 0 0
SMALL
GASTEIGER

@<TRIPOS>ATOM
      1 O           2.8452   -0.1931   22.3263 O.2     1  UNL1       -0.2728
      2 C           1.8718    0.5673   21.4752 C.2     1  UNL1        0.2488
      3 N           0.8585    1.4680   22.1171 N.am    1  UNL1       -0.2779
      4 C           0.8187    1.6083   23.6100 C.3     1  UNL1        0.0935
      5 C          -0.1946    2.5090   24.2519 C.3     1  UNL1        0.0219
      6 C          -1.1681    3.2693   23.4010 C.3     1  UNL1        0.0078
      7 C          -1.1283    3.1290   21.9081 C.3     1  UNL1        0.0419
      8 C          -0.1150    2.2283   21.2662 C.3     1  UNL1        0.0953
      9 C          -2.1017    3.8893   21.0571 C.ar    1  UNL1       -0.0209
     10 C          -3.3014    3.1935   20.4856 C.ar    1  UNL1       -0.0042
     11 C          -4.2749    3.9539   19.6345 C.ar    1  UNL1       -0.0003
     12 C          -4.0486    5.4102   19.3549 C.ar    1  UNL1       -0.0000
     13 C          -2.8489    6.1060   19.9264 C.ar    1  UNL1       -0.0003
     14 C          -1.8755    5.3456   20.7774 C.ar    1  UNL1       -0.0042
     15 C           1.9116    0.4270   19.9824 C.3     1  UNL1        0.1946
     16 N           3.1838    0.0176   19.3012 N.ar    1  UNL1       -0.2808
     17 C           4.1652    0.9388   18.6391 C.ar    1  UNL1        0.2927
     18 O           4.0468    2.4309   18.5420 O.2     1  UNL1       -0.2594
     19 S           5.2858    0.1057   18.0912 S.2     1  UNL1       -0.0260
     20 C           4.9970   -1.3303   18.4147 C.ar    1  UNL1        0.0498
     21 C           5.7492   -2.5952   18.1249 C.ar    1  UNL1        0.0089
     22 C           5.2021   -3.9147   18.5829 C.ar    1  UNL1        0.0120
     23 C           3.9030   -3.9691   19.3307 C.ar    1  UNL1        0.0591
     24 CL          3.3560   -5.2886   19.7888 Cl      1  UNL1       -0.0822
     25 C           3.1508   -2.7041   19.6205 C.ar    1  UNL1        0.0292
     26 C           3.6979   -1.3847   19.1625 C.ar    1  UNL1        0.0704
     27 C          -0.0752    2.0880   19.7733 C.3     1  UNL1        0.0926
     28 N           0.2126    3.2840   18.9149 N.3     1  UNL1       -0.2670
     29 C           1.3166    4.2278   19.2897 C.3     1  UNL1        0.1047
     30 C           1.6044    5.4239   18.4313 C.3     1  UNL1        0.1595
     31 O           0.7884    5.6761   17.1983 O.3     1  UNL1       -0.3508
     32 C          -0.3156    4.7321   16.8236 C.3     1  UNL1        0.1595
     33 C          -0.6035    3.5361   17.6819 C.3     1  UNL1        0.1047
@<TRIPOS>BOND
     1     1     2    2
     2     2    15    1
     3    15    16    1
     4    16    17   ar
     5    17    18    2
     6    17    19   ar
     7    19    20   ar
     8    20    21   ar
     9    21    22   ar
    10    22    23   ar
    11    23    24    1
    12    23    25   ar
    13    25    26   ar
    14     2     3   am
    15     3     4    1
    16     4     5    1
    17     5     6    1
    18     6     7    1
    19     7     9    1
    20     9    10   ar
    21    10    11   ar
    22    11    12   ar
    23    12    13   ar
    24    13    14   ar
    25     7     8    1
    26     8    27    1
    27    27    28    1
    28    28    29    1
    29    29    30    1
    30    30    31    1
    31    31    32    1
    32    32    33    1
    33    26    16   ar
    34     8     3    1
    35    33    28    1
    36    26    20   ar
    37    14     9   ar
@<TRIPOS>MOLECULE
*****
 33 37 0 0 0
SMALL
GASTEIGER

@<TRIPOS>ATOM
      1 O           3.3573    0.7690   25.9898 O.2     1  UNL1       -0.2728
      2 C           3.2314    0.1188   24.6438 C.2     1  UNL1        0.2488
      3 N           4.1150   -1.0389   24.2847 N.am    1  UNL1       -0.2779
      4 C           5.1243   -1.5465   25.2714 C.3     1  UNL1        0.0935
      5 C           6.0078   -2.7043   24.9123 C.3     1  UNL1        0.0219
      6 C           5.8820   -3.3545   23.5665 C.3     1  UNL1        0.0078
      7 C           4.8727   -2.8469   22.5797 C.3     1  UNL1        0.0419
      8 C           3.9892   -1.6892   22.9388 C.3     1  UNL1        0.0953
      9 C           4.7469   -3.4971   21.2338 C.ar    1  UNL1       -0.0209
     10 C           3.7414   -4.5894   21.0196 C.ar    1  UNL1       -0.0042
     11 C           3.6156   -5.2395   19.6736 C.ar    1  UNL1       -0.0003
     12 C           4.4953   -4.7973   18.5419 C.ar    1  UNL1       -0.0000
     13 C           5.5008   -3.7050   18.7562 C.ar    1  UNL1       -0.0003
     14 C           5.6265   -3.0549   20.1021 C.ar    1  UNL1       -0.0042
     15 C           2.2222    0.6264   23.6572 C.3     1  UNL1        0.1946
     16 N           1.4762    1.8980   23.9341 N.ar    1  UNL1       -0.2808
     17 C           1.5580    3.1613   23.1294 C.ar    1  UNL1        0.2927
     18 O           2.4001    3.3748   21.9066 O.2     1  UNL1       -0.2594
     19 S           0.6499    4.1735   23.7624 S.2     1  UNL1       -0.0260
     20 C           0.0068    3.5359   24.9581 C.ar    1  UNL1        0.0498
     21 C          -0.9778    4.0541   25.9640 C.ar    1  UNL1        0.0089
     22 C          -1.4517    3.1660   27.0761 C.ar    1  UNL1        0.0120
     23 C          -0.9410    1.7596   27.1822 C.ar    1  UNL1        0.0591
     24 CL         -1.4149    0.8715   28.2943 Cl      1  UNL1       -0.0822
     25 C           0.0436    1.2414   26.1763 C.ar    1  UNL1        0.0292
     26 C           0.5175    2.1295   25.0643 C.ar    1  UNL1        0.0704
     27 C           2.9799   -1.1816   21.9521 C.3     1  UNL1        0.0926
     28 N           3.4353   -0.4804   20.7067 N.3     1  UNL1       -0.2670
     29 C           4.5304    0.5421   20.7796 C.3     1  UNL1        0.1047
     30 C           4.9859    1.2433   19.5342 C.3     1  UNL1        0.1595
     31 O           4.3463    0.9220   18.2160 O.3     1  UNL1       -0.3508
     32 C           3.2512   -0.1005   18.1432 C.3     1  UNL1        0.1595
     33 C           2.7957   -0.8017   19.3885 C.3     1  UNL1        0.1047
@<TRIPOS>BOND
     1     1     2    2
     2     2    15    1
     3    15    16    1
     4    16    17   ar
     5    17    18    2
     6    17    19   ar
     7    19    20   ar
     8    20    21   ar
     9    21    22   ar
    10    22    23   ar
    11    23    24    1
    12    23    25   ar
    13    25    26   ar
    14     2     3   am
    15     3     4    1
    16     4     5    1
    17     5     6    1
    18     6     7    1
    19     7     9    1
    20     9    10   ar
    21    10    11   ar
    22    11    12   ar
    23    12    13   ar
    24    13    14   ar
    25     7     8    1
    26     8    27    1
    27    27    28    1
    28    28    29    1
    29    29    30    1
    30    30    31    1
    31    31    32    1
    32    32    33    1
    33    26    16   ar
    34     8     3    1
    35    33    28    1
    36    26    20   ar
    37    14     9   ar
@<TRIPOS>MOLECULE
*****
 33 37 0 0 0
SMALL
GASTEIGER

@<TRIPOS>ATOM
      1 O           4.3431    0.8097   34.9496 O.2     1  UNL1       -0.2728
      2 C           3.7906    0.5468   33.5801 C.2     1  UNL1        0.2488
      3 N           2.7296    1.4438   33.0146 N.am    1  UNL1       -0.2779
      4 C           2.2213    2.6036   33.8186 C.3     1  UNL1        0.0935
      5 C           1.1603    3.5006   33.2531 C.3     1  UNL1        0.0219
      6 C           0.6077    3.2378   31.8836 C.3     1  UNL1        0.0078
      7 C           1.1161    2.0780   31.0796 C.3     1  UNL1        0.0419
      8 C           2.1770    1.1810   31.6451 C.3     1  UNL1        0.0953
      9 C           0.5635    1.8152   29.7101 C.ar    1  UNL1       -0.0209
     10 C          -0.4193    0.7019   29.4988 C.ar    1  UNL1       -0.0042
     11 C          -0.9718    0.4391   28.1291 C.ar    1  UNL1       -0.0003
     12 C          -0.5415    1.2896   26.9709 C.ar    1  UNL1       -0.0000
     13 C           0.4413    2.4028   27.1822 C.ar    1  UNL1       -0.0003
     14 C           0.9938    2.6656   28.5518 C.ar    1  UNL1       -0.0042
     15 C           4.2990   -0.6129   32.7761 C.3     1  UNL1        0.1946
     16 N           5.7323   -0.6492   32.3355 N.ar    1  UNL1       -0.2808
     17 C           6.6232    0.5406   32.1341 C.ar    1  UNL1        0.2927
     18 O           6.2372    1.9757   32.3379 O.2     1  UNL1       -0.2594
     19 S           7.9679    0.0434   31.6930 S.2     1  UNL1       -0.0260
     20 C           7.9081   -1.4537   31.6218 C.ar    1  UNL1        0.0498
     21 C           8.9333   -2.4825   31.2467 C.ar    1  UNL1        0.0089
     22 C           8.5767   -3.9393   31.2688 C.ar    1  UNL1        0.0120
     23 C           7.1950   -4.3673   31.6659 C.ar    1  UNL1        0.0591
     24 CL          6.8385   -5.8243   31.6879 Cl      1  UNL1       -0.0822
     25 C           6.1699   -3.3386   32.0409 C.ar    1  UNL1        0.0292
     26 C           6.5264   -1.8818   32.0189 C.ar    1  UNL1        0.0704
     27 C           2.6854    0.0213   30.8411 C.3     1  UNL1        0.0926
     28 N           3.3276    0.2580   29.5063 N.3     1  UNL1       -0.2670
     29 C           4.3663    1.3292   29.3533 C.3     1  UNL1        0.1047
     30 C           5.0086    1.5660   28.0185 C.3     1  UNL1        0.1595
     31 O           4.6121    0.7315   26.8368 O.3     1  UNL1       -0.3508
     32 C           3.5733   -0.3397   26.9899 C.3     1  UNL1        0.1595
     33 C           2.9310   -0.5765   28.3246 C.3     1  UNL1        0.1047
@<TRIPOS>BOND
     1     1     2    2
     2     2    15    1
     3    15    16    1
     4    16    17   ar
     5    17    18    2
     6    17    19   ar
     7    19    20   ar
     8    20    21   ar
     9    21    22   ar
    10    22    23   ar
    11    23    24    1
    12    23    25   ar
    13    25    26   ar
    14     2     3   am
    15     3     4    1
    16     4     5    1
    17     5     6    1
    18     6     7    1
    19     7     9    1
    20     9    10   ar
    21    10    11   ar
    22    11    12   ar
    23    12    13   ar
    24    13    14   ar
    25     7     8    1
    26     8    27    1
    27    27    28    1
    28    28    29    1
    29    29    30    1
    30    30    31    1
    31    31    32    1
    32    32    33    1
    33    26    16   ar
    34     8     3    1
    35    33    28    1
    36    26    20   ar
    37    14     9   ar
@<TRIPOS>MOLECULE
*****
 33 37 0 0 0
SMALL
GASTEIGER

@<TRIPOS>ATOM
      1 O           5.4218   -2.2843   26.3121 O.2     1  UNL1       -0.2728
      2 C           4.6814   -1.4281   25.3278 C.2     1  UNL1        0.2488
      3 N           4.4908   -1.9010   23.9171 N.am    1  UNL1       -0.2779
      4 C           5.0405   -3.2299   23.4908 C.3     1  UNL1        0.0935
      5 C           4.8499   -3.7028   22.0801 C.3     1  UNL1        0.0219
      6 C           4.1095   -2.8468   21.0957 C.3     1  UNL1        0.0078
      7 C           3.5598   -1.5179   21.5220 C.3     1  UNL1        0.0419
      8 C           3.7504   -1.0450   22.9327 C.3     1  UNL1        0.0953
      9 C           2.8194   -0.6618   20.5377 C.ar    1  UNL1       -0.0209
     10 C           3.5700    0.0611   19.4588 C.ar    1  UNL1       -0.0042
     11 C           2.8295    0.9172   18.4745 C.ar    1  UNL1       -0.0003
     12 C           1.3384    1.0504   18.5691 C.ar    1  UNL1       -0.0000
     13 C           0.5878    0.3276   19.6480 C.ar    1  UNL1       -0.0003
     14 C           1.3283   -0.5285   20.6323 C.ar    1  UNL1       -0.0042
     15 C           4.1317   -0.0993   25.7542 C.3     1  UNL1        0.1946
     16 N           3.1710   -0.0188   26.9033 N.ar    1  UNL1       -0.2808
     17 C           3.4002   -0.5591   28.2837 C.ar    1  UNL1        0.2927
     18 O           4.6304   -1.2747   28.7574 O.2     1  UNL1       -0.2594
     19 S           2.1832   -0.2580   29.1072 S.2     1  UNL1       -0.0260
     20 C           1.2018    0.4683   28.2358 C.ar    1  UNL1        0.0498
     21 C          -0.1688    1.0142   28.5067 C.ar    1  UNL1        0.0089
     22 C          -0.9289    1.7078   27.4154 C.ar    1  UNL1        0.0120
     23 C          -0.3185    1.8557   26.0533 C.ar    1  UNL1        0.0591
     24 CL         -1.0787    2.5494   24.9620 Cl      1  UNL1       -0.0822
     25 C           1.0522    1.3099   25.7824 C.ar    1  UNL1        0.0292
     26 C           1.8123    0.6162   26.8737 C.ar    1  UNL1        0.0704
     27 C           3.2007    0.2839   23.3590 C.3     1  UNL1        0.0926
     28 N           3.7394    1.5470   22.7555 N.3     1  UNL1       -0.2670
     29 C           5.2202    1.7360   22.6092 C.3     1  UNL1        0.1047
     30 C           5.7591    2.9992   22.0056 C.3     1  UNL1        0.1595
     31 O           4.8171    4.0732   21.5484 O.3     1  UNL1       -0.3508
     32 C           3.3362    3.8841   21.6947 C.3     1  UNL1        0.1595
     33 C           2.7974    2.6210   22.2983 C.3     1  UNL1        0.1047
@<TRIPOS>BOND
     1     1     2    2
     2     2    15    1
     3    15    16    1
     4    16    17   ar
     5    17    18    2
     6    17    19   ar
     7    19    20   ar
     8    20    21   ar
     9    21    22   ar
    10    22    23   ar
    11    23    24    1
    12    23    25   ar
    13    25    26   ar
    14     2     3   am
    15     3     4    1
    16     4     5    1
    17     5     6    1
    18     6     7    1
    19     7     9    1
    20     9    10   ar
    21    10    11   ar
    22    11    12   ar
    23    12    13   ar
    24    13    14   ar
    25     7     8    1
    26     8    27    1
    27    27    28    1
    28    28    29    1
    29    29    30    1
    30    30    31    1
    31    31    32    1
    32    32    33    1
    33    26    16   ar
    34     8     3    1
    35    33    28    1
    36    26    20   ar
    37    14     9   ar
