@<TRIPOS>MOLECULE
*****
 34 37 0 0 0
SMALL
GASTEIGER

@<TRIPOS>ATOM
      1 N           6.2578   -2.1220   22.7895 N.am    1  UNL1       -0.2438
      2 C           5.5478   -0.8551   22.4142 C.3     1  UNL1        0.1009
      3 C           4.5038   -0.8712   21.3373 C.3     1  UNL1        0.0662
      4 C           4.1698   -2.1542   20.6356 C.3     1  UNL1        0.1600
      5 O           4.8798   -3.4211   21.0108 O.3     1  UNL1       -0.4374
      6 C           5.9238   -3.4050   22.0877 C.2     1  UNL1        0.4051
      7 O           6.6339   -4.6719   22.4629 O.2     1  UNL1       -0.2262
      8 C           3.2305   -1.2202   19.9318 C.ar    1  UNL1        0.0138
      9 C           1.8580   -0.9780   20.4864 C.ar    1  UNL1       -0.0010
     10 C           0.9188   -0.0440   19.7826 C.ar    1  UNL1       -0.0002
     11 C           1.3519    0.6478   18.5241 C.ar    1  UNL1       -0.0000
     12 C           2.7243    0.4057   17.9694 C.ar    1  UNL1       -0.0002
     13 C           3.6637   -0.5283   18.6732 C.ar    1  UNL1       -0.0010
     14 C           7.3018   -2.1059   23.8664 C.3     1  UNL1        0.1011
     15 C           8.7562   -2.1474   23.5016 C.3     1  UNL1        0.0265
     16 C           6.0708   -1.9333   28.1912 C.ar    1  UNL1        0.0192
     17 C           6.3035   -0.6641   27.4265 C.ar    1  UNL1        0.0013
     18 C           6.7138   -0.7216   25.9848 C.ar    1  UNL1       -0.0026
     19 C           6.8915   -2.0484   25.3080 C.ar    1  UNL1       -0.0042
     20 C           6.6588   -3.3176   26.0728 C.ar    1  UNL1       -0.0026
     21 C           6.2484   -3.2600   27.5144 C.ar    1  UNL1        0.0013
     22 C           4.4293   -1.7031   33.9578 C.3     1  UNL1        0.0538
     23 C           4.8397   -1.7607   32.5161 C.ar    1  UNL1        0.0785
     24 C           5.8456   -2.7767   32.0626 C.ar    1  UNL1        0.1135
     25 N           6.2560   -2.8343   30.6210 N.ar    1  UNL1       -0.2410
     26 C           5.6604   -1.8757   29.6329 C.ar    1  UNL1        0.1004
     27 C           4.6545   -0.8597   30.0864 C.ar    1  UNL1        0.1175
     28 N           4.2441   -0.8021   31.5280 N.ar    1  UNL1       -0.2450
     29 C           3.5096   -3.1128   19.6895 C.3     1  UNL1        0.0714
     30 C           4.2496   -4.3288   19.2162 C.3     1  UNL1        0.0922
     31 C           5.2097   -3.4529   18.4671 C.3     1  UNL1        0.0294
     32 C           3.2894   -5.2046   19.9653 C.3     1  UNL1        0.0294
     33 O           4.9895   -5.5447   18.7429 O.3     1  UNL1       -0.3866
     34 H           5.7344   -5.2729   18.1842 H       1  UNL1        0.2102
@<TRIPOS>BOND
     1    22    23    1
     2    23    24   ar
     3    24    25   ar
     4    25    26   ar
     5    26    16    1
     6    16    17   ar
     7    17    18   ar
     8    18    19   ar
     9    19    14    1
    10    14    15    1
    11    14     1    1
    12     1     2    1
    13     2     3    1
    14     3     4    1
    15     4    29    1
    16    29    30    1
    17    30    31    1
    18    30    32    1
    19    30    33    1
    20     4     8    1
    21     8     9   ar
    22     9    10   ar
    23    10    11   ar
    24    11    12   ar
    25    12    13   ar
    26     4     5    1
    27     5     6    1
    28     6     7    2
    29    19    20   ar
    30    20    21   ar
    31    26    27   ar
    32    27    28   ar
    33    28    23   ar
    34    21    16   ar
    35     6     1   am
    36    13     8   ar
    37    33    34    1
@<TRIPOS>MOLECULE
*****
 34 37 0 0 0
SMALL
GASTEIGER

@<TRIPOS>ATOM
      1 N           1.1723    1.6355   19.5033 N.am    1  UNL1       -0.2438
      2 C           0.8954    0.1683   19.6464 C.3     1  UNL1        0.1009
      3 C           2.0257   -0.7883   19.8864 C.3     1  UNL1        0.0662
      4 C           3.4327   -0.2776   19.9831 C.3     1  UNL1        0.1600
      5 O           3.7096    1.1896   19.8400 O.3     1  UNL1       -0.4374
      6 C           2.5794    2.1462   19.6001 C.2     1  UNL1        0.4051
      7 O           2.8562    3.6135   19.4569 O.2     1  UNL1       -0.2262
      8 C           3.6736   -1.7444   20.1841 C.ar    1  UNL1        0.0138
      9 C           3.3052   -2.7197   19.1057 C.ar    1  UNL1       -0.0010
     10 C           3.5461   -4.1865   19.3067 C.ar    1  UNL1       -0.0002
     11 C           4.1553   -4.6781   20.5862 C.ar    1  UNL1       -0.0000
     12 C           4.5237   -3.7029   21.6647 C.ar    1  UNL1       -0.0002
     13 C           4.2829   -2.2360   21.4637 C.ar    1  UNL1       -0.0010
     14 C           0.0421    2.5921   19.2634 C.3     1  UNL1        0.1011
     15 C          -0.2203    3.1114   17.8808 C.3     1  UNL1        0.0265
     16 C          -2.5615    3.9039   22.6913 C.ar    1  UNL1        0.0192
     17 C          -3.1281    3.8307   21.3044 C.ar    1  UNL1        0.0013
     18 C          -2.2603    3.3934   20.1617 C.ar    1  UNL1       -0.0026
     19 C          -0.8258    3.0294   20.4060 C.ar    1  UNL1       -0.0042
     20 C          -0.2592    3.1026   21.7929 C.ar    1  UNL1       -0.0026
     21 C          -1.1271    3.5399   22.9355 C.ar    1  UNL1        0.0013
     22 C          -6.0330    5.6530   27.2618 C.3     1  UNL1        0.0538
     23 C          -5.1651    5.2157   26.1192 C.ar    1  UNL1        0.0785
     24 C          -4.0368    6.0894   25.6572 C.ar    1  UNL1        0.1135
     25 N          -3.1689    5.6522   24.5146 N.ar    1  UNL1       -0.2410
     26 C          -3.4294    4.3412   23.8339 C.ar    1  UNL1        0.1004
     27 C          -4.5577    3.4675   24.2958 C.ar    1  UNL1        0.1175
     28 N          -5.4256    3.9048   25.4384 N.ar    1  UNL1       -0.2450
     29 C           4.9234   -0.2763   20.1497 C.3     1  UNL1        0.0714
     30 C           5.7638    0.6948   19.3746 C.3     1  UNL1        0.0922
     31 C           5.3342    0.0439   18.0933 C.3     1  UNL1        0.0294
     32 C           6.1935    1.3457   20.6560 C.3     1  UNL1        0.0294
     33 O           6.6043    1.6659   18.5996 O.3     1  UNL1       -0.3866
     34 H           6.5235    1.4784   17.6513 H       1  UNL1        0.2102
@<TRIPOS>BOND
     1    22    23    1
     2    23    24   ar
     3    24    25   ar
     4    25    26   ar
     5    26    16    1
     6    16    17   ar
     7    17    18   ar
     8    18    19   ar
     9    19    14    1
    10    14    15    1
    11    14     1    1
    12     1     2    1
    13     2     3    1
    14     3     4    1
    15     4    29    1
    16    29    30    1
    17    30    31    1
    18    30    32    1
    19    30    33    1
    20     4     8    1
    21     8     9   ar
    22     9    10   ar
    23    10    11   ar
    24    11    12   ar
    25    12    13   ar
    26     4     5    1
    27     5     6    1
    28     6     7    2
    29    19    20   ar
    30    20    21   ar
    31    26    27   ar
    32    27    28   ar
    33    28    23   ar
    34    21    16   ar
    35     6     1   am
    36    13     8   ar
    37    33    34    1
@<TRIPOS>MOLECULE
*****
 34 37 0 0 0
SMALL
GASTEIGER

@<TRIPOS>ATOM
      1 N           3.0887   -1.1423   19.7922 N.am    1  UNL1       -0.2438
      2 C           1.6231   -0.8811   19.9764 C.3     1  UNL1        0.1009
      3 C           1.0615    0.4794   19.6869 C.3     1  UNL1        0.0662
      4 C           1.9655    1.5786   19.2131 C.3     1  UNL1        0.1600
      5 O           3.4310    1.3175   19.0289 O.3     1  UNL1       -0.4374
      6 C           3.9926   -0.0429   19.3184 C.2     1  UNL1        0.4051
      7 O           5.4582   -0.3041   19.1342 O.2     1  UNL1       -0.2262
      8 C           0.6559    2.3097   19.2355 C.ar    1  UNL1        0.0138
      9 C           0.2056    3.0790   18.0291 C.ar    1  UNL1       -0.0010
     10 C          -1.1039    3.8100   18.0515 C.ar    1  UNL1       -0.0002
     11 C          -1.9633    3.7719   19.2803 C.ar    1  UNL1       -0.0000
     12 C          -1.5131    3.0026   20.4867 C.ar    1  UNL1       -0.0002
     13 C          -0.2035    2.2715   20.4644 C.ar    1  UNL1       -0.0010
     14 C           3.6503   -2.5027   20.0818 C.3     1  UNL1        0.1011
     15 C           3.4970   -3.6065   19.0778 C.3     1  UNL1        0.0265
     16 C           5.7950   -3.2723   23.9622 C.ar    1  UNL1        0.0192
     17 C           4.6420   -2.3137   23.9198 C.ar    1  UNL1        0.0013
     18 C           3.9271   -2.0572   22.6263 C.ar    1  UNL1       -0.0026
     19 C           4.3652   -2.7592   21.3752 C.ar    1  UNL1       -0.0042
     20 C           5.5182   -3.7177   21.4176 C.ar    1  UNL1       -0.0026
     21 C           6.2331   -3.9742   22.7111 C.ar    1  UNL1        0.0013
     22 C           8.6546   -4.2984   29.1362 C.3     1  UNL1        0.0538
     23 C           7.9397   -4.0418   27.8427 C.ar    1  UNL1        0.0785
     24 C           7.5681   -5.1892   26.9508 C.ar    1  UNL1        0.1135
     25 N           6.8532   -4.9326   25.6573 N.ar    1  UNL1       -0.2410
     26 C           6.5099   -3.5288   25.2557 C.ar    1  UNL1        0.1004
     27 C           6.8815   -2.3815   26.1476 C.ar    1  UNL1        0.1175
     28 N           7.5964   -2.6380   27.4411 N.ar    1  UNL1       -0.2450
     29 C           2.4146    2.9318   18.7471 C.3     1  UNL1        0.0714
     30 C           3.7082    3.5053   19.2451 C.3     1  UNL1        0.0922
     31 C           4.2224    3.5677   17.8374 C.3     1  UNL1        0.0294
     32 C           3.1939    3.4428   20.6528 C.3     1  UNL1        0.0294
     33 O           5.0017    4.0788   19.7431 O.3     1  UNL1       -0.3866
     34 H           5.5941    4.2405   18.9922 H       1  UNL1        0.2102
@<TRIPOS>BOND
     1    22    23    1
     2    23    24   ar
     3    24    25   ar
     4    25    26   ar
     5    26    16    1
     6    16    17   ar
     7    17    18   ar
     8    18    19   ar
     9    19    14    1
    10    14    15    1
    11    14     1    1
    12     1     2    1
    13     2     3    1
    14     3     4    1
    15     4    29    1
    16    29    30    1
    17    30    31    1
    18    30    32    1
    19    30    33    1
    20     4     8    1
    21     8     9   ar
    22     9    10   ar
    23    10    11   ar
    24    11    12   ar
    25    12    13   ar
    26     4     5    1
    27     5     6    1
    28     6     7    2
    29    19    20   ar
    30    20    21   ar
    31    26    27   ar
    32    27    28   ar
    33    28    23   ar
    34    21    16   ar
    35     6     1   am
    36    13     8   ar
    37    33    34    1
@<TRIPOS>MOLECULE
*****
 34 37 0 0 0
SMALL
GASTEIGER

@<TRIPOS>ATOM
      1 N           2.3614    1.8928   19.3761 N.am    1  UNL1       -0.2438
      2 C           2.1836    0.6151   18.6107 C.3     1  UNL1        0.1009
      3 C           3.0203   -0.5835   18.9474 C.3     1  UNL1        0.0662
      4 C           4.0348   -0.5043   20.0494 C.3     1  UNL1        0.1600
      5 O           4.2126    0.7734   20.8148 O.3     1  UNL1       -0.4374
      6 C           3.3759    1.9720   20.4782 C.2     1  UNL1        0.4051
      7 O           3.5537    3.2497   21.2436 O.2     1  UNL1       -0.2262
      8 C           4.2333   -1.9260   19.6142 C.ar    1  UNL1        0.0138
      9 C           3.0664   -2.8676   19.5729 C.ar    1  UNL1       -0.0010
     10 C           3.2649   -4.2893   19.1378 C.ar    1  UNL1       -0.0002
     11 C           4.6303   -4.7694   18.7439 C.ar    1  UNL1       -0.0000
     12 C           5.7972   -3.8279   18.7851 C.ar    1  UNL1       -0.0002
     13 C           5.5988   -2.4061   19.2203 C.ar    1  UNL1       -0.0010
     14 C           1.5247    3.0914   19.0395 C.3     1  UNL1        0.1011
     15 C           2.0345    4.1124   18.0661 C.3     1  UNL1        0.0265
     16 C          -2.5147    3.6240   20.9499 C.ar    1  UNL1        0.0192
     17 C          -1.3401    3.2052   21.7835 C.ar    1  UNL1        0.0013
     18 C           0.0063    3.0277   21.1467 C.ar    1  UNL1       -0.0026
     19 C           0.1782    3.2689   19.6763 C.ar    1  UNL1       -0.0042
     20 C          -0.9963    3.6877   18.8426 C.ar    1  UNL1       -0.0026
     21 C          -2.3428    3.8653   19.4794 C.ar    1  UNL1        0.0013
     22 C          -7.9006    4.3341   23.4970 C.3     1  UNL1        0.0538
     23 C          -6.5541    4.1566   22.8602 C.ar    1  UNL1        0.0785
     24 C          -5.3631    3.8174   23.7066 C.ar    1  UNL1        0.1135
     25 N          -4.0166    3.6399   23.0698 N.ar    1  UNL1       -0.2410
     26 C          -3.8612    3.8015   21.5867 C.ar    1  UNL1        0.1004
     27 C          -5.0522    4.1407   20.7403 C.ar    1  UNL1        0.1175
     28 N          -6.3987    4.3183   21.3771 N.ar    1  UNL1       -0.2450
     29 C           5.1183   -0.9189   21.0003 C.3     1  UNL1        0.0714
     30 C           5.0986   -0.4308   22.4186 C.3     1  UNL1        0.0922
     31 C           6.3868    0.3011   22.1846 C.3     1  UNL1        0.0294
     32 C           3.8103   -1.1628   22.6526 C.3     1  UNL1        0.0294
     33 O           5.0789    0.0572   23.8369 O.3     1  UNL1       -0.3866
     34 H           5.8600    0.6087   23.9999 H       1  UNL1        0.2102
@<TRIPOS>BOND
     1    22    23    1
     2    23    24   ar
     3    24    25   ar
     4    25    26   ar
     5    26    16    1
     6    16    17   ar
     7    17    18   ar
     8    18    19   ar
     9    19    14    1
    10    14    15    1
    11    14     1    1
    12     1     2    1
    13     2     3    1
    14     3     4    1
    15     4    29    1
    16    29    30    1
    17    30    31    1
    18    30    32    1
    19    30    33    1
    20     4     8    1
    21     8     9   ar
    22     9    10   ar
    23    10    11   ar
    24    11    12   ar
    25    12    13   ar
    26     4     5    1
    27     5     6    1
    28     6     7    2
    29    19    20   ar
    30    20    21   ar
    31    26    27   ar
    32    27    28   ar
    33    28    23   ar
    34    21    16   ar
    35     6     1   am
    36    13     8   ar
    37    33    34    1
@<TRIPOS>MOLECULE
*****
 34 37 0 0 0
SMALL
GASTEIGER

@<TRIPOS>ATOM
      1 N           2.9551    0.9739   23.2065 N.am    1  UNL1       -0.2438
      2 C           2.8809   -0.5180   23.0690 C.3     1  UNL1        0.1009
      3 C           3.4674   -1.1901   21.8629 C.3     1  UNL1        0.0662
      4 C           4.1279   -0.3703   20.7945 C.3     1  UNL1        0.1600
      5 O           4.2021    1.1215   20.9320 O.3     1  UNL1       -0.4374
      6 C           3.6157    1.7936   22.1379 C.2     1  UNL1        0.4051
      7 O           3.6898    3.2855   22.2754 O.2     1  UNL1       -0.2262
      8 C           4.3045   -1.7430   20.2162 C.ar    1  UNL1        0.0138
      9 C           5.6768   -2.3373   20.1003 C.ar    1  UNL1       -0.0010
     10 C           5.8534   -3.7100   19.5220 C.ar    1  UNL1       -0.0002
     11 C           4.6575   -4.4885   19.0595 C.ar    1  UNL1       -0.0000
     12 C           3.2851   -3.8943   19.1754 C.ar    1  UNL1       -0.0002
     13 C           3.1085   -2.5216   19.7537 C.ar    1  UNL1       -0.0010
     14 C           2.3687    1.6460   24.4124 C.3     1  UNL1        0.1011
     15 C           3.2052    1.8441   25.6416 C.3     1  UNL1        0.0265
     16 C          -1.9002    3.0680   24.3428 C.ar    1  UNL1        0.0192
     17 C          -1.3279    2.4738   25.5955 C.ar    1  UNL1        0.0013
     18 C           0.0950    1.9998   25.6187 C.ar    1  UNL1       -0.0026
     19 C           0.9457    2.1200   24.3892 C.ar    1  UNL1       -0.0042
     20 C           0.3735    2.7141   23.1364 C.ar    1  UNL1       -0.0026
     21 C          -1.0495    3.1881   23.1132 C.ar    1  UNL1        0.0013
     22 C          -7.5920    4.9639   24.2499 C.3     1  UNL1        0.0538
     23 C          -6.1690    4.4899   24.2732 C.ar    1  UNL1        0.0785
     24 C          -5.4926    4.0847   22.9972 C.ar    1  UNL1        0.1135
     25 N          -4.0697    3.6107   23.0204 N.ar    1  UNL1       -0.2410
     26 C          -3.3231    3.5419   24.3196 C.ar    1  UNL1        0.1004
     27 C          -3.9996    3.9472   25.5955 C.ar    1  UNL1        0.1175
     28 N          -5.4225    4.4212   25.5723 N.ar    1  UNL1       -0.2450
     29 C           4.8498   -0.0273   19.5251 C.3     1  UNL1        0.0714
     30 C           4.5685    1.2718   18.8300 C.3     1  UNL1        0.0922
     31 C           3.1890    0.7909   18.4895 C.3     1  UNL1        0.0294
     32 C           5.9480    1.7527   19.1704 C.3     1  UNL1        0.0294
     33 O           4.2872    2.5709   18.1348 O.3     1  UNL1       -0.3866
     34 H           3.3855    2.5578   17.7774 H       1  UNL1        0.2102
@<TRIPOS>BOND
     1    22    23    1
     2    23    24   ar
     3    24    25   ar
     4    25    26   ar
     5    26    16    1
     6    16    17   ar
     7    17    18   ar
     8    18    19   ar
     9    19    14    1
    10    14    15    1
    11    14     1    1
    12     1     2    1
    13     2     3    1
    14     3     4    1
    15     4    29    1
    16    29    30    1
    17    30    31    1
    18    30    32    1
    19    30    33    1
    20     4     8    1
    21     8     9   ar
    22     9    10   ar
    23    10    11   ar
    24    11    12   ar
    25    12    13   ar
    26     4     5    1
    27     5     6    1
    28     6     7    2
    29    19    20   ar
    30    20    21   ar
    31    26    27   ar
    32    27    28   ar
    33    28    23   ar
    34    21    16   ar
    35     6     1   am
    36    13     8   ar
    37    33    34    1
@<TRIPOS>MOLECULE
*****
 34 37 0 0 0
SMALL
GASTEIGER

@<TRIPOS>ATOM
      1 N           2.9702    1.3328   20.3855 N.am    1  UNL1       -0.2438
      2 C           3.8100    1.2500   21.6256 C.3     1  UNL1        0.1009
      3 C           4.5036   -0.0327   21.9775 C.3     1  UNL1        0.0662
      4 C           4.3574   -1.2325   21.0892 C.3     1  UNL1        0.1600
      5 O           3.5176   -1.1497   19.8491 O.3     1  UNL1       -0.4374
      6 C           2.8241    0.1329   19.4972 C.2     1  UNL1        0.4051
      7 O           1.9843    0.2156   18.2571 O.2     1  UNL1       -0.2262
      8 C           5.2546   -1.8005   22.1486 C.ar    1  UNL1        0.0138
      9 C           4.8934   -3.0893   22.8256 C.ar    1  UNL1       -0.0010
     10 C           5.7906   -3.6573   23.8850 C.ar    1  UNL1       -0.0002
     11 C           7.0492   -2.9364   24.2675 C.ar    1  UNL1       -0.0000
     12 C           7.4105   -1.6475   23.5906 C.ar    1  UNL1       -0.0002
     13 C           6.5133   -1.0795   22.5311 C.ar    1  UNL1       -0.0010
     14 C           2.2767    2.6153   20.0336 C.3     1  UNL1        0.1011
     15 C           2.9912    3.6568   19.2244 C.3     1  UNL1        0.0265
     16 C          -1.9476    3.3388   21.4056 C.ar    1  UNL1        0.0192
     17 C          -1.6388    3.2558   19.9401 C.ar    1  UNL1        0.0013
     18 C          -0.2307    3.0146   19.4828 C.ar    1  UNL1       -0.0026
     19 C           0.8686    2.8565   20.4910 C.ar    1  UNL1       -0.0042
     20 C           0.5598    2.9395   21.9564 C.ar    1  UNL1       -0.0026
     21 C          -0.8483    3.1807   22.4138 C.ar    1  UNL1        0.0013
     22 C          -7.5799    4.3034   23.2349 C.3     1  UNL1        0.0538
     23 C          -6.1719    4.0622   22.7776 C.ar    1  UNL1        0.0785
     24 C          -5.0856    3.8289   23.7853 C.ar    1  UNL1        0.1135
     25 N          -3.6775    3.5878   23.3279 N.ar    1  UNL1       -0.2410
     26 C          -3.3557    3.5799   21.8629 C.ar    1  UNL1        0.1004
     27 C          -4.4420    3.8132   20.8552 C.ar    1  UNL1        0.1175
     28 N          -5.8501    4.0544   21.3125 N.ar    1  UNL1       -0.2450
     29 C           4.5228   -2.6296   20.5689 C.3     1  UNL1        0.0714
     30 C           4.6872   -2.8671   19.0969 C.3     1  UNL1        0.0922
     31 C           3.4896   -3.7703   19.1089 C.3     1  UNL1        0.0294
     32 C           5.8849   -1.9640   19.0849 C.3     1  UNL1        0.0294
     33 O           4.8516   -3.1046   17.6250 O.3     1  UNL1       -0.3866
     34 H           4.1569   -3.7065   17.3150 H       1  UNL1        0.2102
@<TRIPOS>BOND
     1    22    23    1
     2    23    24   ar
     3    24    25   ar
     4    25    26   ar
     5    26    16    1
     6    16    17   ar
     7    17    18   ar
     8    18    19   ar
     9    19    14    1
    10    14    15    1
    11    14     1    1
    12     1     2    1
    13     2     3    1
    14     3     4    1
    15     4    29    1
    16    29    30    1
    17    30    31    1
    18    30    32    1
    19    30    33    1
    20     4     8    1
    21     8     9   ar
    22     9    10   ar
    23    10    11   ar
    24    11    12   ar
    25    12    13   ar
    26     4     5    1
    27     5     6    1
    28     6     7    2
    29    19    20   ar
    30    20    21   ar
    31    26    27   ar
    32    27    28   ar
    33    28    23   ar
    34    21    16   ar
    35     6     1   am
    36    13     8   ar
    37    33    34    1
@<TRIPOS>MOLECULE
*****
 34 37 0 0 0
SMALL
GASTEIGER

@<TRIPOS>ATOM
      1 N         -16.4047    2.1960   20.3835 N.am    1  UNL1       -0.2438
      2 C         -17.1008    2.1208   21.7101 C.3     1  UNL1        0.1009
      3 C         -16.9351    3.2285   22.7079 C.3     1  UNL1        0.0662
      4 C         -16.0734    4.4114   22.3792 C.3     1  UNL1        0.1600
      5 O         -15.3772    4.4866   21.0526 O.3     1  UNL1       -0.4374
      6 C         -15.5429    3.3790   20.0548 C.2     1  UNL1        0.4051
      7 O         -14.8468    3.4543   18.7283 O.2     1  UNL1       -0.2262
      8 C         -16.5246    4.7929   23.7578 C.ar    1  UNL1        0.0138
      9 C         -15.5129    5.1478   24.8068 C.ar    1  UNL1       -0.0010
     10 C         -15.9641    5.5294   26.1855 C.ar    1  UNL1       -0.0002
     11 C         -17.4272    5.5560   26.5152 C.ar    1  UNL1       -0.0000
     12 C         -18.4390    5.2012   25.4663 C.ar    1  UNL1       -0.0002
     13 C         -17.9878    4.8196   24.0876 C.ar    1  UNL1       -0.0010
     14 C         -16.5703    1.0884   19.3857 C.3     1  UNL1        0.1011
     15 C         -17.7437    1.0900   18.4514 C.3     1  UNL1        0.0265
     16 C         -13.5469   -2.2392   19.1953 C.ar    1  UNL1        0.0192
     17 C         -14.7796   -2.3931   20.0359 C.ar    1  UNL1        0.0013
     18 C         -15.7874   -1.2839   20.0994 C.ar    1  UNL1       -0.0026
     19 C         -15.5625   -0.0208   19.3222 C.ar    1  UNL1       -0.0042
     20 C         -14.3298    0.1331   18.4816 C.ar    1  UNL1       -0.0026
     21 C         -13.3220   -0.9761   18.4181 C.ar    1  UNL1        0.0013
     22 C          -9.5158   -6.6760   18.9413 C.3     1  UNL1        0.0538
     23 C         -10.5236   -5.5668   19.0048 C.ar    1  UNL1        0.0785
     24 C         -10.1080   -4.1577   18.7024 C.ar    1  UNL1        0.1135
     25 N         -11.1158   -3.0485   18.7659 N.ar    1  UNL1       -0.2410
     26 C         -12.5391   -3.3484   19.1318 C.ar    1  UNL1        0.1004
     27 C         -12.9548   -4.7576   19.4342 C.ar    1  UNL1        0.1175
     28 N         -11.9470   -5.8668   19.3707 N.ar    1  UNL1       -0.2450
     29 C         -15.3683    5.7268   22.5293 C.3     1  UNL1        0.0714
     30 C         -15.2975    6.6763   21.3701 C.3     1  UNL1        0.0922
     31 C         -16.7958    6.7247   21.3182 C.3     1  UNL1        0.0294
     32 C         -13.7991    6.6279   21.4220 C.3     1  UNL1        0.0294
     33 O         -15.2267    7.6258   20.2110 O.3     1  UNL1       -0.3866
     34 H         -16.1249    7.8599   19.9295 H       1  UNL1        0.2102
@<TRIPOS>BOND
     1    22    23    1
     2    23    24   ar
     3    24    25   ar
     4    25    26   ar
     5    26    16    1
     6    16    17   ar
     7    17    18   ar
     8    18    19   ar
     9    19    14    1
    10    14    15    1
    11    14     1    1
    12     1     2    1
    13     2     3    1
    14     3     4    1
    15     4    29    1
    16    29    30    1
    17    30    31    1
    18    30    32    1
    19    30    33    1
    20     4     8    1
    21     8     9   ar
    22     9    10   ar
    23    10    11   ar
    24    11    12   ar
    25    12    13   ar
    26     4     5    1
    27     5     6    1
    28     6     7    2
    29    19    20   ar
    30    20    21   ar
    31    26    27   ar
    32    27    28   ar
    33    28    23   ar
    34    21    16   ar
    35     6     1   am
    36    13     8   ar
    37    33    34    1
@<TRIPOS>MOLECULE
*****
 34 37 0 0 0
SMALL
GASTEIGER

@<TRIPOS>ATOM
      1 N           3.7449    1.0364   19.8429 N.am    1  UNL1       -0.2438
      2 C           4.5165    1.0701   21.1288 C.3     1  UNL1        0.1009
      3 C           5.0624   -0.2007   21.7095 C.3     1  UNL1        0.0662
      4 C           4.8367   -1.5052   21.0043 C.3     1  UNL1        0.1600
      5 O           4.0651   -1.5389   19.7184 O.3     1  UNL1       -0.4374
      6 C           3.5192   -0.2682   19.1377 C.2     1  UNL1        0.4051
      7 O           2.7476   -0.3020   17.8518 O.2     1  UNL1       -0.2262
      8 C           5.6249   -1.9820   22.1880 C.ar    1  UNL1        0.0138
      9 C           6.9801   -1.4036   22.4690 C.ar    1  UNL1       -0.0010
     10 C           7.7684   -1.8804   23.6527 C.ar    1  UNL1       -0.0002
     11 C           7.2015   -2.9356   24.5556 C.ar    1  UNL1       -0.0000
     12 C           5.8463   -3.5140   24.2747 C.ar    1  UNL1       -0.0002
     13 C           5.0580   -3.0372   23.0909 C.ar    1  UNL1       -0.0010
     14 C           3.1991    2.3071   19.2622 C.3     1  UNL1        0.1011
     15 C           4.1000    3.2287   18.4950 C.3     1  UNL1        0.0265
     16 C          -1.1415    3.3543   19.8220 C.ar    1  UNL1        0.0192
     17 C          -0.3984    2.6315   20.9062 C.ar    1  UNL1        0.0013
     18 C           1.0484    2.2824   20.7196 C.ar    1  UNL1       -0.0026
     19 C           1.7522    2.6562   19.4488 C.ar    1  UNL1       -0.0042
     20 C           1.0092    3.3789   18.3647 C.ar    1  UNL1       -0.0026
     21 C          -0.4376    3.7280   18.5513 C.ar    1  UNL1        0.0013
     22 C          -6.9288    4.7506   20.5684 C.3     1  UNL1        0.0538
     23 C          -5.4820    4.4015   20.3818 C.ar    1  UNL1        0.0785
     24 C          -4.8781    3.2678   21.1563 C.ar    1  UNL1        0.1135
     25 N          -3.4312    2.9187   20.9697 N.ar    1  UNL1       -0.2410
     26 C          -2.5883    3.7034   20.0086 C.ar    1  UNL1        0.1004
     27 C          -3.1922    4.8371   19.2342 C.ar    1  UNL1        0.1175
     28 N          -4.6390    5.1862   19.4208 N.ar    1  UNL1       -0.2450
     29 C           4.8847   -2.9753   20.7102 C.3     1  UNL1        0.0714
     30 C           4.9356   -3.4547   19.2897 C.3     1  UNL1        0.0922
     31 C           6.2787   -2.8088   19.1199 C.3     1  UNL1        0.0294
     32 C           3.5924   -4.1005   19.4596 C.3     1  UNL1        0.0294
     33 O           4.9864   -3.9341   17.8693 O.3     1  UNL1       -0.3866
     34 H           5.8163   -3.6437   17.4595 H       1  UNL1        0.2102
@<TRIPOS>BOND
     1    22    23    1
     2    23    24   ar
     3    24    25   ar
     4    25    26   ar
     5    26    16    1
     6    16    17   ar
     7    17    18   ar
     8    18    19   ar
     9    19    14    1
    10    14    15    1
    11    14     1    1
    12     1     2    1
    13     2     3    1
    14     3     4    1
    15     4    29    1
    16    29    30    1
    17    30    31    1
    18    30    32    1
    19    30    33    1
    20     4     8    1
    21     8     9   ar
    22     9    10   ar
    23    10    11   ar
    24    11    12   ar
    25    12    13   ar
    26     4     5    1
    27     5     6    1
    28     6     7    2
    29    19    20   ar
    30    20    21   ar
    31    26    27   ar
    32    27    28   ar
    33    28    23   ar
    34    21    16   ar
    35     6     1   am
    36    13     8   ar
    37    33    34    1
@<TRIPOS>MOLECULE
*****
 34 37 0 0 0
SMALL
GASTEIGER

@<TRIPOS>ATOM
      1 N           3.0970    1.9604   19.0678 N.am    1  UNL1       -0.2438
      2 C           2.9840    0.6867   18.2838 C.3     1  UNL1        0.1009
      3 C           3.5368   -0.5904   18.8440 C.3     1  UNL1        0.0662
      4 C           4.2025   -0.5936   20.1881 C.3     1  UNL1        0.1600
      5 O           4.3156    0.6802   20.9721 O.3     1  UNL1       -0.4374
      6 C           3.7628    1.9572   20.4120 C.2     1  UNL1        0.4051
      7 O           3.8758    3.2310   21.1961 O.2     1  UNL1       -0.2262
      8 C           4.3369   -2.0433   19.8274 C.ar    1  UNL1        0.0138
      9 C           5.6844   -2.7017   19.8565 C.ar    1  UNL1       -0.0010
     10 C           5.8188   -4.1514   19.4957 C.ar    1  UNL1       -0.0002
     11 C           4.6057   -4.9428   19.1058 C.ar    1  UNL1       -0.0000
     12 C           3.2582   -4.2846   19.0767 C.ar    1  UNL1       -0.0002
     13 C           3.1238   -2.8348   19.4374 C.ar    1  UNL1       -0.0010
     14 C           2.5443    3.2374   18.5078 C.3     1  UNL1        0.1011
     15 C           3.4662    4.2463   17.8897 C.3     1  UNL1        0.0265
     16 C          -1.8799    4.0417   18.6817 C.ar    1  UNL1        0.0192
     17 C          -1.0646    4.5767   17.5420 C.ar    1  UNL1        0.0013
     18 C           0.4101    4.3086   17.4840 C.ar    1  UNL1       -0.0026
     19 C           1.0695    3.5055   18.5657 C.ar    1  UNL1       -0.0042
     20 C           0.2542    2.9705   19.7054 C.ar    1  UNL1       -0.0026
     21 C          -1.2205    3.2386   19.7634 C.ar    1  UNL1        0.0013
     22 C          -7.7787    5.1140   18.9136 C.3     1  UNL1        0.0538
     23 C          -6.3040    4.8459   18.8556 C.ar    1  UNL1        0.0785
     24 C          -5.7076    3.7500   19.6883 C.ar    1  UNL1        0.1135
     25 N          -4.2329    3.4820   19.6303 N.ar    1  UNL1       -0.2410
     26 C          -3.3546    4.3097   18.7397 C.ar    1  UNL1        0.1004
     27 C          -3.9510    5.4056   17.9070 C.ar    1  UNL1        0.1175
     28 N          -5.4257    5.6737   17.9650 N.ar    1  UNL1       -0.2450
     29 C           4.9150   -1.1003   21.4070 C.3     1  UNL1        0.0714
     30 C           4.5884   -0.5329   22.7566 C.3     1  UNL1        0.0922
     31 C           3.1893   -1.0611   22.6401 C.3     1  UNL1        0.0294
     32 C           5.9876   -0.0048   22.8732 C.3     1  UNL1        0.0294
     33 O           4.2619    0.0344   24.1063 O.3     1  UNL1       -0.3866
     34 H           3.3385   -0.1653   24.3262 H       1  UNL1        0.2102
@<TRIPOS>BOND
     1    22    23    1
     2    23    24   ar
     3    24    25   ar
     4    25    26   ar
     5    26    16    1
     6    16    17   ar
     7    17    18   ar
     8    18    19   ar
     9    19    14    1
    10    14    15    1
    11    14     1    1
    12     1     2    1
    13     2     3    1
    14     3     4    1
    15     4    29    1
    16    29    30    1
    17    30    31    1
    18    30    32    1
    19    30    33    1
    20     4     8    1
    21     8     9   ar
    22     9    10   ar
    23    10    11   ar
    24    11    12   ar
    25    12    13   ar
    26     4     5    1
    27     5     6    1
    28     6     7    2
    29    19    20   ar
    30    20    21   ar
    31    26    27   ar
    32    27    28   ar
    33    28    23   ar
    34    21    16   ar
    35     6     1   am
    36    13     8   ar
    37    33    34    1
