@<TRIPOS>MOLECULE
*****
 31 34 0 0 0
SMALL
GASTEIGER

@<TRIPOS>ATOM
      1 C          -9.7876  -19.5750   21.5233 C.ar    1  UNL1        0.1287
      2 C          -9.2462  -19.3282   20.1463 C.ar    1  UNL1        0.0338
      3 C          -7.7870  -19.5335   19.8664 C.ar    1  UNL1        0.0005
      4 C          -6.8691  -19.9854   20.9633 C.ar    1  UNL1        0.0015
      5 C          -7.4105  -20.2321   22.3403 C.ar    1  UNL1        0.0963
      6 N          -8.8698  -20.0269   22.6202 N.ar    1  UNL1       -0.2297
      7 N         -11.2469  -19.3697   21.8033 N.pl3   1  UNL1       -0.3144
      8 H         -11.9196  -19.6555   21.1438 H       1  UNL1        0.1485
      9 C         -11.6812  -18.7292   23.0883 C.3     1  UNL1        0.1169
     10 C         -10.1669  -16.6611   23.5123 C.ar    1  UNL1        0.0721
     11 C          -9.1678  -15.9354   24.3638 C.ar    1  UNL1        0.0243
     12 C          -8.6839  -16.5520   25.6428 C.ar    1  UNL1        0.0988
     13 N          -9.1992  -17.8943   26.0702 N.ar    1  UNL1       -0.2426
     14 C         -10.1983  -18.6200   25.2187 C.ar    1  UNL1        0.0962
     15 C         -10.6821  -18.0034   23.9397 C.ar    1  UNL1        0.0205
     16 F         -11.1346  -15.4279   20.9544 F       1  UNL1       -0.1659
     17 C         -10.6507  -16.0445   22.2334 C.3     1  UNL1        0.4184
     18 F          -9.3607  -16.4179   21.5653 F       1  UNL1       -0.1659
     19 F         -11.9408  -15.6712   22.9015 F       1  UNL1       -0.1659
     20 C          -5.4098  -20.1906   20.6833 C.3     1  UNL1        0.0559
     21 C          -4.3883  -19.3165   21.3484 C.ar    1  UNL1        0.0043
     22 C          -4.3353  -18.9764   22.8084 C.ar    1  UNL1        0.0966
     23 N          -3.1547  -18.0787   23.0326 N.ar    1  UNL1       -0.2273
     24 C          -2.4780  -17.8641   21.7113 C.ar    1  UNL1        0.1403
     25 N          -1.2661  -17.0709   21.3214 N.ar    1  UNL1       -0.3367
     26 C          -0.8166  -17.0426   19.8907 C.ar    1  UNL1        0.0850
     27 C          -1.5789  -17.8077   18.8498 C.ar    1  UNL1        0.0747
     28 CL         -1.1294  -17.7794   17.4190 Cl      1  UNL1       -0.0807
     29 C          -2.7909  -18.6009   19.2396 C.ar    1  UNL1        0.0156
     30 C          -3.2404  -18.6291   20.6704 C.ar    1  UNL1        0.0327
     31 H          -0.7657  -16.5687   22.0046 H       1  UNL1        0.1674
@<TRIPOS>BOND
     1    16    17    1
     2    17    18    1
     3    17    19    1
     4    17    10    1
     5    10    11   ar
     6    11    12   ar
     7    12    13   ar
     8    13    14   ar
     9    14    15   ar
    10    15     9    1
    11     9     7    1
    12     7     1    1
    13     1     2   ar
    14     2     3   ar
    15     3     4   ar
    16     4    20    1
    17    20    21    1
    18    21    22   ar
    19    22    23   ar
    20    23    24   ar
    21    24    25   ar
    22    25    26   ar
    23    26    27   ar
    24    27    28    1
    25    27    29   ar
    26    29    30   ar
    27     4     5   ar
    28     5     6   ar
    29    15    10   ar
    30     6     1   ar
    31    30    21   ar
    32    30    24    1
    33     7     8    1
    34    25    31    1
@<TRIPOS>MOLECULE
*****
 31 34 0 0 0
SMALL
GASTEIGER

@<TRIPOS>ATOM
      1 C          -7.8945  -15.8427   23.9709 C.ar    1  UNL1        0.1287
      2 C          -6.8793  -15.0713   24.7611 C.ar    1  UNL1        0.0338
      3 C          -5.4299  -15.4515   24.6936 C.ar    1  UNL1        0.0005
      4 C          -4.9957  -16.6029   23.8359 C.ar    1  UNL1        0.0015
      5 C          -6.0109  -17.3743   23.0457 C.ar    1  UNL1        0.0963
      6 N          -7.4603  -16.9941   23.1132 N.ar    1  UNL1       -0.2297
      7 N          -9.3440  -15.4626   24.0384 N.pl3   1  UNL1       -0.3144
      8 H          -9.6005  -14.5357   24.2491 H       1  UNL1        0.1485
      9 C         -10.4027  -16.4945   23.7848 C.3     1  UNL1        0.1169
     10 C         -10.8286  -18.4695   22.1513 C.ar    1  UNL1        0.0721
     11 C         -11.0637  -18.9762   20.7592 C.ar    1  UNL1        0.0243
     12 C         -11.1081  -18.0149   19.6086 C.ar    1  UNL1        0.0988
     13 N         -10.9173  -16.5468   19.8501 N.ar    1  UNL1       -0.2426
     14 C         -10.6822  -16.0401   21.2421 C.ar    1  UNL1        0.0962
     15 C         -10.6378  -17.0014   22.3927 C.ar    1  UNL1        0.0205
     16 F         -10.7398  -20.3922   24.4525 F       1  UNL1       -0.1659
     17 C         -10.7842  -19.4308   23.3019 C.3     1  UNL1        0.4184
     18 F         -12.1917  -19.0609   23.6652 F       1  UNL1       -0.1659
     19 F          -9.3767  -19.8007   22.9385 F       1  UNL1       -0.1659
     20 C          -3.5461  -16.9831   23.7685 C.3     1  UNL1        0.0559
     21 C          -2.8695  -17.1264   22.4374 C.ar    1  UNL1        0.0043
     22 C          -1.7870  -16.2389   21.8985 C.ar    1  UNL1        0.0966
     23 N          -1.4051  -16.7464   20.5396 N.ar    1  UNL1       -0.2273
     24 C          -2.2517  -17.9476   20.2387 C.ar    1  UNL1        0.1403
     25 N          -2.3153  -18.8578   19.0481 N.ar    1  UNL1       -0.3367
     26 C          -3.2840  -20.0029   19.0305 C.ar    1  UNL1        0.0850
     27 C          -4.1891  -20.2377   20.2034 C.ar    1  UNL1        0.0747
     28 CL         -5.1578  -21.3829   20.1858 Cl      1  UNL1       -0.0807
     29 C          -4.1254  -19.3275   21.3940 C.ar    1  UNL1        0.0156
     30 C          -3.1567  -18.1824   21.4116 C.ar    1  UNL1        0.0327
     31 H          -1.7213  -18.7037   18.2783 H       1  UNL1        0.1674
@<TRIPOS>BOND
     1    16    17    1
     2    17    18    1
     3    17    19    1
     4    17    10    1
     5    10    11   ar
     6    11    12   ar
     7    12    13   ar
     8    13    14   ar
     9    14    15   ar
    10    15     9    1
    11     9     7    1
    12     7     1    1
    13     1     2   ar
    14     2     3   ar
    15     3     4   ar
    16     4    20    1
    17    20    21    1
    18    21    22   ar
    19    22    23   ar
    20    23    24   ar
    21    24    25   ar
    22    25    26   ar
    23    26    27   ar
    24    27    28    1
    25    27    29   ar
    26    29    30   ar
    27     4     5   ar
    28     5     6   ar
    29    15    10   ar
    30     6     1   ar
    31    30    21   ar
    32    30    24    1
    33     7     8    1
    34    25    31    1
@<TRIPOS>MOLECULE
*****
 31 34 0 0 0
SMALL
GASTEIGER

@<TRIPOS>ATOM
      1 C          -4.2785  -17.2741   23.5325 C.ar    1  UNL1        0.1287
      2 C          -4.5446  -16.1885   24.5328 C.ar    1  UNL1        0.0338
      3 C          -5.9436  -15.6909   24.7451 C.ar    1  UNL1        0.0005
      4 C          -7.0765  -16.2789   23.9572 C.ar    1  UNL1        0.0015
      5 C          -6.8104  -17.3645   22.9569 C.ar    1  UNL1        0.0963
      6 N          -5.4113  -17.8621   22.7446 N.ar    1  UNL1       -0.2297
      7 N          -2.8795  -17.7717   23.3201 N.pl3   1  UNL1       -0.3144
      8 H          -2.1368  -17.3901   23.8417 H       1  UNL1        0.1485
      9 C          -2.6119  -18.8508   22.3131 C.3     1  UNL1        0.1169
     10 C          -3.0305  -18.9909   19.7528 C.ar    1  UNL1        0.0721
     11 C          -2.6395  -18.6281   18.3508 C.ar    1  UNL1        0.0243
     12 C          -1.4390  -17.7624   18.1072 C.ar    1  UNL1        0.0988
     13 N          -0.6295  -17.2595   19.2656 N.ar    1  UNL1       -0.2426
     14 C          -1.0205  -17.6224   20.6675 C.ar    1  UNL1        0.0962
     15 C          -2.2210  -18.4880   20.9111 C.ar    1  UNL1        0.0205
     16 F          -5.4315  -20.7224   20.2400 F       1  UNL1       -0.1659
     17 C          -4.2310  -19.8566   19.9964 C.3     1  UNL1        0.4184
     18 F          -5.1298  -18.6881   19.7199 F       1  UNL1       -0.1659
     19 F          -3.3322  -21.0252   20.2728 F       1  UNL1       -0.1659
     20 C          -8.4756  -15.7812   24.1696 C.3     1  UNL1        0.0559
     21 C          -9.6329  -16.7297   24.0651 C.ar    1  UNL1        0.0043
     22 C         -10.0325  -17.7494   25.0901 C.ar    1  UNL1        0.0966
     23 N         -11.2405  -18.4749   24.5758 N.ar    1  UNL1       -0.2273
     24 C         -11.5874  -17.9037   23.2329 C.ar    1  UNL1        0.1403
     25 N         -12.6796  -18.2263   22.2567 N.ar    1  UNL1       -0.3367
     26 C         -12.7782  -17.4704   20.9649 C.ar    1  UNL1        0.0850
     27 C         -11.7847  -16.3918   20.6493 C.ar    1  UNL1        0.0747
     28 CL        -11.8834  -15.6358   19.3574 Cl      1  UNL1       -0.0807
     29 C         -10.6925  -16.0691   21.6255 C.ar    1  UNL1        0.0156
     30 C         -10.5939  -16.8251   22.9173 C.ar    1  UNL1        0.0327
     31 H         -13.3316  -18.9342   22.4638 H       1  UNL1        0.1674
@<TRIPOS>BOND
     1    16    17    1
     2    17    18    1
     3    17    19    1
     4    17    10    1
     5    10    11   ar
     6    11    12   ar
     7    12    13   ar
     8    13    14   ar
     9    14    15   ar
    10    15     9    1
    11     9     7    1
    12     7     1    1
    13     1     2   ar
    14     2     3   ar
    15     3     4   ar
    16     4    20    1
    17    20    21    1
    18    21    22   ar
    19    22    23   ar
    20    23    24   ar
    21    24    25   ar
    22    25    26   ar
    23    26    27   ar
    24    27    28    1
    25    27    29   ar
    26    29    30   ar
    27     4     5   ar
    28     5     6   ar
    29    15    10   ar
    30     6     1   ar
    31    30    21   ar
    32    30    24    1
    33     7     8    1
    34    25    31    1
@<TRIPOS>MOLECULE
*****
 31 34 0 0 0
SMALL
GASTEIGER

@<TRIPOS>ATOM
      1 C          -5.9961  -20.5380   19.9756 C.ar    1  UNL1        0.1287
      2 C          -6.9286  -21.4411   19.2239 C.ar    1  UNL1        0.0338
      3 C          -8.3418  -21.0109   18.9637 C.ar    1  UNL1        0.0005
      4 C          -8.8226  -19.6778   19.4552 C.ar    1  UNL1        0.0015
      5 C          -7.8901  -18.7747   20.2069 C.ar    1  UNL1        0.0963
      6 N          -6.4769  -19.2049   20.4670 N.ar    1  UNL1       -0.2297
      7 N          -4.5829  -20.9681   20.2358 N.pl3   1  UNL1       -0.3144
      8 H          -4.4021  -21.8505   20.6332 H       1  UNL1        0.1485
      9 C          -3.4449  -20.0538   19.8905 C.3     1  UNL1        0.1169
     10 C          -2.3474  -17.7273   20.2544 C.ar    1  UNL1        0.0721
     11 C          -2.0091  -16.5773   21.1562 C.ar    1  UNL1        0.0243
     12 C          -2.4301  -16.6040   22.5957 C.ar    1  UNL1        0.0988
     13 N          -3.1893  -17.7806   23.1334 N.ar    1  UNL1       -0.2426
     14 C          -3.5276  -18.9305   22.2316 C.ar    1  UNL1        0.0962
     15 C          -3.1066  -18.9039   20.7921 C.ar    1  UNL1        0.0205
     16 F          -1.5055  -17.6739   17.3754 F       1  UNL1       -0.1659
     17 C          -1.9264  -17.7006   18.8150 C.3     1  UNL1        0.4184
     18 F          -0.6121  -18.3197   19.1878 F       1  UNL1       -0.1659
     19 F          -3.2408  -17.0814   18.4421 F       1  UNL1       -0.1659
     20 C         -10.2359  -19.2476   19.1950 C.3     1  UNL1        0.0559
     21 C         -10.9937  -18.4879   20.2431 C.ar    1  UNL1        0.0043
     22 C         -11.8634  -17.2888   20.0070 C.ar    1  UNL1        0.0966
     23 N         -12.4220  -16.8537   21.3294 N.ar    1  UNL1       -0.2273
     24 C         -11.8975  -17.7839   22.3828 C.ar    1  UNL1        0.1403
     25 N         -12.1097  -17.8418   23.8665 N.ar    1  UNL1       -0.3367
     26 C         -11.4391  -18.9096   24.6790 C.ar    1  UNL1        0.0850
     27 C         -10.5564  -19.9196   24.0076 C.ar    1  UNL1        0.0747
     28 CL         -9.8858  -20.9874   24.8201 Cl      1  UNL1       -0.0807
     29 C         -10.3442  -19.8617   22.5239 C.ar    1  UNL1        0.0156
     30 C         -11.0147  -18.7939   21.7114 C.ar    1  UNL1        0.0327
     31 H         -12.6891  -17.1789   24.3072 H       1  UNL1        0.1674
@<TRIPOS>BOND
     1    16    17    1
     2    17    18    1
     3    17    19    1
     4    17    10    1
     5    10    11   ar
     6    11    12   ar
     7    12    13   ar
     8    13    14   ar
     9    14    15   ar
    10    15     9    1
    11     9     7    1
    12     7     1    1
    13     1     2   ar
    14     2     3   ar
    15     3     4   ar
    16     4    20    1
    17    20    21    1
    18    21    22   ar
    19    22    23   ar
    20    23    24   ar
    21    24    25   ar
    22    25    26   ar
    23    26    27   ar
    24    27    28    1
    25    27    29   ar
    26    29    30   ar
    27     4     5   ar
    28     5     6   ar
    29    15    10   ar
    30     6     1   ar
    31    30    21   ar
    32    30    24    1
    33     7     8    1
    34    25    31    1
@<TRIPOS>MOLECULE
*****
 31 34 0 0 0
SMALL
GASTEIGER

@<TRIPOS>ATOM
      1 C          -5.7462  -20.4597   20.0801 C.ar    1  UNL1        0.1287
      2 C          -6.6398  -21.4162   19.3476 C.ar    1  UNL1        0.0338
      3 C          -8.0637  -21.0421   19.0605 C.ar    1  UNL1        0.0005
      4 C          -8.5940  -19.7115   19.5060 C.ar    1  UNL1        0.0015
      5 C          -7.7004  -18.7551   20.2386 C.ar    1  UNL1        0.0963
      6 N          -6.2765  -19.1292   20.5256 N.ar    1  UNL1       -0.2297
      7 N          -4.3222  -20.8338   20.3672 N.pl3   1  UNL1       -0.3144
      8 H          -3.9037  -21.5839   19.8860 H       1  UNL1        0.1485
      9 C          -3.5358  -20.0652   21.3874 C.3     1  UNL1        0.1169
     10 C          -2.5242  -17.7152   21.8392 C.ar    1  UNL1        0.0721
     11 C          -1.6552  -16.5705   21.4096 C.ar    1  UNL1        0.0243
     12 C          -0.9288  -16.6312   20.0985 C.ar    1  UNL1        0.0988
     13 N          -1.0715  -17.8365   19.2172 N.ar    1  UNL1       -0.2426
     14 C          -1.9405  -18.9812   19.6468 C.ar    1  UNL1        0.0962
     15 C          -2.6668  -18.9205   20.9578 C.ar    1  UNL1        0.0205
     16 F          -3.9768  -17.5938   24.4613 F       1  UNL1       -0.1659
     17 C          -3.2505  -17.6545   23.1502 C.3     1  UNL1        0.4184
     18 F          -4.5096  -17.2641   22.4346 F       1  UNL1       -0.1659
     19 F          -1.9913  -18.0449   23.8658 F       1  UNL1       -0.1659
     20 C         -10.0181  -19.3374   19.2189 C.3     1  UNL1        0.0559
     21 C         -10.8060  -18.5553   20.2276 C.ar    1  UNL1        0.0043
     22 C         -11.6585  -17.3547   19.9419 C.ar    1  UNL1        0.0966
     23 N         -12.2591  -16.8939   21.2369 N.ar    1  UNL1       -0.2273
     24 C         -11.7778  -17.8098   22.3229 C.ar    1  UNL1        0.1403
     25 N         -12.0413  -17.8414   23.7993 N.ar    1  UNL1       -0.3367
     26 C         -11.4066  -18.8998   24.6518 C.ar    1  UNL1        0.0850
     27 C         -10.5085  -19.9267   24.0281 C.ar    1  UNL1        0.0747
     28 CL         -9.8739  -20.9851   24.8807 Cl      1  UNL1       -0.0807
     29 C         -10.2451  -19.8950   22.5518 C.ar    1  UNL1        0.0156
     30 C         -10.8797  -18.8366   21.6992 C.ar    1  UNL1        0.0327
     31 H         -12.6307  -17.1674   24.2086 H       1  UNL1        0.1674
@<TRIPOS>BOND
     1    16    17    1
     2    17    18    1
     3    17    19    1
     4    17    10    1
     5    10    11   ar
     6    11    12   ar
     7    12    13   ar
     8    13    14   ar
     9    14    15   ar
    10    15     9    1
    11     9     7    1
    12     7     1    1
    13     1     2   ar
    14     2     3   ar
    15     3     4   ar
    16     4    20    1
    17    20    21    1
    18    21    22   ar
    19    22    23   ar
    20    23    24   ar
    21    24    25   ar
    22    25    26   ar
    23    26    27   ar
    24    27    28    1
    25    27    29   ar
    26    29    30   ar
    27     4     5   ar
    28     5     6   ar
    29    15    10   ar
    30     6     1   ar
    31    30    21   ar
    32    30    24    1
    33     7     8    1
    34    25    31    1
@<TRIPOS>MOLECULE
*****
 31 34 0 0 0
SMALL
GASTEIGER

@<TRIPOS>ATOM
      1 C          -4.6651  -17.9326   23.4057 C.ar    1  UNL1        0.1287
      2 C          -4.6110  -16.5276   23.9281 C.ar    1  UNL1        0.0338
      3 C          -5.8065  -15.6315   23.7950 C.ar    1  UNL1        0.0005
      4 C          -7.0560  -16.1404   23.1395 C.ar    1  UNL1        0.0015
      5 C          -7.1101  -17.5455   22.6171 C.ar    1  UNL1        0.0963
      6 N          -5.9146  -18.4415   22.7502 N.ar    1  UNL1       -0.2297
      7 N          -3.4696  -18.8288   23.5388 N.pl3   1  UNL1       -0.3144
      8 H          -3.0106  -18.9116   24.4058 H       1  UNL1        0.1485
      9 C          -2.9734  -19.5988   22.3510 C.3     1  UNL1        0.1169
     10 C          -3.4466  -19.1167   19.8423 C.ar    1  UNL1        0.0721
     11 C          -3.1058  -18.3971   18.5710 C.ar    1  UNL1        0.0243
     12 C          -1.9512  -17.4402   18.5372 C.ar    1  UNL1        0.0988
     13 N          -1.1374  -17.2028   19.7747 N.ar    1  UNL1       -0.2426
     14 C          -1.4781  -17.9224   21.0459 C.ar    1  UNL1        0.0962
     15 C          -2.6327  -18.8793   21.0797 C.ar    1  UNL1        0.0205
     16 F          -5.7558  -21.0306   19.9099 F       1  UNL1       -0.1659
     17 C          -4.6012  -20.0736   19.8761 C.3     1  UNL1        0.4184
     18 F          -5.5577  -18.9235   19.7658 F       1  UNL1       -0.1659
     19 F          -3.6446  -21.2238   19.9864 F       1  UNL1       -0.1659
     20 C          -8.2516  -15.2442   23.0063 C.3     1  UNL1        0.0559
     21 C          -9.3248  -15.5685   22.0098 C.ar    1  UNL1        0.0043
     22 C          -9.3859  -15.0851   20.5912 C.ar    1  UNL1        0.0966
     23 N         -10.6242  -15.6511   19.9616 N.ar    1  UNL1       -0.2273
     24 C         -11.3283  -16.4843   20.9911 C.ar    1  UNL1        0.1403
     25 N         -12.5970  -17.2828   20.9395 N.ar    1  UNL1       -0.3367
     26 C         -13.0626  -18.0304   22.1537 C.ar    1  UNL1        0.0850
     27 C         -12.2595  -17.9794   23.4196 C.ar    1  UNL1        0.0747
     28 CL        -12.7252  -18.7270   24.6338 Cl      1  UNL1       -0.0807
     29 C         -10.9909  -17.1808   23.4712 C.ar    1  UNL1        0.0156
     30 C         -10.5253  -16.4333   22.2570 C.ar    1  UNL1        0.0327
     31 H         -13.1241  -17.3163   20.1086 H       1  UNL1        0.1674
@<TRIPOS>BOND
     1    16    17    1
     2    17    18    1
     3    17    19    1
     4    17    10    1
     5    10    11   ar
     6    11    12   ar
     7    12    13   ar
     8    13    14   ar
     9    14    15   ar
    10    15     9    1
    11     9     7    1
    12     7     1    1
    13     1     2   ar
    14     2     3   ar
    15     3     4   ar
    16     4    20    1
    17    20    21    1
    18    21    22   ar
    19    22    23   ar
    20    23    24   ar
    21    24    25   ar
    22    25    26   ar
    23    26    27   ar
    24    27    28    1
    25    27    29   ar
    26    29    30   ar
    27     4     5   ar
    28     5     6   ar
    29    15    10   ar
    30     6     1   ar
    31    30    21   ar
    32    30    24    1
    33     7     8    1
    34    25    31    1
@<TRIPOS>MOLECULE
*****
 31 34 0 0 0
SMALL
GASTEIGER

@<TRIPOS>ATOM
      1 C          -4.8803  -16.2441   23.4520 C.ar    1  UNL1        0.1287
      2 C          -5.8350  -17.2942   22.9663 C.ar    1  UNL1        0.0338
      3 C          -7.2868  -17.2160   23.3352 C.ar    1  UNL1        0.0005
      4 C          -7.7840  -16.0879   24.1897 C.ar    1  UNL1        0.0015
      5 C          -6.8292  -15.0378   24.6753 C.ar    1  UNL1        0.0963
      6 N          -5.3775  -15.1159   24.3064 N.ar    1  UNL1       -0.2297
      7 N          -3.4285  -16.3221   23.0831 N.pl3   1  UNL1       -0.3144
      8 H          -2.9114  -15.4963   22.9422 H       1  UNL1        0.1485
      9 C          -2.7645  -17.6583   22.9290 C.3     1  UNL1        0.1169
     10 C          -2.4213  -18.3921   20.4605 C.ar    1  UNL1        0.0721
     11 C          -2.7826  -19.2806   19.3072 C.ar    1  UNL1        0.0243
     12 C          -3.8483  -20.3237   19.4692 C.ar    1  UNL1        0.0988
     13 N          -4.5527  -20.4783   20.7844 N.ar    1  UNL1       -0.2426
     14 C          -4.1914  -19.5898   21.9377 C.ar    1  UNL1        0.0962
     15 C          -3.1257  -18.5467   21.7757 C.ar    1  UNL1        0.0205
     16 F          -0.2899  -16.3058   20.1365 F       1  UNL1       -0.1659
     17 C          -1.3556  -17.3490   20.2985 C.3     1  UNL1        0.4184
     18 F          -0.3001  -18.3999   20.4752 F       1  UNL1       -0.1659
     19 F          -2.4112  -16.2981   20.1218 F       1  UNL1       -0.1659
     20 C          -9.2359  -16.0098   24.5586 C.3     1  UNL1        0.0559
     21 C         -10.2283  -16.9175   23.8943 C.ar    1  UNL1        0.0043
     22 C         -10.9011  -18.1005   24.5250 C.ar    1  UNL1        0.0966
     23 N         -11.8107  -18.7156   23.5032 N.ar    1  UNL1       -0.2273
     24 C         -11.7002  -17.9127   22.2410 C.ar    1  UNL1        0.1403
     25 N         -12.3638  -18.0499   20.9028 N.ar    1  UNL1       -0.3367
     26 C         -12.0493  -17.0759   19.8063 C.ar    1  UNL1        0.0850
     27 C         -11.0713  -15.9645   20.0481 C.ar    1  UNL1        0.0747
     28 CL        -10.7568  -14.9904   18.9515 Cl      1  UNL1       -0.0807
     29 C         -10.4077  -15.8273   21.3863 C.ar    1  UNL1        0.0156
     30 C         -10.7222  -16.8014   22.4827 C.ar    1  UNL1        0.0327
     31 H         -13.0057  -18.7793   20.7441 H       1  UNL1        0.1674
@<TRIPOS>BOND
     1    16    17    1
     2    17    18    1
     3    17    19    1
     4    17    10    1
     5    10    11   ar
     6    11    12   ar
     7    12    13   ar
     8    13    14   ar
     9    14    15   ar
    10    15     9    1
    11     9     7    1
    12     7     1    1
    13     1     2   ar
    14     2     3   ar
    15     3     4   ar
    16     4    20    1
    17    20    21    1
    18    21    22   ar
    19    22    23   ar
    20    23    24   ar
    21    24    25   ar
    22    25    26   ar
    23    26    27   ar
    24    27    28    1
    25    27    29   ar
    26    29    30   ar
    27     4     5   ar
    28     5     6   ar
    29    15    10   ar
    30     6     1   ar
    31    30    21   ar
    32    30    24    1
    33     7     8    1
    34    25    31    1
@<TRIPOS>MOLECULE
*****
 31 34 0 0 0
SMALL
GASTEIGER

@<TRIPOS>ATOM
      1 C          -6.1668  -19.2778   21.5359 C.ar    1  UNL1        0.1287
      2 C          -7.2241  -20.2611   21.9424 C.ar    1  UNL1        0.0338
      3 C          -8.3474  -19.8274   22.8369 C.ar    1  UNL1        0.0005
      4 C          -8.4134  -18.4106   23.3249 C.ar    1  UNL1        0.0015
      5 C          -7.3561  -17.4273   22.9184 C.ar    1  UNL1        0.0963
      6 N          -6.2328  -17.8609   22.0239 N.ar    1  UNL1       -0.2297
      7 N          -5.0435  -19.7113   20.6414 N.pl3   1  UNL1       -0.3144
      8 H          -5.2209  -19.9249   19.6968 H       1  UNL1        0.1485
      9 C          -3.6500  -19.8195   21.1859 C.3     1  UNL1        0.1169
     10 C          -2.3880  -17.6172   21.7399 C.ar    1  UNL1        0.0721
     11 C          -1.3611  -16.5836   21.3833 C.ar    1  UNL1        0.0243
     12 C          -0.5694  -16.7186   20.1164 C.ar    1  UNL1        0.0988
     13 N          -0.8046  -17.8873   19.2061 N.ar    1  UNL1       -0.2426
     14 C          -1.8315  -18.9209   19.5626 C.ar    1  UNL1        0.0962
     15 C          -2.6232  -18.7859   20.8295 C.ar    1  UNL1        0.0205
     16 F          -3.9714  -17.3470   24.2737 F       1  UNL1       -0.1659
     17 C          -3.1796  -17.4821   23.0068 C.3     1  UNL1        0.4184
     18 F          -2.8430  -18.8984   23.3681 F       1  UNL1       -0.1659
     19 F          -3.5163  -16.0657   22.6453 F       1  UNL1       -0.1659
     20 C          -9.5367  -17.9769   24.2195 C.3     1  UNL1        0.0559
     21 C         -10.9341  -17.8916   23.6810 C.ar    1  UNL1        0.0043
     22 C         -12.1615  -18.4727   24.3180 C.ar    1  UNL1        0.0966
     23 N         -13.3354  -18.1504   23.4416 N.ar    1  UNL1       -0.2273
     24 C         -12.8335  -17.3700   22.2630 C.ar    1  UNL1        0.1403
     25 N         -13.5361  -16.7844   21.0741 N.ar    1  UNL1       -0.3367
     26 C         -12.7547  -16.0388   20.0333 C.ar    1  UNL1        0.0850
     27 C         -11.2706  -15.8788   20.1813 C.ar    1  UNL1        0.0747
     28 CL        -10.4891  -15.1332   19.1404 Cl      1  UNL1       -0.0807
     29 C         -10.5680  -16.4645   21.3701 C.ar    1  UNL1        0.0156
     30 C         -11.3494  -17.2100   22.4109 C.ar    1  UNL1        0.0327
     31 H         -14.5102  -16.8893   20.9770 H       1  UNL1        0.1674
@<TRIPOS>BOND
     1    16    17    1
     2    17    18    1
     3    17    19    1
     4    17    10    1
     5    10    11   ar
     6    11    12   ar
     7    12    13   ar
     8    13    14   ar
     9    14    15   ar
    10    15     9    1
    11     9     7    1
    12     7     1    1
    13     1     2   ar
    14     2     3   ar
    15     3     4   ar
    16     4    20    1
    17    20    21    1
    18    21    22   ar
    19    22    23   ar
    20    23    24   ar
    21    24    25   ar
    22    25    26   ar
    23    26    27   ar
    24    27    28    1
    25    27    29   ar
    26    29    30   ar
    27     4     5   ar
    28     5     6   ar
    29    15    10   ar
    30     6     1   ar
    31    30    21   ar
    32    30    24    1
    33     7     8    1
    34    25    31    1
@<TRIPOS>MOLECULE
*****
 31 34 0 0 0
SMALL
GASTEIGER

@<TRIPOS>ATOM
      1 C          -4.5140  -20.3943   20.1118 C.ar    1  UNL1        0.1287
      2 C          -5.5212  -21.4982   20.2415 C.ar    1  UNL1        0.0338
      3 C          -6.9844  -21.1985   20.1028 C.ar    1  UNL1        0.0005
      4 C          -7.4403  -19.7949   19.8345 C.ar    1  UNL1        0.0015
      5 C          -6.4330  -18.6910   19.7047 C.ar    1  UNL1        0.0963
      6 N          -4.9699  -18.9907   19.8434 N.ar    1  UNL1       -0.2297
      7 N          -3.0508  -20.6940   20.2504 N.pl3   1  UNL1       -0.3144
      8 H          -2.6108  -21.3035   19.6147 H       1  UNL1        0.1485
      9 C          -2.2579  -20.0651   21.3576 C.3     1  UNL1        0.1169
     10 C          -1.9987  -17.4885   21.1483 C.ar    1  UNL1        0.0721
     11 C          -2.3375  -16.1061   21.6218 C.ar    1  UNL1        0.0243
     12 C          -3.2743  -15.9180   22.7781 C.ar    1  UNL1        0.0988
     13 N          -3.8723  -17.1122   23.4609 N.ar    1  UNL1       -0.2426
     14 C          -3.5335  -18.4946   22.9874 C.ar    1  UNL1        0.0962
     15 C          -2.5967  -18.6827   21.8311 C.ar    1  UNL1        0.0205
     16 F          -0.1250  -17.8647   18.8357 F       1  UNL1       -0.1659
     17 C          -1.0619  -17.6766   19.9920 C.3     1  UNL1        0.4184
     18 F          -2.2200  -17.6033   19.0417 F       1  UNL1       -0.1659
     19 F           0.0964  -17.7499   20.9424 F       1  UNL1       -0.1659
     20 C          -8.9036  -19.4951   19.6958 C.3     1  UNL1        0.0559
     21 C          -9.7270  -19.1979   20.9139 C.ar    1  UNL1        0.0043
     22 C         -11.0145  -19.8676   21.2927 C.ar    1  UNL1        0.0966
     23 N         -11.4906  -19.2623   22.5799 N.ar    1  UNL1       -0.2273
     24 C         -10.4973  -18.2185   22.9967 C.ar    1  UNL1        0.1403
     25 N         -10.4445  -17.2992   24.1807 N.ar    1  UNL1       -0.3367
     26 C          -9.3016  -16.3400   24.3350 C.ar    1  UNL1        0.0850
     27 C          -8.2116  -16.3001   23.3054 C.ar    1  UNL1        0.0747
     28 CL         -7.0687  -15.3409   23.4597 Cl      1  UNL1       -0.0807
     29 C          -8.2644  -17.2195   22.1213 C.ar    1  UNL1        0.0156
     30 C          -9.4072  -18.1787   21.9670 C.ar    1  UNL1        0.0327
     31 H         -11.1599  -17.3253   24.8565 H       1  UNL1        0.1674
@<TRIPOS>BOND
     1    16    17    1
     2    17    18    1
     3    17    19    1
     4    17    10    1
     5    10    11   ar
     6    11    12   ar
     7    12    13   ar
     8    13    14   ar
     9    14    15   ar
    10    15     9    1
    11     9     7    1
    12     7     1    1
    13     1     2   ar
    14     2     3   ar
    15     3     4   ar
    16     4    20    1
    17    20    21    1
    18    21    22   ar
    19    22    23   ar
    20    23    24   ar
    21    24    25   ar
    22    25    26   ar
    23    26    27   ar
    24    27    28    1
    25    27    29   ar
    26    29    30   ar
    27     4     5   ar
    28     5     6   ar
    29    15    10   ar
    30     6     1   ar
    31    30    21   ar
    32    30    24    1
    33     7     8    1
    34    25    31    1
