@<TRIPOS>MOLECULE
*****
 22 25 0 0 0
SMALL
GASTEIGER

@<TRIPOS>ATOM
      1 O          -8.0519  -15.3117   21.3406 O.2     1  UNL1       -0.2448
      2 C          -7.8800  -16.6290   22.0369 C.2     1  UNL1        0.3428
      3 C          -8.3890  -16.8099   23.4363 C.2     1  UNL1        0.0966
      4 C          -9.6484  -17.5225   23.8311 C.2     1  UNL1        0.1049
      5 N          -9.7657  -17.4628   25.3254 N.2     1  UNL1       -0.2476
      6 C          -8.5788  -16.7133   25.8540 C.2     1  UNL1        0.0644
      7 C          -8.1629  -16.3461   27.2476 C.3     1  UNL1        0.0718
      8 C          -6.8961  -15.5754   27.4736 C.2     1  UNL1       -0.0189
      9 C          -6.0452  -15.1718   26.3061 C.2     1  UNL1        0.0073
     10 C          -6.4611  -15.5390   24.9125 C.2     1  UNL1        0.0587
     11 CL         -5.6103  -15.1354   23.7450 Cl      1  UNL1       -0.0822
     12 C          -7.7279  -16.3097   24.6864 C.2     1  UNL1        0.0322
     13 O          -7.1989  -17.7657   21.3338 O.3     1  UNL1       -0.4454
     14 C          -6.4646  -18.8060   22.1267 C.3     1  UNL1        0.2087
     15 C          -4.9714  -18.9082   22.0285 C.3     1  UNL1        0.0445
     16 C          -4.3470  -19.8044   21.0004 C.3     1  UNL1        0.0210
     17 C          -2.8537  -19.9065   20.9022 C.3     1  UNL1        0.0722
     18 N          -1.9847  -19.1125   21.8320 N.3     1  UNL1       -0.2727
     19 C          -2.6091  -18.2164   22.8601 C.3     1  UNL1        0.0722
     20 C          -4.1025  -18.1142   22.9583 C.3     1  UNL1        0.0210
     21 C          -2.7982  -19.0238   21.9238 C.3     1  UNL1        0.0722
     22 C          -4.1484  -18.9313   22.0127 C.3     1  UNL1        0.0210
@<TRIPOS>BOND
     1     1     2    2
     2     2    13    1
     3    13    14    1
     4    14    15    1
     5    15    16    1
     6    16    17    1
     7    17    18    1
     8    18    19    1
     9    19    20    1
    10    18    21    1
    11    21    22    1
    12     2     3    1
    13     3     4    2
    14     4     5    1
    15     5     6    2
    16     6     7    1
    17     7     8    1
    18     8     9    2
    19     9    10    1
    20    10    11    1
    21    10    12    2
    22    20    15    1
    23    12     3    1
    24    22    15    1
    25    12     6    1
@<TRIPOS>MOLECULE
*****
 22 25 0 0 0
SMALL
GASTEIGER

@<TRIPOS>ATOM
      1 O          -8.3755  -18.5615   20.3265 O.2     1  UNL1       -0.2448
      2 C          -8.3436  -18.0566   21.7385 C.2     1  UNL1        0.3428
      3 C          -9.3054  -18.6023   22.7521 C.2     1  UNL1        0.0966
      4 C          -9.0266  -19.7087   23.7258 C.2     1  UNL1        0.1049
      5 N         -10.2637  -19.9275   24.5453 N.2     1  UNL1       -0.2476
      6 C         -11.3071  -18.9563   24.0781 C.2     1  UNL1        0.0644
      7 C         -12.7199  -18.7120   24.5187 C.3     1  UNL1        0.0718
      8 C         -13.5405  -17.6487   23.8510 C.2     1  UNL1       -0.0189
      9 C         -12.9482  -16.8296   22.7427 C.2     1  UNL1        0.0073
     10 C         -11.5353  -17.0739   22.3021 C.2     1  UNL1        0.0587
     11 CL        -10.9430  -16.2549   21.1938 Cl      1  UNL1       -0.0822
     12 C         -10.7148  -18.1373   22.9698 C.2     1  UNL1        0.0322
     13 O          -7.3499  -17.0059   22.1371 O.3     1  UNL1       -0.4454
     14 C          -7.7965  -15.8136   22.9302 C.3     1  UNL1        0.2087
     15 C          -7.4743  -15.7221   24.3923 C.3     1  UNL1        0.0445
     16 C          -8.5303  -16.0254   25.4135 C.3     1  UNL1        0.0210
     17 C          -8.2079  -15.9338   26.8756 C.3     1  UNL1        0.0722
     18 N          -6.8296  -15.5389   27.3166 N.3     1  UNL1       -0.2727
     19 C          -5.7736  -15.2357   26.2954 C.3     1  UNL1        0.0722
     20 C          -6.0960  -15.3272   24.8332 C.3     1  UNL1        0.0210
     21 C          -6.9590  -15.5756   26.5042 C.3     1  UNL1        0.0722
     22 C          -7.2504  -15.6583   25.1821 C.3     1  UNL1        0.0210
@<TRIPOS>BOND
     1     1     2    2
     2     2    13    1
     3    13    14    1
     4    14    15    1
     5    15    16    1
     6    16    17    1
     7    17    18    1
     8    18    19    1
     9    19    20    1
    10    18    21    1
    11    21    22    1
    12     2     3    1
    13     3     4    2
    14     4     5    1
    15     5     6    2
    16     6     7    1
    17     7     8    1
    18     8     9    2
    19     9    10    1
    20    10    11    1
    21    10    12    2
    22    20    15    1
    23    12     3    1
    24    22    15    1
    25    12     6    1
@<TRIPOS>MOLECULE
*****
 22 25 0 0 0
SMALL
GASTEIGER

@<TRIPOS>ATOM
      1 O          -6.9696  -20.0040   22.2963 O.2     1  UNL1       -0.2448
      2 C          -7.2774  -18.6738   21.6754 C.2     1  UNL1        0.3428
      3 C          -8.2935  -17.7687   22.3064 C.2     1  UNL1        0.0966
      4 C          -8.0894  -16.9367   23.5377 C.2     1  UNL1        0.1049
      5 N          -9.3620  -16.1904   23.8090 N.2     1  UNL1       -0.2476
      6 C         -10.3526  -16.5612   22.7455 C.2     1  UNL1        0.0644
      7 C         -11.7706  -16.1367   22.5027 C.3     1  UNL1        0.0718
      8 C         -12.5283  -16.6875   21.3312 C.2     1  UNL1       -0.0189
      9 C         -11.8680  -17.6630   20.4025 C.2     1  UNL1        0.0073
     10 C         -10.4500  -18.0875   20.6453 C.2     1  UNL1        0.0587
     11 CL         -9.7896  -19.0630   19.7166 Cl      1  UNL1       -0.0822
     12 C          -9.6923  -17.5366   21.8168 C.2     1  UNL1        0.0322
     13 O          -6.5690  -18.2487   20.4234 O.3     1  UNL1       -0.4454
     14 C          -5.5996  -19.1796   19.7572 C.3     1  UNL1        0.2087
     15 C          -4.1329  -19.0720   20.0525 C.3     1  UNL1        0.0445
     16 C          -3.5636  -19.7296   21.2745 C.3     1  UNL1        0.0210
     17 C          -2.0969  -19.6220   21.5697 C.3     1  UNL1        0.0722
     18 N          -1.1994  -18.8566   20.6430 N.3     1  UNL1       -0.2727
     19 C          -1.7687  -18.1990   19.4209 C.3     1  UNL1        0.0722
     20 C          -3.2355  -18.3066   19.1257 C.3     1  UNL1        0.0210
     21 C          -1.9967  -18.8880   20.4395 C.3     1  UNL1        0.0722
     22 C          -3.3229  -18.9853   20.1725 C.3     1  UNL1        0.0210
@<TRIPOS>BOND
     1     1     2    2
     2     2    13    1
     3    13    14    1
     4    14    15    1
     5    15    16    1
     6    16    17    1
     7    17    18    1
     8    18    19    1
     9    19    20    1
    10    18    21    1
    11    21    22    1
    12     2     3    1
    13     3     4    2
    14     4     5    1
    15     5     6    2
    16     6     7    1
    17     7     8    1
    18     8     9    2
    19     9    10    1
    20    10    11    1
    21    10    12    2
    22    20    15    1
    23    12     3    1
    24    22    15    1
    25    12     6    1
@<TRIPOS>MOLECULE
*****
 22 25 0 0 0
SMALL
GASTEIGER

@<TRIPOS>ATOM
      1 O          -8.3869  -19.3475   20.5992 O.2     1  UNL1       -0.2448
      2 C          -8.8150  -18.0233   21.1587 C.2     1  UNL1        0.3428
      3 C         -10.2740  -17.7066   21.3036 C.2     1  UNL1        0.0966
      4 C         -11.1308  -17.0128   20.2865 C.2     1  UNL1        0.1049
      5 N         -12.5187  -16.9055   20.8454 N.2     1  UNL1       -0.2476
      6 C         -12.5195  -17.5328   22.2079 C.2     1  UNL1        0.0644
      7 C         -13.6043  -17.7172   23.2273 C.3     1  UNL1        0.0718
      8 C         -13.3018  -18.3967   24.5299 C.2     1  UNL1       -0.0189
      9 C         -11.9144  -18.8918   24.8131 C.2     1  UNL1        0.0073
     10 C         -10.8297  -18.7074   23.7937 C.2     1  UNL1        0.0587
     11 CL         -9.4423  -19.2025   24.0769 Cl      1  UNL1       -0.0822
     12 C         -11.1322  -18.0279   22.4911 C.2     1  UNL1        0.0322
     13 O          -7.7839  -17.0157   21.5734 O.3     1  UNL1       -0.4454
     14 C          -8.1888  -15.8155   22.3768 C.3     1  UNL1        0.2087
     15 C          -7.7559  -15.6899   23.8075 C.3     1  UNL1        0.0445
     16 C          -6.3101  -15.4637   24.1365 C.3     1  UNL1        0.0210
     17 C          -5.8773  -15.3381   25.5672 C.3     1  UNL1        0.0722
     18 N          -6.8903  -15.4388   26.6689 N.3     1  UNL1       -0.2727
     19 C          -8.3361  -15.6650   26.3399 C.3     1  UNL1        0.0722
     20 C          -8.7690  -15.7906   24.9091 C.3     1  UNL1        0.0210
     21 C          -7.1751  -15.5139   25.9000 C.3     1  UNL1        0.0722
     22 C          -7.5666  -15.6275   24.6064 C.3     1  UNL1        0.0210
@<TRIPOS>BOND
     1     1     2    2
     2     2    13    1
     3    13    14    1
     4    14    15    1
     5    15    16    1
     6    16    17    1
     7    17    18    1
     8    18    19    1
     9    19    20    1
    10    18    21    1
    11    21    22    1
    12     2     3    1
    13     3     4    2
    14     4     5    1
    15     5     6    2
    16     6     7    1
    17     7     8    1
    18     8     9    2
    19     9    10    1
    20    10    11    1
    21    10    12    2
    22    20    15    1
    23    12     3    1
    24    22    15    1
    25    12     6    1
@<TRIPOS>MOLECULE
*****
 22 25 0 0 0
SMALL
GASTEIGER

@<TRIPOS>ATOM
      1 O          -7.6893  -17.0608   21.6399 O.2     1  UNL1       -0.2448
      2 C          -7.3691  -18.4696   22.0429 C.2     1  UNL1        0.3428
      3 C          -6.1752  -19.1641   21.4579 C.2     1  UNL1        0.0966
      4 C          -6.2067  -20.2640   20.4384 C.2     1  UNL1        0.1049
      5 N          -4.7910  -20.6603   20.1403 N.2     1  UNL1       -0.2476
      6 C          -3.8846  -19.8054   20.9755 C.2     1  UNL1        0.0644
      7 C          -2.3908  -19.7495   21.0996 C.3     1  UNL1        0.0718
      8 C          -1.7525  -18.7689   22.0382 C.2     1  UNL1       -0.0189
      9 C          -2.6079  -17.8442   22.8526 C.2     1  UNL1        0.0073
     10 C          -4.1017  -17.9001   22.7284 C.2     1  UNL1        0.0587
     11 CL         -4.9572  -16.9755   23.5428 Cl      1  UNL1       -0.0822
     12 C          -4.7401  -18.8807   21.7898 C.2     1  UNL1        0.0322
     13 O          -8.2430  -19.1841   23.0308 O.3     1  UNL1       -0.4454
     14 C          -9.5454  -19.7807   22.5861 C.3     1  UNL1        0.2087
     15 C         -10.6137  -18.9018   22.0064 C.3     1  UNL1        0.0445
     16 C         -10.5659  -18.5198   20.5567 C.3     1  UNL1        0.0210
     17 C         -11.6343  -17.6408   19.9771 C.3     1  UNL1        0.0722
     18 N         -12.7506  -17.1438   20.8471 N.3     1  UNL1       -0.2727
     19 C         -12.7984  -17.5258   22.2969 C.3     1  UNL1        0.0722
     20 C         -11.7299  -18.4048   22.8766 C.3     1  UNL1        0.0210
     21 C         -12.1878  -17.6232   21.2097 C.3     1  UNL1        0.0722
     22 C         -11.2218  -18.4179   21.7339 C.3     1  UNL1        0.0210
@<TRIPOS>BOND
     1     1     2    2
     2     2    13    1
     3    13    14    1
     4    14    15    1
     5    15    16    1
     6    16    17    1
     7    17    18    1
     8    18    19    1
     9    19    20    1
    10    18    21    1
    11    21    22    1
    12     2     3    1
    13     3     4    2
    14     4     5    1
    15     5     6    2
    16     6     7    1
    17     7     8    1
    18     8     9    2
    19     9    10    1
    20    10    11    1
    21    10    12    2
    22    20    15    1
    23    12     3    1
    24    22    15    1
    25    12     6    1
@<TRIPOS>MOLECULE
*****
 22 25 0 0 0
SMALL
GASTEIGER

@<TRIPOS>ATOM
      1 O          -8.1333  -14.9310   21.2745 O.2     1  UNL1       -0.2448
      2 C          -7.5210  -16.0366   22.0823 C.2     1  UNL1        0.3428
      3 C          -6.8572  -15.7298   23.3919 C.2     1  UNL1        0.0966
      4 C          -5.5068  -15.1015   23.5701 C.2     1  UNL1        0.1049
      5 N          -5.2424  -14.9808   25.0417 N.2     1  UNL1       -0.2476
      6 C          -6.4293  -15.5345   25.7729 C.2     1  UNL1        0.0644
      7 C          -6.7302  -15.6769   27.2355 C.3     1  UNL1        0.0718
      8 C          -8.0291  -16.2822   27.6784 C.2     1  UNL1       -0.0189
      9 C          -9.0272  -16.7451   26.6588 C.2     1  UNL1        0.0073
     10 C          -8.7263  -16.6027   25.1963 C.2     1  UNL1        0.0587
     11 CL         -9.7243  -17.0656   24.1766 Cl      1  UNL1       -0.0822
     12 C          -7.4273  -15.9974   24.7533 C.2     1  UNL1        0.0322
     13 O          -7.5724  -17.4493   21.5803 O.3     1  UNL1       -0.4454
     14 C          -6.8655  -18.5384   22.3314 C.3     1  UNL1        0.2087
     15 C          -5.5609  -19.0756   21.8223 C.3     1  UNL1        0.0445
     16 C          -4.2791  -18.7077   22.5090 C.3     1  UNL1        0.0210
     17 C          -2.9744  -19.2450   21.9998 C.3     1  UNL1        0.0722
     18 N          -2.9516  -20.1501   20.8038 N.3     1  UNL1       -0.2727
     19 C          -4.2334  -20.5179   20.1171 C.3     1  UNL1        0.0722
     20 C          -5.5381  -19.9806   20.6263 C.3     1  UNL1        0.0210
     21 C          -3.6908  -19.8804   21.0463 C.3     1  UNL1        0.0722
     22 C          -4.8705  -19.3947   21.5067 C.3     1  UNL1        0.0210
@<TRIPOS>BOND
     1     1     2    2
     2     2    13    1
     3    13    14    1
     4    14    15    1
     5    15    16    1
     6    16    17    1
     7    17    18    1
     8    18    19    1
     9    19    20    1
    10    18    21    1
    11    21    22    1
    12     2     3    1
    13     3     4    2
    14     4     5    1
    15     5     6    2
    16     6     7    1
    17     7     8    1
    18     8     9    2
    19     9    10    1
    20    10    11    1
    21    10    12    2
    22    20    15    1
    23    12     3    1
    24    22    15    1
    25    12     6    1
@<TRIPOS>MOLECULE
*****
 22 25 0 0 0
SMALL
GASTEIGER

@<TRIPOS>ATOM
      1 O          -7.8889  -15.4325   21.6461 O.2     1  UNL1       -0.2448
      2 C          -8.0821  -16.8997   21.8906 C.2     1  UNL1        0.3428
      3 C          -9.0581  -17.3647   22.9304 C.2     1  UNL1        0.0966
      4 C          -8.7310  -17.7196   24.3506 C.2     1  UNL1        0.1049
      5 N         -10.0034  -18.1306   25.0304 N.2     1  UNL1       -0.2476
      6 C         -11.1168  -18.0297   24.0304 C.2     1  UNL1        0.0644
      7 C         -12.5872  -18.3077   24.1339 C.3     1  UNL1        0.0718
      8 C         -13.4733  -18.1123   22.9395 C.2     1  UNL1       -0.0189
      9 C         -12.8891  -17.6389   21.6416 C.2     1  UNL1        0.0073
     10 C         -11.4187  -17.3609   21.5381 C.2     1  UNL1        0.0587
     11 CL        -10.8345  -16.8875   20.2402 Cl      1  UNL1       -0.0822
     12 C         -10.5326  -17.5563   22.7325 C.2     1  UNL1        0.0322
     13 O          -7.2991  -17.9020   21.0953 O.3     1  UNL1       -0.4454
     14 C          -6.5865  -19.0220   21.7938 C.3     1  UNL1        0.2087
     15 C          -5.0889  -19.0977   21.7550 C.3     1  UNL1        0.0445
     16 C          -4.4080  -19.9703   20.7426 C.3     1  UNL1        0.0210
     17 C          -2.9104  -20.0459   20.7039 C.3     1  UNL1        0.0722
     18 N          -2.0937  -19.2489   21.6774 N.3     1  UNL1       -0.2727
     19 C          -2.7746  -18.3763   22.6898 C.3     1  UNL1        0.0722
     20 C          -4.2723  -18.3007   22.7285 C.3     1  UNL1        0.0210
     21 C          -2.9116  -19.1751   21.7372 C.3     1  UNL1        0.0722
     22 C          -4.2657  -19.1066   21.7723 C.3     1  UNL1        0.0210
@<TRIPOS>BOND
     1     1     2    2
     2     2    13    1
     3    13    14    1
     4    14    15    1
     5    15    16    1
     6    16    17    1
     7    17    18    1
     8    18    19    1
     9    19    20    1
    10    18    21    1
    11    21    22    1
    12     2     3    1
    13     3     4    2
    14     4     5    1
    15     5     6    2
    16     6     7    1
    17     7     8    1
    18     8     9    2
    19     9    10    1
    20    10    11    1
    21    10    12    2
    22    20    15    1
    23    12     3    1
    24    22    15    1
    25    12     6    1
@<TRIPOS>MOLECULE
*****
 22 25 0 0 0
SMALL
GASTEIGER

@<TRIPOS>ATOM
      1 O          -9.5839  -20.9898   24.6816 O.2     1  UNL1       -0.2448
      2 C          -9.5250  -19.5016   24.5033 C.2     1  UNL1        0.3428
      3 C          -9.4676  -18.9130   23.1248 C.2     1  UNL1        0.0966
      4 C          -8.2659  -18.8849   22.2275 C.2     1  UNL1        0.1049
      5 N          -8.6575  -18.2037   20.9498 N.2     1  UNL1       -0.2476
      6 C         -10.1011  -17.8109   21.0574 C.2     1  UNL1        0.0644
      7 C         -11.0245  -17.1106   20.1050 C.3     1  UNL1        0.0718
      8 C         -12.4484  -16.8488   20.4969 C.2     1  UNL1       -0.0189
      9 C         -12.9491  -17.2872   21.8412 C.2     1  UNL1        0.0073
     10 C         -12.0258  -17.9874   22.7936 C.2     1  UNL1        0.0587
     11 CL        -12.5265  -18.4258   24.1379 Cl      1  UNL1       -0.0822
     12 C         -10.6018  -18.2493   22.4017 C.2     1  UNL1        0.0322
     13 O          -9.5234  -18.6020   25.7037 O.3     1  UNL1       -0.4454
     14 C          -9.5033  -17.1128   25.5248 C.3     1  UNL1        0.2087
     15 C          -8.2150  -16.3578   25.6666 C.3     1  UNL1        0.0445
     16 C          -7.4135  -16.0064   24.4484 C.3     1  UNL1        0.0210
     17 C          -6.1252  -15.2513   24.5904 C.3     1  UNL1        0.0722
     18 N          -5.6382  -14.8477   25.9505 N.3     1  UNL1       -0.2727
     19 C          -6.4397  -15.1991   27.1688 C.3     1  UNL1        0.0722
     20 C          -7.7281  -15.9542   27.0268 C.3     1  UNL1        0.0210
     21 C          -6.3502  -15.2604   25.9228 C.3     1  UNL1        0.0722
     22 C          -7.5152  -15.9431   25.7946 C.3     1  UNL1        0.0210
@<TRIPOS>BOND
     1     1     2    2
     2     2    13    1
     3    13    14    1
     4    14    15    1
     5    15    16    1
     6    16    17    1
     7    17    18    1
     8    18    19    1
     9    19    20    1
    10    18    21    1
    11    21    22    1
    12     2     3    1
    13     3     4    2
    14     4     5    1
    15     5     6    2
    16     6     7    1
    17     7     8    1
    18     8     9    2
    19     9    10    1
    20    10    11    1
    21    10    12    2
    22    20    15    1
    23    12     3    1
    24    22    15    1
    25    12     6    1
@<TRIPOS>MOLECULE
*****
 22 25 0 0 0
SMALL
GASTEIGER

@<TRIPOS>ATOM
      1 O          -9.9561  -20.4137   25.3074 O.2     1  UNL1       -0.2448
      2 C         -10.1237  -19.0119   24.8008 C.2     1  UNL1        0.3428
      3 C         -10.8250  -18.7639   23.4982 C.2     1  UNL1        0.0966
      4 C         -12.2384  -18.2893   23.3343 C.2     1  UNL1        0.1049
      5 N         -12.5230  -18.1790   21.8657 N.2     1  UNL1       -0.2476
      6 C         -11.2854  -18.5856   21.1219 C.2     1  UNL1        0.0644
      7 C         -10.9785  -18.6733   19.6563 C.3     1  UNL1        0.0718
      8 C          -9.6221  -19.1225   19.1997 C.2     1  UNL1       -0.0189
      9 C          -8.5727  -19.4839   20.2087 C.2     1  UNL1        0.0073
     10 C          -8.8796  -19.3962   21.6743 C.2     1  UNL1        0.0587
     11 CL         -7.8302  -19.7577   22.6833 Cl      1  UNL1       -0.0822
     12 C         -10.2360  -18.9470   22.1309 C.2     1  UNL1        0.0322
     13 O          -9.5899  -17.8579   25.5968 O.3     1  UNL1       -0.4454
     14 C          -9.1972  -16.5867   24.9040 C.3     1  UNL1        0.2087
     15 C          -7.8215  -16.0212   25.0977 C.3     1  UNL1        0.0445
     16 C          -6.8922  -15.8918   23.9275 C.3     1  UNL1        0.0210
     17 C          -5.5165  -15.3263   24.1212 C.3     1  UNL1        0.0722
     18 N          -5.0701  -14.8900   25.4852 N.3     1  UNL1       -0.2727
     19 C          -5.9994  -15.0193   26.6555 C.3     1  UNL1        0.0722
     20 C          -7.3752  -15.5849   26.4617 C.3     1  UNL1        0.0210
     21 C          -5.8332  -15.1939   25.4282 C.3     1  UNL1        0.0722
     22 C          -7.0772  -15.7053   25.2531 C.3     1  UNL1        0.0210
@<TRIPOS>BOND
     1     1     2    2
     2     2    13    1
     3    13    14    1
     4    14    15    1
     5    15    16    1
     6    16    17    1
     7    17    18    1
     8    18    19    1
     9    19    20    1
    10    18    21    1
    11    21    22    1
    12     2     3    1
    13     3     4    2
    14     4     5    1
    15     5     6    2
    16     6     7    1
    17     7     8    1
    18     8     9    2
    19     9    10    1
    20    10    11    1
    21    10    12    2
    22    20    15    1
    23    12     3    1
    24    22    15    1
    25    12     6    1
