@<TRIPOS>MOLECULE
*****
 44 48 0 0 0
SMALL
GASTEIGER

@<TRIPOS>ATOM
      1 N           3.1640    1.0115   21.7307 N.ar    1  UNL1       -0.3260
      2 C           2.7501    0.3100   20.4711 C.ar    1  UNL1        0.0433
      3 C           3.1866   -1.1215   20.5730 C.ar    1  UNL1        0.0383
      4 C           3.8704   -1.3046   21.8955 C.ar    1  UNL1        0.0256
      5 C           4.5039   -2.5015   22.5405 C.ar    1  UNL1        0.0389
      6 C           5.1235   -2.3800   23.9012 C.ar    1  UNL1        0.1392
      7 C           5.1095   -1.0617   24.6167 C.ar    1  UNL1        0.0384
      8 C           4.4760    0.1351   23.9716 C.ar    1  UNL1        0.0203
      9 C           3.8564    0.0136   22.6110 C.ar    1  UNL1        0.0606
     10 C           2.9272    2.4571   22.0534 C.3     1  UNL1        0.1324
     11 C          -0.6818    3.6648   24.4548 C.ar    1  UNL1        0.0176
     12 C          -0.1615    2.2604   24.5375 C.ar    1  UNL1        0.0012
     13 C           1.0415    1.8578   23.7370 C.ar    1  UNL1       -0.0023
     14 C           1.7243    2.8596   22.8538 C.ar    1  UNL1        0.0004
     15 C           1.2040    4.2641   22.7712 C.ar    1  UNL1       -0.0023
     16 C           0.0010    4.6667   23.5716 C.ar    1  UNL1        0.0012
     17 C          -4.2907    4.8726   26.8562 C.ar    1  UNL1        0.1578
     18 C          -4.4456    3.9555   25.6793 C.ar    1  UNL1        0.0401
     19 C          -3.2426    3.5529   24.8788 C.ar    1  UNL1        0.0223
     20 C          -1.8847    4.0674   25.2553 C.ar    1  UNL1        0.0815
     21 N          -1.7299    4.9844   26.4321 N.ar    1  UNL1       -0.2407
     22 C          -2.9329    5.3870   27.2326 C.ar    1  UNL1        0.1356
     23 C          -6.5186    6.1936   27.0600 C.3     1  UNL1        0.2525
     24 O          -5.4937    5.2752   27.6566 O.3     1  UNL1       -0.4699
     25 C           2.0266    0.9309   19.3131 C.3     1  UNL1        0.0495
     26 C           0.7916    1.7482   19.5514 C.3     1  UNL1        0.0376
     27 C           1.4148    2.9021   18.8233 C.3     1  UNL1        0.0059
     28 C           0.1684    0.5944   20.2795 C.3     1  UNL1        0.0059
     29 C          -0.4434    2.5656   19.7897 C.2     1  UNL1        0.0500
     30 O          -0.8441    3.6237   18.8048 O.co2   1  UNL1       -0.5492
     31 O          -1.2776    2.3250   21.0128 O.co2   1  UNL1       -0.5492
     32 S           2.9763   -2.1834   19.5346 S.3     1  UNL1       -0.1142
     33 C           4.1567   -2.8770   18.9214 C.3     1  UNL1        0.0434
     34 C           3.6411   -4.1946   19.4196 C.3     1  UNL1        0.0112
     35 C           4.6721   -1.5593   18.4234 C.3     1  UNL1        0.0112
     36 C           5.3369   -3.5704   18.3082 C.3     1  UNL1        0.0112
     37 O           5.7570   -3.5769   24.5463 O.3     1  UNL1       -0.4690
     38 C           6.9310   -4.2463   23.8954 C.3     1  UNL1        0.2508
     39 C           7.5159   -5.4884   24.4994 C.ar    1  UNL1        0.1026
     40 C           8.4264   -6.3606   23.6867 C.ar    1  UNL1        0.0185
     41 C           9.0114   -7.6028   24.2908 C.ar    1  UNL1        0.0029
     42 C           8.6858   -7.9728   25.7075 C.ar    1  UNL1        0.0207
     43 C           7.7753   -7.1007   26.5202 C.ar    1  UNL1        0.0986
     44 N           7.1904   -5.8585   25.9162 N.ar    1  UNL1       -0.2445
@<TRIPOS>UNITY_ATOM_ATTR
30 1
charge -1
@<TRIPOS>BOND
     1    23    24    1
     2    24    17    1
     3    17    18   ar
     4    18    19   ar
     5    19    20   ar
     6    20    11    1
     7    11    12   ar
     8    12    13   ar
     9    13    14   ar
    10    14    10    1
    11    10     1    1
    12     1     2   ar
    13     2    25    1
    14    25    26    1
    15    26    27    1
    16    26    28    1
    17    26    29    1
    18    29    30   ar
    19    29    31   ar
    20     2     3   ar
    21     3    32    1
    22    32    33    1
    23    33    34    1
    24    33    35    1
    25    33    36    1
    26     3     4   ar
    27     4     5   ar
    28     5     6   ar
    29     6    37    1
    30    37    38    1
    31    38    39    1
    32    39    40   ar
    33    40    41   ar
    34    41    42   ar
    35    42    43   ar
    36    43    44   ar
    37     6     7   ar
    38     7     8   ar
    39     8     9   ar
    40    14    15   ar
    41    15    16   ar
    42    20    21   ar
    43    21    22   ar
    44    22    17   ar
    45    16    11   ar
    46     9     1   ar
    47     9     4   ar
    48    44    39   ar
@<TRIPOS>MOLECULE
*****
 44 48 0 0 0
SMALL
GASTEIGER

@<TRIPOS>ATOM
      1 N           4.2092    0.3246   22.3164 N.ar    1  UNL1       -0.3260
      2 C           4.0751   -0.6814   21.2119 C.ar    1  UNL1        0.0433
      3 C           4.5314   -2.0102   21.7373 C.ar    1  UNL1        0.0383
      4 C           4.9475   -1.8254   23.1666 C.ar    1  UNL1        0.0256
      5 C           5.4820   -2.7847   24.1884 C.ar    1  UNL1        0.0389
      6 C           5.8173   -2.3010   25.5680 C.ar    1  UNL1        0.1392
      7 C           5.6182   -0.8580   25.9259 C.ar    1  UNL1        0.0384
      8 C           5.0837    0.1013   24.9041 C.ar    1  UNL1        0.0203
      9 C           4.7483   -0.3824   23.5245 C.ar    1  UNL1        0.0606
     10 C           3.8646    1.7818   22.2284 C.3     1  UNL1        0.1324
     11 C          -0.3874    3.1287   22.8251 C.ar    1  UNL1        0.0176
     12 C           0.4812    3.8138   21.8121 C.ar    1  UNL1        0.0012
     13 C           1.8985    3.3649   21.6132 C.ar    1  UNL1       -0.0023
     14 C           2.4473    2.2308   22.4272 C.ar    1  UNL1        0.0004
     15 C           1.5787    1.5457   23.4403 C.ar    1  UNL1       -0.0023
     16 C           0.1613    1.9946   23.6392 C.ar    1  UNL1        0.0012
     17 C          -4.6394    4.4755   23.4219 C.ar    1  UNL1        0.1578
     18 C          -3.6243    4.6949   24.5043 C.ar    1  UNL1        0.0401
     19 C          -2.2070    4.2460   24.3054 C.ar    1  UNL1        0.0223
     20 C          -1.8047    3.5776   23.0240 C.ar    1  UNL1        0.0815
     21 N          -2.8199    3.3583   21.9417 N.ar    1  UNL1       -0.2407
     22 C          -4.2372    3.8072   22.1407 C.ar    1  UNL1        0.1356
     23 C          -7.1672    4.2612   22.8613 C.3     1  UNL1        0.2525
     24 O          -6.0568    4.9244   23.6209 O.3     1  UNL1       -0.4699
     25 C           3.5729   -0.4068   19.8254 C.3     1  UNL1        0.0495
     26 C           2.1890    0.1350   19.6226 C.3     1  UNL1        0.0376
     27 C           1.6371   -0.9439   20.5065 C.3     1  UNL1        0.0059
     28 C           2.7409    1.2138   18.7386 C.3     1  UNL1        0.0059
     29 C           0.8049    0.6767   19.4197 C.2     1  UNL1        0.0500
     30 O           0.4689    1.4246   18.1636 O.co2   1  UNL1       -0.5492
     31 O          -0.2429    0.4707   20.4730 O.co2   1  UNL1       -0.5492
     32 S           4.5656   -3.2977   20.9685 S.3     1  UNL1       -0.1142
     33 C           5.0289   -3.3073   19.5418 C.3     1  UNL1        0.0434
     34 C           3.6691   -3.7643   19.1034 C.3     1  UNL1        0.0112
     35 C           6.3886   -2.8503   19.9804 C.3     1  UNL1        0.0112
     36 C           5.4922   -3.3169   18.1152 C.3     1  UNL1        0.0112
     37 O           6.3518   -3.2603   26.5899 O.3     1  UNL1       -0.4690
     38 C           7.7478   -3.7936   26.4600 C.3     1  UNL1        0.2508
     39 C           8.0130   -5.0022   25.6121 C.ar    1  UNL1        0.1026
     40 C           7.5829   -6.3592   26.0849 C.ar    1  UNL1        0.0185
     41 C           7.8482   -7.5678   25.2370 C.ar    1  UNL1        0.0029
     42 C           8.5436   -7.4194   23.9162 C.ar    1  UNL1        0.0207
     43 C           8.9737   -6.0624   23.4434 C.ar    1  UNL1        0.0986
     44 N           8.7084   -4.8538   24.2913 N.ar    1  UNL1       -0.2445
@<TRIPOS>UNITY_ATOM_ATTR
30 1
charge -1
@<TRIPOS>BOND
     1    23    24    1
     2    24    17    1
     3    17    18   ar
     4    18    19   ar
     5    19    20   ar
     6    20    11    1
     7    11    12   ar
     8    12    13   ar
     9    13    14   ar
    10    14    10    1
    11    10     1    1
    12     1     2   ar
    13     2    25    1
    14    25    26    1
    15    26    27    1
    16    26    28    1
    17    26    29    1
    18    29    30   ar
    19    29    31   ar
    20     2     3   ar
    21     3    32    1
    22    32    33    1
    23    33    34    1
    24    33    35    1
    25    33    36    1
    26     3     4   ar
    27     4     5   ar
    28     5     6   ar
    29     6    37    1
    30    37    38    1
    31    38    39    1
    32    39    40   ar
    33    40    41   ar
    34    41    42   ar
    35    42    43   ar
    36    43    44   ar
    37     6     7   ar
    38     7     8   ar
    39     8     9   ar
    40    14    15   ar
    41    15    16   ar
    42    20    21   ar
    43    21    22   ar
    44    22    17   ar
    45    16    11   ar
    46     9     1   ar
    47     9     4   ar
    48    44    39   ar
@<TRIPOS>MOLECULE
*****
 44 48 0 0 0
SMALL
GASTEIGER

@<TRIPOS>ATOM
      1 N           4.9759    0.4032   21.4760 N.ar    1  UNL1       -0.3260
      2 C           4.8539   -0.6962   20.4629 C.ar    1  UNL1        0.0433
      3 C           5.6554   -1.8667   20.9503 C.ar    1  UNL1        0.0383
      4 C           6.2727   -1.4907   22.2647 C.ar    1  UNL1        0.0256
      5 C           7.1630   -2.2444   23.2076 C.ar    1  UNL1        0.0389
      6 C           7.6333   -1.5953   24.4755 C.ar    1  UNL1        0.1392
      7 C           7.2133   -0.1924   24.8003 C.ar    1  UNL1        0.0384
      8 C           6.3231    0.5613   23.8574 C.ar    1  UNL1        0.0203
      9 C           5.8528   -0.0878   22.5896 C.ar    1  UNL1        0.0606
     10 C           4.3338    1.7561   21.3905 C.3     1  UNL1        0.1324
     11 C           0.6026    2.6290   23.7499 C.ar    1  UNL1        0.0176
     12 C           1.1726    3.6720   22.8349 C.ar    1  UNL1        0.0012
     13 C           2.4163    3.3811   22.0484 C.ar    1  UNL1       -0.0023
     14 C           3.0901    2.0471   22.1769 C.ar    1  UNL1        0.0004
     15 C           2.5201    1.0040   23.0920 C.ar    1  UNL1       -0.0023
     16 C           1.2764    1.2949   23.8784 C.ar    1  UNL1        0.0012
     17 C          -3.1285    3.5017   26.1093 C.ar    1  UNL1        0.1578
     18 C          -3.0909    3.7793   24.6356 C.ar    1  UNL1        0.0401
     19 C          -1.8472    3.4884   23.8492 C.ar    1  UNL1        0.0223
     20 C          -0.6411    2.9199   24.5363 C.ar    1  UNL1        0.0815
     21 N          -0.6787    2.6423   26.0100 N.ar    1  UNL1       -0.2407
     22 C          -1.9224    2.9332   26.7964 C.ar    1  UNL1        0.1356
     23 C          -4.9382    5.1815   26.9174 C.3     1  UNL1        0.2525
     24 O          -4.3722    3.7926   26.8957 O.3     1  UNL1       -0.4699
     25 C           4.0684   -0.6358   19.1864 C.3     1  UNL1        0.0495
     26 C           2.6355   -0.1928   19.2079 C.3     1  UNL1        0.0376
     27 C           2.9535    0.8843   18.2136 C.3     1  UNL1        0.0059
     28 C           2.3174   -1.2700   20.2021 C.3     1  UNL1        0.0059
     29 C           1.2025    0.2502   19.2293 C.2     1  UNL1        0.0500
     30 O           0.6499    1.0573   18.0921 O.co2   1  UNL1       -0.5492
     31 O           0.3221   -0.1140   20.3879 O.co2   1  UNL1       -0.5492
     32 S           5.8121   -3.1822   20.2469 S.3     1  UNL1       -0.1142
     33 C           4.6077   -4.0320   19.9684 C.3     1  UNL1        0.0434
     34 C           4.8784   -3.9332   18.4964 C.3     1  UNL1        0.0112
     35 C           4.3370   -4.1307   21.4405 C.3     1  UNL1        0.0112
     36 C           3.4033   -4.8816   19.6900 C.3     1  UNL1        0.0112
     37 O           8.5236   -2.3491   25.4185 O.3     1  UNL1       -0.4690
     38 C           7.9411   -3.3859   26.3327 C.3     1  UNL1        0.2508
     39 C           7.9211   -4.8268   25.9164 C.ar    1  UNL1        0.1026
     40 C           8.5996   -5.2504   24.6475 C.ar    1  UNL1        0.0185
     41 C           8.5796   -6.6914   24.2313 C.ar    1  UNL1        0.0029
     42 C           7.8811   -7.7087   25.0839 C.ar    1  UNL1        0.0207
     43 C           7.2025   -7.2851   26.3528 C.ar    1  UNL1        0.0986
     44 N           7.2225   -5.8442   26.7691 N.ar    1  UNL1       -0.2445
@<TRIPOS>UNITY_ATOM_ATTR
30 1
charge -1
@<TRIPOS>BOND
     1    23    24    1
     2    24    17    1
     3    17    18   ar
     4    18    19   ar
     5    19    20   ar
     6    20    11    1
     7    11    12   ar
     8    12    13   ar
     9    13    14   ar
    10    14    10    1
    11    10     1    1
    12     1     2   ar
    13     2    25    1
    14    25    26    1
    15    26    27    1
    16    26    28    1
    17    26    29    1
    18    29    30   ar
    19    29    31   ar
    20     2     3   ar
    21     3    32    1
    22    32    33    1
    23    33    34    1
    24    33    35    1
    25    33    36    1
    26     3     4   ar
    27     4     5   ar
    28     5     6   ar
    29     6    37    1
    30    37    38    1
    31    38    39    1
    32    39    40   ar
    33    40    41   ar
    34    41    42   ar
    35    42    43   ar
    36    43    44   ar
    37     6     7   ar
    38     7     8   ar
    39     8     9   ar
    40    14    15   ar
    41    15    16   ar
    42    20    21   ar
    43    21    22   ar
    44    22    17   ar
    45    16    11   ar
    46     9     1   ar
    47     9     4   ar
    48    44    39   ar
@<TRIPOS>MOLECULE
*****
 44 48 0 0 0
SMALL
GASTEIGER

@<TRIPOS>ATOM
      1 N           4.1663    0.5436   22.3763 N.ar    1  UNL1       -0.3260
      2 C           4.1071   -0.4848   21.2860 C.ar    1  UNL1        0.0433
      3 C           4.5634   -1.7940   21.8585 C.ar    1  UNL1        0.0383
      4 C           4.9044   -1.5747   23.3027 C.ar    1  UNL1        0.0256
      5 C           5.4068   -2.5039   24.3676 C.ar    1  UNL1        0.0389
      6 C           5.6637   -1.9884   25.7526 C.ar    1  UNL1        0.1392
      7 C           5.4183   -0.5436   26.0726 C.ar    1  UNL1        0.0384
      8 C           4.9160    0.3856   25.0076 C.ar    1  UNL1        0.0203
      9 C           4.6590   -0.1299   23.6227 C.ar    1  UNL1        0.0606
     10 C           3.7974    1.9915   22.2435 C.3     1  UNL1        0.1324
     11 C          -0.5332    3.2071   22.1098 C.ar    1  UNL1        0.0176
     12 C           0.4599    3.8686   21.2008 C.ar    1  UNL1        0.0012
     13 C           1.9034    3.4634   21.2454 C.ar    1  UNL1       -0.0023
     14 C           2.3539    2.3967   22.1989 C.ar    1  UNL1        0.0004
     15 C           1.3608    1.7352   23.1079 C.ar    1  UNL1       -0.0023
     16 C          -0.0828    2.1404   23.0634 C.ar    1  UNL1        0.0012
     17 C          -4.8638    4.4227   21.9761 C.ar    1  UNL1        0.1578
     18 C          -3.9405    5.0465   22.9803 C.ar    1  UNL1        0.0401
     19 C          -2.4969    4.6413   23.0249 C.ar    1  UNL1        0.0223
     20 C          -1.9767    3.6123   22.0652 C.ar    1  UNL1        0.0815
     21 N          -2.9002    2.9886   21.0611 N.ar    1  UNL1       -0.2407
     22 C          -4.3437    3.3938   21.0165 C.ar    1  UNL1        0.1356
     23 C          -7.1884    4.5967   23.1233 C.3     1  UNL1        0.2525
     24 O          -6.3074    4.8279   21.9316 O.3     1  UNL1       -0.4699
     25 C           3.6688   -0.2460   19.8715 C.3     1  UNL1        0.0495
     26 C           2.2561    0.1684   19.5839 C.3     1  UNL1        0.0376
     27 C           1.7554   -0.8812   20.5313 C.3     1  UNL1        0.0059
     28 C           2.7569    1.2180   18.6365 C.3     1  UNL1        0.0059
     29 C           0.8434    0.5828   19.2963 C.2     1  UNL1        0.0500
     30 O           0.5211    1.3203   18.0306 O.co2   1  UNL1       -0.5492
     31 O          -0.2468    0.2596   20.2745 O.co2   1  UNL1       -0.5492
     32 S           4.6613   -3.0943   21.1171 S.3     1  UNL1       -0.1142
     33 C           5.1754   -3.1174   19.7080 C.3     1  UNL1        0.0434
     34 C           3.8464   -3.6240   19.2315 C.3     1  UNL1        0.0112
     35 C           6.5043   -2.6107   20.1846 C.3     1  UNL1        0.0112
     36 C           5.6894   -3.1404   18.2991 C.3     1  UNL1        0.0112
     37 O           6.1661   -2.9176   26.8176 O.3     1  UNL1       -0.4690
     38 C           6.1295   -2.4980   28.2573 C.3     1  UNL1        0.2508
     39 C           6.4702   -3.4842   29.3348 C.ar    1  UNL1        0.1026
     40 C           6.4757   -3.0532   30.7716 C.ar    1  UNL1        0.0185
     41 C           6.8164   -4.0396   31.8492 C.ar    1  UNL1        0.0029
     42 C           7.1515   -5.4568   31.4900 C.ar    1  UNL1        0.0207
     43 C           7.1459   -5.8878   30.0533 C.ar    1  UNL1        0.0986
     44 N           6.8053   -4.9016   28.9757 N.ar    1  UNL1       -0.2445
@<TRIPOS>UNITY_ATOM_ATTR
30 1
charge -1
@<TRIPOS>BOND
     1    23    24    1
     2    24    17    1
     3    17    18   ar
     4    18    19   ar
     5    19    20   ar
     6    20    11    1
     7    11    12   ar
     8    12    13   ar
     9    13    14   ar
    10    14    10    1
    11    10     1    1
    12     1     2   ar
    13     2    25    1
    14    25    26    1
    15    26    27    1
    16    26    28    1
    17    26    29    1
    18    29    30   ar
    19    29    31   ar
    20     2     3   ar
    21     3    32    1
    22    32    33    1
    23    33    34    1
    24    33    35    1
    25    33    36    1
    26     3     4   ar
    27     4     5   ar
    28     5     6   ar
    29     6    37    1
    30    37    38    1
    31    38    39    1
    32    39    40   ar
    33    40    41   ar
    34    41    42   ar
    35    42    43   ar
    36    43    44   ar
    37     6     7   ar
    38     7     8   ar
    39     8     9   ar
    40    14    15   ar
    41    15    16   ar
    42    20    21   ar
    43    21    22   ar
    44    22    17   ar
    45    16    11   ar
    46     9     1   ar
    47     9     4   ar
    48    44    39   ar
@<TRIPOS>MOLECULE
*****
 44 48 0 0 0
SMALL
GASTEIGER

@<TRIPOS>ATOM
      1 N           5.5342    0.1032   20.1422 N.ar    1  UNL1       -0.3260
      2 C           4.3393   -0.3389   19.3505 C.ar    1  UNL1        0.0433
      3 C           3.2495    0.6717   19.5529 C.ar    1  UNL1        0.0383
      4 C           3.7708    1.7383   20.4696 C.ar    1  UNL1        0.0256
      5 C           3.1421    2.9841   21.0198 C.ar    1  UNL1        0.0389
      6 C           3.9255    3.8786   21.9342 C.ar    1  UNL1        0.1392
      7 C           5.3375    3.5273   22.2984 C.ar    1  UNL1        0.0384
      8 C           5.9662    2.2815   21.7482 C.ar    1  UNL1        0.0203
      9 C           5.1828    1.3870   20.8338 C.ar    1  UNL1        0.0606
     10 C           6.8496   -0.6127   20.2273 C.3     1  UNL1        0.1324
     11 C           7.3437   -4.0842   23.0476 C.ar    1  UNL1        0.0176
     12 C           6.5332   -2.8917   23.4608 C.ar    1  UNL1        0.0012
     13 C           6.3685   -1.7345   22.5207 C.ar    1  UNL1       -0.0023
     14 C           7.0143   -1.7698   21.1673 C.ar    1  UNL1        0.0004
     15 C           7.8248   -2.9625   20.7541 C.ar    1  UNL1       -0.0023
     16 C           7.9896   -4.1197   21.6941 C.ar    1  UNL1        0.0012
     17 C           7.8380   -7.5558   25.8678 C.ar    1  UNL1        0.1578
     18 C           8.4367   -7.6148   24.4937 C.ar    1  UNL1        0.0401
     19 C           8.2719   -6.4576   23.5536 C.ar    1  UNL1        0.0223
     20 C           7.5085   -5.2414   23.9876 C.ar    1  UNL1        0.0815
     21 N           6.9098   -5.1826   25.3617 N.ar    1  UNL1       -0.2407
     22 C           7.0746   -6.3397   26.3018 C.ar    1  UNL1        0.1356
     23 C           8.8627   -8.5711   28.0285 C.3     1  UNL1        0.2525
     24 O           8.0027   -8.7130   26.8078 O.3     1  UNL1       -0.4699
     25 C           4.2500   -1.5746   18.5049 C.3     1  UNL1        0.0495
     26 C           4.3631   -2.9284   19.1408 C.3     1  UNL1        0.0376
     27 C           3.3180   -2.5437   20.1456 C.3     1  UNL1        0.0059
     28 C           5.4082   -3.3131   18.1360 C.3     1  UNL1        0.0059
     29 C           4.4762   -4.2822   19.7768 C.2     1  UNL1        0.0500
     30 O           4.7117   -5.4939   18.9246 O.co2   1  UNL1       -0.5492
     31 O           4.3538   -4.4243   21.2651 O.co2   1  UNL1       -0.5492
     32 S           1.8789    0.6239   18.9452 S.3     1  UNL1       -0.1142
     33 C           0.7218    1.2643   19.6532 C.3     1  UNL1        0.0434
     34 C           0.7341    0.1619   20.6703 C.3     1  UNL1        0.0112
     35 C           0.7096    2.3667   18.6361 C.3     1  UNL1        0.0112
     36 C          -0.4352    1.9047   20.3611 C.3     1  UNL1        0.0112
     37 O           3.2968    5.1245   22.4844 O.3     1  UNL1       -0.4690
     38 C           2.3334    5.0351   23.6307 C.3     1  UNL1        0.2508
     39 C           1.9857    3.6984   24.2156 C.ar    1  UNL1        0.1026
     40 C           0.7149    3.0109   23.8125 C.ar    1  UNL1        0.0185
     41 C           0.3671    1.6742   24.3975 C.ar    1  UNL1        0.0029
     42 C           1.2902    1.0249   25.3856 C.ar    1  UNL1        0.0207
     43 C           2.5610    1.7123   25.7887 C.ar    1  UNL1        0.0986
     44 N           2.9088    3.0490   25.2038 N.ar    1  UNL1       -0.2445
@<TRIPOS>UNITY_ATOM_ATTR
30 1
charge -1
@<TRIPOS>BOND
     1    23    24    1
     2    24    17    1
     3    17    18   ar
     4    18    19   ar
     5    19    20   ar
     6    20    11    1
     7    11    12   ar
     8    12    13   ar
     9    13    14   ar
    10    14    10    1
    11    10     1    1
    12     1     2   ar
    13     2    25    1
    14    25    26    1
    15    26    27    1
    16    26    28    1
    17    26    29    1
    18    29    30   ar
    19    29    31   ar
    20     2     3   ar
    21     3    32    1
    22    32    33    1
    23    33    34    1
    24    33    35    1
    25    33    36    1
    26     3     4   ar
    27     4     5   ar
    28     5     6   ar
    29     6    37    1
    30    37    38    1
    31    38    39    1
    32    39    40   ar
    33    40    41   ar
    34    41    42   ar
    35    42    43   ar
    36    43    44   ar
    37     6     7   ar
    38     7     8   ar
    39     8     9   ar
    40    14    15   ar
    41    15    16   ar
    42    20    21   ar
    43    21    22   ar
    44    22    17   ar
    45    16    11   ar
    46     9     1   ar
    47     9     4   ar
    48    44    39   ar
@<TRIPOS>MOLECULE
*****
 44 48 0 0 0
SMALL
GASTEIGER

@<TRIPOS>ATOM
      1 N           3.4116   -0.6895   19.3545 N.ar    1  UNL1       -0.3260
      2 C           4.4481    0.0952   18.6061 C.ar    1  UNL1        0.0433
      3 C           3.9287    1.4902   18.4206 C.ar    1  UNL1        0.0383
      4 C           2.5714    1.5676   19.0544 C.ar    1  UNL1        0.0256
      5 C           1.5852    2.6907   19.1804 C.ar    1  UNL1        0.0389
      6 C           0.2794    2.4667   19.8837 C.ar    1  UNL1        0.1392
      7 C          -0.0402    1.1195   20.4609 C.ar    1  UNL1        0.0384
      8 C           0.9460   -0.0036   20.3348 C.ar    1  UNL1        0.0203
      9 C           2.2518    0.2205   19.6315 C.ar    1  UNL1        0.0606
     10 C           3.5166   -2.1311   19.7554 C.3     1  UNL1        0.1324
     11 C           5.4568   -3.2452   23.6598 C.ar    1  UNL1        0.0176
     12 C           5.7216   -4.0629   22.4305 C.ar    1  UNL1        0.0012
     13 C           5.0749   -3.6915   21.1290 C.ar    1  UNL1       -0.0023
     14 C           4.1633   -2.5025   21.0568 C.ar    1  UNL1        0.0004
     15 C           3.8986   -1.6848   22.2862 C.ar    1  UNL1       -0.0023
     16 C           4.5453   -2.0561   23.5877 C.ar    1  UNL1        0.0012
     17 C           7.3970   -4.3592   27.5642 C.ar    1  UNL1        0.1578
     18 C           7.5361   -5.2608   26.3735 C.ar    1  UNL1        0.0401
     19 C           6.8894   -4.8895   25.0720 C.ar    1  UNL1        0.0223
     20 C           6.1036   -3.6165   24.9613 C.ar    1  UNL1        0.0815
     21 N           5.9645   -2.7150   26.1520 N.ar    1  UNL1       -0.2407
     22 C           6.6112   -3.0863   27.4535 C.ar    1  UNL1        0.1356
     23 C           7.3518   -5.6734   29.8049 C.3     1  UNL1        0.2525
     24 O           8.0437   -4.7305   28.8657 O.3     1  UNL1       -0.4699
     25 C           5.7714   -0.4239   18.1272 C.3     1  UNL1        0.0495
     26 C           6.7315   -1.0412   19.1004 C.3     1  UNL1        0.0376
     27 C           6.5777    0.1454   20.0049 C.3     1  UNL1        0.0059
     28 C           6.8853   -2.2279   18.1959 C.3     1  UNL1        0.0059
     29 C           7.6916   -1.6585   20.0736 C.2     1  UNL1        0.0500
     30 O           7.7114   -1.1992   21.5015 O.co2   1  UNL1       -0.5492
     31 O           8.6320   -2.7351   19.6191 O.co2   1  UNL1       -0.5492
     32 S           4.6416    2.6110   17.7237 S.3     1  UNL1       -0.1142
     33 C           5.9199    3.1540   18.2904 C.3     1  UNL1        0.0434
     34 C           6.6491    2.7330   17.0490 C.3     1  UNL1        0.0112
     35 C           5.1907    3.5750   19.5317 C.3     1  UNL1        0.0112
     36 C           7.1982    3.6971   18.8571 C.3     1  UNL1        0.0112
     37 O          -0.7070    3.5898   20.0098 O.3     1  UNL1       -0.4690
     38 C          -2.1734    3.2920   20.1145 C.3     1  UNL1        0.2508
     39 C          -2.8547    3.3386   21.4499 C.ar    1  UNL1        0.1026
     40 C          -2.0892    3.7629   22.6681 C.ar    1  UNL1        0.0185
     41 C          -2.7706    3.8095   24.0036 C.ar    1  UNL1        0.0029
     42 C          -4.2175    3.4318   24.1209 C.ar    1  UNL1        0.0207
     43 C          -4.9831    3.0076   22.9027 C.ar    1  UNL1        0.0986
     44 N          -4.3017    2.9609   21.5673 N.ar    1  UNL1       -0.2445
@<TRIPOS>UNITY_ATOM_ATTR
30 1
charge -1
@<TRIPOS>BOND
     1    23    24    1
     2    24    17    1
     3    17    18   ar
     4    18    19   ar
     5    19    20   ar
     6    20    11    1
     7    11    12   ar
     8    12    13   ar
     9    13    14   ar
    10    14    10    1
    11    10     1    1
    12     1     2   ar
    13     2    25    1
    14    25    26    1
    15    26    27    1
    16    26    28    1
    17    26    29    1
    18    29    30   ar
    19    29    31   ar
    20     2     3   ar
    21     3    32    1
    22    32    33    1
    23    33    34    1
    24    33    35    1
    25    33    36    1
    26     3     4   ar
    27     4     5   ar
    28     5     6   ar
    29     6    37    1
    30    37    38    1
    31    38    39    1
    32    39    40   ar
    33    40    41   ar
    34    41    42   ar
    35    42    43   ar
    36    43    44   ar
    37     6     7   ar
    38     7     8   ar
    39     8     9   ar
    40    14    15   ar
    41    15    16   ar
    42    20    21   ar
    43    21    22   ar
    44    22    17   ar
    45    16    11   ar
    46     9     1   ar
    47     9     4   ar
    48    44    39   ar
@<TRIPOS>MOLECULE
*****
 44 48 0 0 0
SMALL
GASTEIGER

@<TRIPOS>ATOM
      1 N           2.2058    0.5675   20.0357 N.ar    1  UNL1       -0.3260
      2 C           2.9328    1.4535   19.0680 C.ar    1  UNL1        0.0433
      3 C           2.6594    2.8783   19.4488 C.ar    1  UNL1        0.0383
      4 C           1.7635    2.8729   20.6519 C.ar    1  UNL1        0.0256
      5 C           1.1668    3.9840   21.4639 C.ar    1  UNL1        0.0389
      6 C           0.2897    3.6668   22.6386 C.ar    1  UNL1        0.1392
      7 C           0.0093    2.2386   23.0014 C.ar    1  UNL1        0.0384
      8 C           0.6061    1.1275   22.1893 C.ar    1  UNL1        0.0203
      9 C           1.4831    1.4447   21.0146 C.ar    1  UNL1        0.0606
     10 C           2.2021   -0.9325   20.0262 C.3     1  UNL1        0.1324
     11 C           5.2023   -3.2058   22.4921 C.ar    1  UNL1        0.0176
     12 C           4.5799   -1.9537   23.0350 C.ar    1  UNL1        0.0012
     13 C           3.5798   -1.1959   22.2131 C.ar    1  UNL1       -0.0023
     14 C           3.2021   -1.6902   20.8482 C.ar    1  UNL1        0.0004
     15 C           3.8246   -2.9424   20.3053 C.ar    1  UNL1       -0.0023
     16 C           4.8246   -3.7002   21.1272 C.ar    1  UNL1        0.0012
     17 C           8.2025   -5.4792   24.9580 C.ar    1  UNL1        0.1578
     18 C           7.2669   -4.5114   25.6199 C.ar    1  UNL1        0.0401
     19 C           6.2668   -3.7536   24.7980 C.ar    1  UNL1        0.0223
     20 C           6.2024   -3.9636   23.3141 C.ar    1  UNL1        0.0815
     21 N           7.1380   -4.9314   22.6522 N.ar    1  UNL1       -0.2407
     22 C           8.1380   -5.6892   23.4742 C.ar    1  UNL1        0.1356
     23 C           8.9681   -6.4391   27.2476 C.3     1  UNL1        0.2525
     24 O           9.2025   -6.2370   25.7799 O.3     1  UNL1       -0.4699
     25 C           3.7837    0.9951   17.9209 C.3     1  UNL1        0.0495
     26 C           4.9235    0.0507   18.1631 C.3     1  UNL1        0.0376
     27 C           4.3702   -0.8827   17.1275 C.3     1  UNL1        0.0059
     28 C           5.4769    0.9841   19.1987 C.3     1  UNL1        0.0059
     29 C           6.0634   -0.8939   18.4052 C.2     1  UNL1        0.0500
     30 O           6.5755   -1.7535   17.2877 O.co2   1  UNL1       -0.5492
     31 O           6.6912   -0.9788   19.7649 O.co2   1  UNL1       -0.5492
     32 S           3.1890    4.0951   18.7494 S.3     1  UNL1       -0.1142
     33 C           4.6574    4.3995   18.7824 C.3     1  UNL1        0.0434
     34 C           4.7094    4.3110   17.2859 C.3     1  UNL1        0.0112
     35 C           4.6054    4.4880   20.2788 C.3     1  UNL1        0.0112
     36 C           6.1258    4.7040   18.8154 C.3     1  UNL1        0.0112
     37 O          -0.3071    4.7779   23.4508 O.3     1  UNL1       -0.4690
     38 C          -1.5452    5.4758   22.9713 C.3     1  UNL1        0.2508
     39 C          -2.6400    4.6917   22.3106 C.ar    1  UNL1        0.1026
     40 C          -3.5882    3.8800   23.1424 C.ar    1  UNL1        0.0185
     41 C          -4.6831    3.0958   22.4816 C.ar    1  UNL1        0.0029
     42 C          -4.8296    3.1235   20.9891 C.ar    1  UNL1        0.0207
     43 C          -3.8814    3.9352   20.1572 C.ar    1  UNL1        0.0986
     44 N          -2.7866    4.7193   20.8180 N.ar    1  UNL1       -0.2445
@<TRIPOS>UNITY_ATOM_ATTR
30 1
charge -1
@<TRIPOS>BOND
     1    23    24    1
     2    24    17    1
     3    17    18   ar
     4    18    19   ar
     5    19    20   ar
     6    20    11    1
     7    11    12   ar
     8    12    13   ar
     9    13    14   ar
    10    14    10    1
    11    10     1    1
    12     1     2   ar
    13     2    25    1
    14    25    26    1
    15    26    27    1
    16    26    28    1
    17    26    29    1
    18    29    30   ar
    19    29    31   ar
    20     2     3   ar
    21     3    32    1
    22    32    33    1
    23    33    34    1
    24    33    35    1
    25    33    36    1
    26     3     4   ar
    27     4     5   ar
    28     5     6   ar
    29     6    37    1
    30    37    38    1
    31    38    39    1
    32    39    40   ar
    33    40    41   ar
    34    41    42   ar
    35    42    43   ar
    36    43    44   ar
    37     6     7   ar
    38     7     8   ar
    39     8     9   ar
    40    14    15   ar
    41    15    16   ar
    42    20    21   ar
    43    21    22   ar
    44    22    17   ar
    45    16    11   ar
    46     9     1   ar
    47     9     4   ar
    48    44    39   ar
@<TRIPOS>MOLECULE
*****
 44 48 0 0 0
SMALL
GASTEIGER

@<TRIPOS>ATOM
      1 N           3.7376   -0.7617   18.7475 N.ar    1  UNL1       -0.3260
      2 C           4.6210    0.2740   18.1175 C.ar    1  UNL1        0.0433
      3 C           3.9574    1.6095   18.2788 C.ar    1  UNL1        0.0383
      4 C           2.6639    1.3993   19.0086 C.ar    1  UNL1        0.0256
      5 C           1.5922    2.3529   19.4467 C.ar    1  UNL1        0.0389
      6 C           0.3847    1.8411   20.1745 C.ar    1  UNL1        0.1392
      7 C           0.2488    0.3756   20.4642 C.ar    1  UNL1        0.0384
      8 C           1.3205   -0.5780   20.0261 C.ar    1  UNL1        0.0203
      9 C           2.5280   -0.0662   19.2983 C.ar    1  UNL1        0.0606
     10 C           4.0150   -2.2342   18.8151 C.3     1  UNL1        0.1324
     11 C           6.1118   -3.9671   22.3998 C.ar    1  UNL1        0.0176
     12 C           4.7456   -3.3659   22.5481 C.ar    1  UNL1        0.0012
     13 C           4.0466   -2.7882   21.3532 C.ar    1  UNL1       -0.0023
     14 C           4.7139   -2.8118   20.0099 C.ar    1  UNL1        0.0004
     15 C           6.0801   -3.4131   19.8617 C.ar    1  UNL1       -0.0023
     16 C           6.7791   -3.9907   21.0566 C.ar    1  UNL1        0.0012
     17 C           8.2087   -5.6999   25.9845 C.ar    1  UNL1        0.1578
     18 C           7.3221   -4.5002   26.1417 C.ar    1  UNL1        0.0401
     19 C           6.6231   -3.9225   24.9468 C.ar    1  UNL1        0.0223
     20 C           6.8107   -4.5447   23.5947 C.ar    1  UNL1        0.0815
     21 N           7.6973   -5.7444   23.4377 N.ar    1  UNL1       -0.2407
     22 C           8.3963   -6.3220   24.6326 C.ar    1  UNL1        0.1356
     23 C           8.1079   -6.8401   28.3169 C.3     1  UNL1        0.2525
     24 O           8.9076   -6.2775   27.1794 O.3     1  UNL1       -0.4699
     25 C           5.9370    0.0189   17.4443 C.3     1  UNL1        0.0495
     26 C           7.1831    0.6751   17.9604 C.3     1  UNL1        0.0376
     27 C           6.9316    0.0858   19.3167 C.3     1  UNL1        0.0059
     28 C           7.4346    1.2643   16.6042 C.3     1  UNL1        0.0059
     29 C           8.4293    1.3313   18.4766 C.2     1  UNL1        0.0500
     30 O           9.2954    0.6179   19.4722 O.co2   1  UNL1       -0.5492
     31 O           8.8095    2.7008   17.9974 O.co2   1  UNL1       -0.5492
     32 S           4.4933    2.9244   17.7952 S.3     1  UNL1       -0.1142
     33 C           4.4481    4.1275   18.6901 C.3     1  UNL1        0.0434
     34 C           3.5064    4.8013   17.7366 C.3     1  UNL1        0.0112
     35 C           5.3897    3.4536   19.6435 C.3     1  UNL1        0.0112
     36 C           4.4029    5.3305   19.5849 C.3     1  UNL1        0.0112
     37 O          -0.6871    2.7948   20.6127 O.3     1  UNL1       -0.4690
     38 C          -1.3711    3.6692   19.6040 C.3     1  UNL1        0.2508
     39 C          -2.8629    3.6184   19.4563 C.ar    1  UNL1        0.1026
     40 C          -3.7242    3.3086   20.6447 C.ar    1  UNL1        0.0185
     41 C          -5.2160    3.2578   20.4970 C.ar    1  UNL1        0.0029
     42 C          -5.8466    3.5169   19.1609 C.ar    1  UNL1        0.0207
     43 C          -4.9854    3.8267   17.9725 C.ar    1  UNL1        0.0986
     44 N          -3.4936    3.8775   18.1201 N.ar    1  UNL1       -0.2445
@<TRIPOS>UNITY_ATOM_ATTR
30 1
charge -1
@<TRIPOS>BOND
     1    23    24    1
     2    24    17    1
     3    17    18   ar
     4    18    19   ar
     5    19    20   ar
     6    20    11    1
     7    11    12   ar
     8    12    13   ar
     9    13    14   ar
    10    14    10    1
    11    10     1    1
    12     1     2   ar
    13     2    25    1
    14    25    26    1
    15    26    27    1
    16    26    28    1
    17    26    29    1
    18    29    30   ar
    19    29    31   ar
    20     2     3   ar
    21     3    32    1
    22    32    33    1
    23    33    34    1
    24    33    35    1
    25    33    36    1
    26     3     4   ar
    27     4     5   ar
    28     5     6   ar
    29     6    37    1
    30    37    38    1
    31    38    39    1
    32    39    40   ar
    33    40    41   ar
    34    41    42   ar
    35    42    43   ar
    36    43    44   ar
    37     6     7   ar
    38     7     8   ar
    39     8     9   ar
    40    14    15   ar
    41    15    16   ar
    42    20    21   ar
    43    21    22   ar
    44    22    17   ar
    45    16    11   ar
    46     9     1   ar
    47     9     4   ar
    48    44    39   ar
@<TRIPOS>MOLECULE
*****
 44 48 0 0 0
SMALL
GASTEIGER

@<TRIPOS>ATOM
      1 N           5.0160    0.1233   21.9701 N.ar    1  UNL1       -0.3260
      2 C           4.9725   -0.8506   20.8302 C.ar    1  UNL1        0.0433
      3 C           5.5954   -2.1342   21.2932 C.ar    1  UNL1        0.0383
      4 C           6.0239   -1.9536   22.7193 C.ar    1  UNL1        0.0256
      5 C           6.6938   -2.8793   23.6910 C.ar    1  UNL1        0.0389
      6 C           7.0057   -2.4097   25.0810 C.ar    1  UNL1        0.1392
      7 C           6.6476   -1.0145   25.4994 C.ar    1  UNL1        0.0384
      8 C           5.9776   -0.0888   24.5277 C.ar    1  UNL1        0.0203
      9 C           5.6658   -0.5583   23.1377 C.ar    1  UNL1        0.0606
     10 C           4.5002    1.5317   21.9467 C.3     1  UNL1        0.1324
     11 C           0.6510    2.5535   24.0416 C.ar    1  UNL1        0.0176
     12 C           1.5737    3.6474   23.5924 C.ar    1  UNL1        0.0012
     13 C           2.8568    3.3069   22.8941 C.ar    1  UNL1       -0.0023
     14 C           3.2172    1.8723   22.6450 C.ar    1  UNL1        0.0004
     15 C           2.2944    0.7783   23.0943 C.ar    1  UNL1       -0.0023
     16 C           1.0113    1.1189   23.7926 C.ar    1  UNL1        0.0012
     17 C          -3.1983    3.5752   26.1366 C.ar    1  UNL1        0.1578
     18 C          -3.0702    3.7881   24.6573 C.ar    1  UNL1        0.0401
     19 C          -1.7871    3.4475   23.9590 C.ar    1  UNL1        0.0223
     20 C          -0.6321    2.8941   24.7400 C.ar    1  UNL1        0.0815
     21 N          -0.7603    2.6812   26.2192 N.ar    1  UNL1       -0.2407
     22 C          -2.0434    3.0218   26.9176 C.ar    1  UNL1        0.1356
     23 C          -5.2532    5.1373   26.4323 C.3     1  UNL1        0.2525
     24 O          -4.4814    3.9157   26.8349 O.3     1  UNL1       -0.4699
     25 C           4.4056   -0.5873   19.4666 C.3     1  UNL1        0.0495
     26 C           3.0031   -0.0748   19.3236 C.3     1  UNL1        0.0376
     27 C           3.5138    1.1086   18.5563 C.3     1  UNL1        0.0059
     28 C           2.4925   -1.2582   20.0909 C.3     1  UNL1        0.0059
     29 C           1.6006    0.4377   19.1806 C.2     1  UNL1        0.0500
     30 O           1.2937    1.5141   18.1820 O.co2   1  UNL1       -0.5492
     31 O           0.5051   -0.1262   20.0361 O.co2   1  UNL1       -0.5492
     32 S           5.7608   -3.3798   20.4740 S.3     1  UNL1       -0.1142
     33 C           4.5536   -4.0896   19.9361 C.3     1  UNL1        0.0434
     34 C           5.0070   -3.7997   18.5360 C.3     1  UNL1        0.0112
     35 C           4.1003   -4.3794   21.3363 C.3     1  UNL1        0.0112
     36 C           3.3466   -4.7993   19.3984 C.3     1  UNL1        0.0112
     37 O           7.6757   -3.3355   26.0527 O.3     1  UNL1       -0.4690
     38 C           6.8646   -4.3492   26.8040 C.3     1  UNL1        0.2508
     39 C           6.8361   -4.3248   28.3035 C.ar    1  UNL1        0.1026
     40 C           7.0039   -5.5986   29.0776 C.ar    1  UNL1        0.0185
     41 C           6.9754   -5.5742   30.5772 C.ar    1  UNL1        0.0029
     42 C           6.7791   -4.2761   31.3026 C.ar    1  UNL1        0.0207
     43 C           6.6113   -3.0023   30.5285 C.ar    1  UNL1        0.0986
     44 N           6.6398   -3.0266   29.0290 N.ar    1  UNL1       -0.2445
@<TRIPOS>UNITY_ATOM_ATTR
30 1
charge -1
@<TRIPOS>BOND
     1    23    24    1
     2    24    17    1
     3    17    18   ar
     4    18    19   ar
     5    19    20   ar
     6    20    11    1
     7    11    12   ar
     8    12    13   ar
     9    13    14   ar
    10    14    10    1
    11    10     1    1
    12     1     2   ar
    13     2    25    1
    14    25    26    1
    15    26    27    1
    16    26    28    1
    17    26    29    1
    18    29    30   ar
    19    29    31   ar
    20     2     3   ar
    21     3    32    1
    22    32    33    1
    23    33    34    1
    24    33    35    1
    25    33    36    1
    26     3     4   ar
    27     4     5   ar
    28     5     6   ar
    29     6    37    1
    30    37    38    1
    31    38    39    1
    32    39    40   ar
    33    40    41   ar
    34    41    42   ar
    35    42    43   ar
    36    43    44   ar
    37     6     7   ar
    38     7     8   ar
    39     8     9   ar
    40    14    15   ar
    41    15    16   ar
    42    20    21   ar
    43    21    22   ar
    44    22    17   ar
    45    16    11   ar
    46     9     1   ar
    47     9     4   ar
    48    44    39   ar
