@<TRIPOS>MOLECULE
*****
 35 39 0 0 0
SMALL
GASTEIGER

@<TRIPOS>ATOM
      1 C           5.5725   -1.9475   29.2310 C.ar    1  UNL1        0.1515
      2 N           5.8750   -2.8614   28.0807 N.ar    1  UNL1       -0.2248
      3 C           6.5919   -4.0637   28.6199 C.ar    1  UNL1        0.1173
      4 C           7.1348   -5.2919   27.9517 C.ar    1  UNL1        0.0238
      5 C           7.8183   -6.3492   28.7670 C.ar    1  UNL1        0.0223
      6 C           7.9589   -6.1783   30.2506 C.ar    1  UNL1        0.1006
      7 N           7.4160   -4.9500   30.9188 N.ar    1  UNL1       -0.2248
      8 C           6.7325   -3.8927   30.1035 C.ar    1  UNL1        0.1666
      9 N           6.1025   -2.5848   30.4811 N.ar    1  UNL1       -0.2754
     10 N           3.2939   -1.5886   27.3129 N.pl3   1  UNL1       -0.3425
     11 C           3.7251   -0.4484   28.1870 C.ar    1  UNL1        0.1282
     12 N           3.0170    0.8712   28.1021 N.ar    1  UNL1       -0.2295
     13 C           3.4481    2.0113   28.9762 C.ar    1  UNL1        0.1003
     14 C           4.5874    1.8319   29.9352 C.ar    1  UNL1        0.0209
     15 C           5.2955    0.5123   30.0201 C.ar    1  UNL1        0.0074
     16 C           4.8644   -0.6279   29.1461 C.ar    1  UNL1        0.0657
     17 H           2.5461   -1.4708   26.6834 H       1  UNL1        0.1437
     18 H           3.7586   -2.4547   27.3686 H       1  UNL1        0.1437
     19 C           6.0174   -2.0145   31.8659 C.ar    1  UNL1        0.0667
     20 C           7.2180   -1.3605   32.4827 C.ar    1  UNL1        0.0173
     21 C           7.1330   -0.7902   33.8675 C.ar    1  UNL1       -0.0011
     22 C           5.8472   -0.8738   34.6354 C.ar    1  UNL1       -0.0025
     23 C           4.6464   -1.5278   34.0185 C.ar    1  UNL1       -0.0011
     24 C           4.7315   -2.0982   32.6338 C.ar    1  UNL1        0.0173
     25 C           5.7621   -0.3035   36.0201 C.3     1  UNL1        0.1166
     26 N           4.4230   -0.0160   36.6319 N.am    1  UNL1       -0.2969
     27 C           4.2563    1.1538   37.5560 C.2     1  UNL1        0.2461
     28 O           5.4286    2.0359   37.8682 O.2     1  UNL1       -0.2701
     29 H           3.6536   -0.5950   36.4269 H       1  UNL1        0.1501
     30 C           2.9172    1.4413   38.1677 C.ar    1  UNL1        0.0534
     31 C           2.2479    2.7610   37.9215 C.ar    1  UNL1        0.0045
     32 C           0.9088    3.0485   38.5332 C.ar    1  UNL1        0.0001
     33 C           0.2391    2.0163   39.3912 C.ar    1  UNL1        0.0000
     34 C           0.9084    0.6967   39.6375 C.ar    1  UNL1        0.0001
     35 C           2.2475    0.4092   39.0257 C.ar    1  UNL1        0.0045
@<TRIPOS>BOND
     1    10    11    1
     2    11    12   ar
     3    12    13   ar
     4    13    14   ar
     5    14    15   ar
     6    15    16   ar
     7    16     1    1
     8     1     2   ar
     9     2     3   ar
    10     3     4   ar
    11     4     5   ar
    12     5     6   ar
    13     6     7   ar
    14     7     8   ar
    15     8     9   ar
    16     9    19    1
    17    19    20   ar
    18    20    21   ar
    19    21    22   ar
    20    22    25    1
    21    25    26    1
    22    26    27   am
    23    27    28    2
    24    27    30    1
    25    30    31   ar
    26    31    32   ar
    27    32    33   ar
    28    33    34   ar
    29    34    35   ar
    30    22    23   ar
    31    23    24   ar
    32    16    11   ar
    33     9     1   ar
    34    24    19   ar
    35     8     3   ar
    36    35    30   ar
    37    10    17    1
    38    10    18    1
    39    26    29    1
@<TRIPOS>MOLECULE
*****
 35 39 0 0 0
SMALL
GASTEIGER

@<TRIPOS>ATOM
      1 C           3.7683   -0.0593   29.3627 C.ar    1  UNL1        0.1515
      2 N           3.9563   -0.4182   27.9185 N.ar    1  UNL1       -0.2248
      3 C           5.1600   -1.3071   27.8145 C.ar    1  UNL1        0.1173
      4 C           5.8217   -1.9676   26.6416 C.ar    1  UNL1        0.0238
      5 C           7.0394   -2.8186   26.8486 C.ar    1  UNL1        0.0223
      6 C           7.5955   -3.0091   28.2286 C.ar    1  UNL1        0.1006
      7 N           6.9339   -2.3485   29.4016 N.ar    1  UNL1       -0.2248
      8 C           5.7161   -1.4975   29.1946 C.ar    1  UNL1        0.1666
      9 N           4.8560   -0.7264   30.1514 N.ar    1  UNL1       -0.2754
     10 N           0.8928   -0.6818   28.7766 N.pl3   1  UNL1       -0.3425
     11 C           1.2455    0.5022   29.6274 C.ar    1  UNL1        0.1282
     12 N           0.1605    1.3749   30.1851 N.ar    1  UNL1       -0.2295
     13 C           0.5132    2.5589   31.0358 C.ar    1  UNL1        0.1003
     14 C           1.9509    2.8701   31.3289 C.ar    1  UNL1        0.0209
     15 C           3.0360    1.9974   30.7712 C.ar    1  UNL1        0.0074
     16 C           2.6833    0.8134   29.9204 C.ar    1  UNL1        0.0657
     17 H          -0.0509   -0.8861   28.5842 H       1  UNL1        0.1437
     18 H           1.6049   -1.2546   28.4106 H       1  UNL1        0.1437
     19 C           5.0496   -0.6378   31.6362 C.ar    1  UNL1        0.0667
     20 C           6.0381    0.3352   32.2070 C.ar    1  UNL1        0.0173
     21 C           6.2317    0.4237   33.6918 C.ar    1  UNL1       -0.0011
     22 C           5.4368   -0.4609   34.6059 C.ar    1  UNL1       -0.0025
     23 C           4.4482   -1.4340   34.0351 C.ar    1  UNL1       -0.0011
     24 C           4.2546   -1.5225   32.5503 C.ar    1  UNL1        0.0173
     25 C           5.6304   -0.3723   36.0907 C.3     1  UNL1        0.1166
     26 N           4.4558   -0.1095   36.9859 N.am    1  UNL1       -0.2969
     27 C           3.8587    1.2648   37.0554 C.2     1  UNL1        0.2461
     28 O           4.4360    2.3761   36.2298 O.2     1  UNL1       -0.2701
     29 H           4.0769   -0.8389   37.5277 H       1  UNL1        0.1501
     30 C           2.6841    1.5277   37.9506 C.ar    1  UNL1        0.0534
     31 C           2.0039    2.8644   37.9223 C.ar    1  UNL1        0.0045
     32 C           0.8293    3.1272   38.8175 C.ar    1  UNL1        0.0001
     33 C           0.3350    2.0534   39.7409 C.ar    1  UNL1        0.0000
     34 C           1.0152    0.7168   39.7691 C.ar    1  UNL1        0.0001
     35 C           2.1897    0.4539   38.8739 C.ar    1  UNL1        0.0045
@<TRIPOS>BOND
     1    10    11    1
     2    11    12   ar
     3    12    13   ar
     4    13    14   ar
     5    14    15   ar
     6    15    16   ar
     7    16     1    1
     8     1     2   ar
     9     2     3   ar
    10     3     4   ar
    11     4     5   ar
    12     5     6   ar
    13     6     7   ar
    14     7     8   ar
    15     8     9   ar
    16     9    19    1
    17    19    20   ar
    18    20    21   ar
    19    21    22   ar
    20    22    25    1
    21    25    26    1
    22    26    27   am
    23    27    28    2
    24    27    30    1
    25    30    31   ar
    26    31    32   ar
    27    32    33   ar
    28    33    34   ar
    29    34    35   ar
    30    22    23   ar
    31    23    24   ar
    32    16    11   ar
    33     9     1   ar
    34    24    19   ar
    35     8     3   ar
    36    35    30   ar
    37    10    17    1
    38    10    18    1
    39    26    29    1
@<TRIPOS>MOLECULE
*****
 35 39 0 0 0
SMALL
GASTEIGER

@<TRIPOS>ATOM
      1 C           3.5421    1.2367   33.7292 C.ar    1  UNL1        0.1515
      2 N           2.3049    2.0571   33.5144 N.ar    1  UNL1       -0.2248
      3 C           1.7323    1.6912   32.1772 C.ar    1  UNL1        0.1173
      4 C           0.5207    2.1758   31.4375 C.ar    1  UNL1        0.0238
      5 C           0.1925    1.6137   30.0861 C.ar    1  UNL1        0.0223
      6 C           1.0759    0.5671   29.4743 C.ar    1  UNL1        0.1006
      7 N           2.2875    0.0826   30.2140 N.ar    1  UNL1       -0.2248
      8 C           2.6157    0.6446   31.5654 C.ar    1  UNL1        0.1666
      9 N           3.7342    0.3637   32.5246 N.ar    1  UNL1       -0.2754
     10 N           4.8072    3.8252   34.5654 N.pl3   1  UNL1       -0.3425
     11 C           5.0637    2.5756   35.3546 C.ar    1  UNL1        0.1282
     12 N           5.9527    2.6204   36.5619 N.ar    1  UNL1       -0.2295
     13 C           6.2092    1.3709   37.3512 C.ar    1  UNL1        0.1003
     14 C           5.5767    0.0766   36.9331 C.ar    1  UNL1        0.0209
     15 C           4.6876    0.0319   35.7257 C.ar    1  UNL1        0.0074
     16 C           4.4311    1.2814   34.9365 C.ar    1  UNL1        0.0657
     17 H           5.2224    4.6747   34.8398 H       1  UNL1        0.1437
     18 H           4.2237    3.7959   33.7730 H       1  UNL1        0.1437
     19 C           4.8491   -0.6178   32.3159 C.ar    1  UNL1        0.0667
     20 C           4.6464   -2.0656   32.6514 C.ar    1  UNL1        0.0173
     21 C           5.7613   -3.0472   32.4426 C.ar    1  UNL1       -0.0011
     22 C           7.0790   -2.5809   31.8983 C.ar    1  UNL1       -0.0025
     23 C           7.2818   -1.1331   31.5628 C.ar    1  UNL1       -0.0011
     24 C           6.1669   -0.1515   31.7716 C.ar    1  UNL1        0.0173
     25 C           8.1938   -3.5625   31.6896 C.3     1  UNL1        0.1166
     26 N           8.3221   -4.2847   30.3812 N.am    1  UNL1       -0.2969
     27 C           7.6156   -5.5916   30.1736 C.2     1  UNL1        0.2461
     28 O           6.7809   -6.1761   31.2744 O.2     1  UNL1       -0.2701
     29 H           8.8699   -3.9011   29.6588 H       1  UNL1        0.1501
     30 C           7.7438   -6.3139   28.8652 C.ar    1  UNL1        0.0534
     31 C           8.6699   -7.4877   28.7441 C.ar    1  UNL1        0.0045
     32 C           8.7982   -8.2099   27.4357 C.ar    1  UNL1        0.0001
     33 C           8.0003   -7.7584   26.2485 C.ar    1  UNL1        0.0000
     34 C           7.0742   -6.5846   26.3696 C.ar    1  UNL1        0.0001
     35 C           6.9459   -5.8624   27.6780 C.ar    1  UNL1        0.0045
@<TRIPOS>BOND
     1    10    11    1
     2    11    12   ar
     3    12    13   ar
     4    13    14   ar
     5    14    15   ar
     6    15    16   ar
     7    16     1    1
     8     1     2   ar
     9     2     3   ar
    10     3     4   ar
    11     4     5   ar
    12     5     6   ar
    13     6     7   ar
    14     7     8   ar
    15     8     9   ar
    16     9    19    1
    17    19    20   ar
    18    20    21   ar
    19    21    22   ar
    20    22    25    1
    21    25    26    1
    22    26    27   am
    23    27    28    2
    24    27    30    1
    25    30    31   ar
    26    31    32   ar
    27    32    33   ar
    28    33    34   ar
    29    34    35   ar
    30    22    23   ar
    31    23    24   ar
    32    16    11   ar
    33     9     1   ar
    34    24    19   ar
    35     8     3   ar
    36    35    30   ar
    37    10    17    1
    38    10    18    1
    39    26    29    1
@<TRIPOS>MOLECULE
*****
 35 39 0 0 0
SMALL
GASTEIGER

@<TRIPOS>ATOM
      1 C           3.1261   -0.0065   19.2649 C.ar    1  UNL1        0.1515
      2 N           2.4275    0.8676   18.2660 N.ar    1  UNL1       -0.2248
      3 C           1.9957    2.1207   18.9683 C.ar    1  UNL1        0.1173
      4 C           1.2652    3.3395   18.4880 C.ar    1  UNL1        0.0238
      5 C           0.9665    4.4588   19.4409 C.ar    1  UNL1        0.0223
      6 C           1.3983    4.3593   20.8739 C.ar    1  UNL1        0.1006
      7 N           2.1288    3.1404   21.3541 N.ar    1  UNL1       -0.2248
      8 C           2.4275    2.0211   20.4013 C.ar    1  UNL1        0.1666
      9 N           3.1262    0.7065   20.5846 N.ar    1  UNL1       -0.2754
     10 N           5.4873   -0.2634   17.4321 N.pl3   1  UNL1       -0.3425
     11 C           4.9009   -1.4849   18.0757 C.ar    1  UNL1        0.1282
     12 N           5.4952   -2.8349   17.8028 N.ar    1  UNL1       -0.2295
     13 C           4.9089   -4.0564   18.4463 C.ar    1  UNL1        0.1003
     14 C           3.7284   -3.9279   19.3627 C.ar    1  UNL1        0.0209
     15 C           3.1341   -2.5780   19.6356 C.ar    1  UNL1        0.0074
     16 C           3.7204   -1.3564   18.9921 C.ar    1  UNL1        0.0657
     17 H           6.2621   -0.3477   16.8306 H       1  UNL1        0.1437
     18 H           5.0973    0.6227   17.6112 H       1  UNL1        0.1437
     19 C           3.7205    0.1947   21.8632 C.ar    1  UNL1        0.0667
     20 C           2.9084   -0.6821   22.7697 C.ar    1  UNL1        0.0173
     21 C           3.5027   -1.1939   24.0483 C.ar    1  UNL1       -0.0011
     22 C           4.9092   -0.8290   24.4205 C.ar    1  UNL1       -0.0025
     23 C           5.7214    0.0478   23.5140 C.ar    1  UNL1       -0.0011
     24 C           5.1271    0.5596   22.2354 C.ar    1  UNL1        0.0173
     25 C           5.5035   -1.3408   25.6991 C.3     1  UNL1        0.1166
     26 N           5.7777   -2.8061   25.8649 N.am    1  UNL1       -0.2969
     27 C           6.9515   -3.4326   25.1721 C.2     1  UNL1        0.2461
     28 O           7.8509   -2.5937   24.3135 O.2     1  UNL1       -0.2701
     29 H           5.1874   -3.3567   26.4285 H       1  UNL1        0.1501
     30 C           7.2257   -4.8979   25.3379 C.ar    1  UNL1        0.0534
     31 C           6.8598   -5.5893   26.6179 C.ar    1  UNL1        0.0045
     32 C           7.1340   -7.0547   26.7838 C.ar    1  UNL1        0.0001
     33 C           7.7741   -7.8287   25.6696 C.ar    1  UNL1        0.0000
     34 C           8.1400   -7.1374   24.3897 C.ar    1  UNL1        0.0001
     35 C           7.8657   -5.6720   24.2238 C.ar    1  UNL1        0.0045
@<TRIPOS>BOND
     1    10    11    1
     2    11    12   ar
     3    12    13   ar
     4    13    14   ar
     5    14    15   ar
     6    15    16   ar
     7    16     1    1
     8     1     2   ar
     9     2     3   ar
    10     3     4   ar
    11     4     5   ar
    12     5     6   ar
    13     6     7   ar
    14     7     8   ar
    15     8     9   ar
    16     9    19    1
    17    19    20   ar
    18    20    21   ar
    19    21    22   ar
    20    22    25    1
    21    25    26    1
    22    26    27   am
    23    27    28    2
    24    27    30    1
    25    30    31   ar
    26    31    32   ar
    27    32    33   ar
    28    33    34   ar
    29    34    35   ar
    30    22    23   ar
    31    23    24   ar
    32    16    11   ar
    33     9     1   ar
    34    24    19   ar
    35     8     3   ar
    36    35    30   ar
    37    10    17    1
    38    10    18    1
    39    26    29    1
@<TRIPOS>MOLECULE
*****
 35 39 0 0 0
SMALL
GASTEIGER

@<TRIPOS>ATOM
      1 C           6.1783   -2.7504   29.1748 C.ar    1  UNL1        0.1515
      2 N           5.8286   -2.6856   27.7176 N.ar    1  UNL1       -0.2248
      3 C           4.8344   -1.5785   27.5283 C.ar    1  UNL1        0.1173
      4 C           4.1359   -1.0544   26.3087 C.ar    1  UNL1        0.0238
      5 C           3.1727    0.0891   26.4293 C.ar    1  UNL1        0.0223
      6 C           2.9080    0.7085   27.7696 C.ar    1  UNL1        0.1006
      7 N           3.6064    0.1844   28.9892 N.ar    1  UNL1       -0.2248
      8 C           4.5696   -0.9591   28.8685 C.ar    1  UNL1        0.1666
      9 N           5.4002   -1.6834   29.8861 N.ar    1  UNL1       -0.2754
     10 N           9.0561   -2.7781   28.3277 N.pl3   1  UNL1       -0.3425
     11 C           8.5766   -3.7271   29.3858 C.ar    1  UNL1        0.1282
     12 N           9.5359   -4.6899   30.0202 N.ar    1  UNL1       -0.2295
     13 C           9.0564   -5.6389   31.0783 C.ar    1  UNL1        0.1003
     14 C           7.6176   -5.6251   31.5018 C.ar    1  UNL1        0.0209
     15 C           6.6582   -4.6622   30.8673 C.ar    1  UNL1        0.0074
     16 C           7.1377   -3.7133   29.8093 C.ar    1  UNL1        0.0657
     17 H          10.0005   -2.7872   28.0497 H       1  UNL1        0.1437
     18 H           8.4265   -2.1462   27.9112 H       1  UNL1        0.1437
     19 C           5.4449   -1.3918   31.3568 C.ar    1  UNL1        0.0667
     20 C           4.2586   -1.7046   32.2198 C.ar    1  UNL1        0.0173
     21 C           4.3033   -1.4131   33.6905 C.ar    1  UNL1       -0.0011
     22 C           5.5342   -0.8086   34.2983 C.ar    1  UNL1       -0.0025
     23 C           6.7205   -0.4958   33.4353 C.ar    1  UNL1       -0.0011
     24 C           6.6759   -0.7874   31.9646 C.ar    1  UNL1        0.0173
     25 C           5.5789   -0.5171   35.7690 C.3     1  UNL1        0.1166
     26 N           4.3111   -0.2194   36.5134 N.am    1  UNL1       -0.2969
     27 C           4.2065    1.0210   37.3504 C.2     1  UNL1        0.2461
     28 O           5.3696    1.9637   37.4429 O.2     1  UNL1       -0.2701
     29 H           3.5477   -0.8381   36.4527 H       1  UNL1        0.1501
     30 C           2.9387    1.3187   38.0948 C.ar    1  UNL1        0.0534
     31 C           2.2598    2.6448   37.9196 C.ar    1  UNL1        0.0045
     32 C           0.9920    2.9425   38.6640 C.ar    1  UNL1        0.0001
     33 C           0.4032    1.9141   39.5836 C.ar    1  UNL1        0.0000
     34 C           1.0821    0.5880   39.7588 C.ar    1  UNL1        0.0001
     35 C           2.3498    0.2904   39.0144 C.ar    1  UNL1        0.0045
@<TRIPOS>BOND
     1    10    11    1
     2    11    12   ar
     3    12    13   ar
     4    13    14   ar
     5    14    15   ar
     6    15    16   ar
     7    16     1    1
     8     1     2   ar
     9     2     3   ar
    10     3     4   ar
    11     4     5   ar
    12     5     6   ar
    13     6     7   ar
    14     7     8   ar
    15     8     9   ar
    16     9    19    1
    17    19    20   ar
    18    20    21   ar
    19    21    22   ar
    20    22    25    1
    21    25    26    1
    22    26    27   am
    23    27    28    2
    24    27    30    1
    25    30    31   ar
    26    31    32   ar
    27    32    33   ar
    28    33    34   ar
    29    34    35   ar
    30    22    23   ar
    31    23    24   ar
    32    16    11   ar
    33     9     1   ar
    34    24    19   ar
    35     8     3   ar
    36    35    30   ar
    37    10    17    1
    38    10    18    1
    39    26    29    1
@<TRIPOS>MOLECULE
*****
 35 39 0 0 0
SMALL
GASTEIGER

@<TRIPOS>ATOM
      1 C           3.0159    1.5802   33.2998 C.ar    1  UNL1        0.1515
      2 N           2.3173    2.5430   34.2136 N.ar    1  UNL1       -0.2248
      3 C           2.8248    2.3118   35.6061 C.ar    1  UNL1        0.1173
      4 C           2.4959    2.9653   36.9156 C.ar    1  UNL1        0.0238
      5 C           3.1792    2.5130   38.1719 C.ar    1  UNL1        0.0223
      6 C           4.1914    1.4073   38.1188 C.ar    1  UNL1        0.1006
      7 N           4.5203    0.7538   36.8093 N.ar    1  UNL1       -0.2248
      8 C           3.8370    1.2061   35.5530 C.ar    1  UNL1        0.1666
      9 N           3.9551    0.7540   34.1276 N.ar    1  UNL1       -0.2754
     10 N           0.3339    2.1931   32.1035 N.pl3   1  UNL1       -0.3425
     11 C           1.4703    1.7705   31.2202 C.ar    1  UNL1        0.1282
     12 N           1.2657    1.6543   29.7388 N.ar    1  UNL1       -0.2295
     13 C           2.4020    1.2318   28.8555 C.ar    1  UNL1        0.1003
     14 C           3.7429    0.9254   29.4537 C.ar    1  UNL1        0.0209
     15 C           3.9476    1.0415   30.9351 C.ar    1  UNL1        0.0074
     16 C           2.8113    1.4641   31.8184 C.ar    1  UNL1        0.0657
     17 H          -0.5462    2.3942   31.7108 H       1  UNL1        0.1437
     18 H           0.4682    2.2693   33.0758 H       1  UNL1        0.1437
     19 C           4.8545   -0.3335   33.6193 C.ar    1  UNL1        0.0667
     20 C           6.3100   -0.0555   33.3867 C.ar    1  UNL1        0.0173
     21 C           7.2094   -1.1430   32.8784 C.ar    1  UNL1       -0.0011
     22 C           6.6534   -2.5086   32.6027 C.ar    1  UNL1       -0.0025
     23 C           5.1979   -2.7867   32.8353 C.ar    1  UNL1       -0.0011
     24 C           4.2984   -1.6992   33.3436 C.ar    1  UNL1        0.0173
     25 C           7.5528   -3.5961   32.0944 C.3     1  UNL1        0.1166
     26 N           7.3430   -4.1624   30.7213 N.am    1  UNL1       -0.2969
     27 C           7.8879   -5.5169   30.3774 C.2     1  UNL1        0.2461
     28 O           8.6427   -6.3051   31.4065 O.2     1  UNL1       -0.2701
     29 H           6.8476   -3.6450   30.0459 H       1  UNL1        0.1501
     30 C           7.6781   -6.0832   29.0044 C.ar    1  UNL1        0.0534
     31 C           8.4000   -7.3309   28.5892 C.ar    1  UNL1        0.0045
     32 C           8.1902   -7.8972   27.2162 C.ar    1  UNL1        0.0001
     33 C           7.2585   -7.2157   26.2582 C.ar    1  UNL1        0.0000
     34 C           6.5366   -5.9681   26.6733 C.ar    1  UNL1        0.0001
     35 C           6.7465   -5.4018   28.0464 C.ar    1  UNL1        0.0045
@<TRIPOS>BOND
     1    10    11    1
     2    11    12   ar
     3    12    13   ar
     4    13    14   ar
     5    14    15   ar
     6    15    16   ar
     7    16     1    1
     8     1     2   ar
     9     2     3   ar
    10     3     4   ar
    11     4     5   ar
    12     5     6   ar
    13     6     7   ar
    14     7     8   ar
    15     8     9   ar
    16     9    19    1
    17    19    20   ar
    18    20    21   ar
    19    21    22   ar
    20    22    25    1
    21    25    26    1
    22    26    27   am
    23    27    28    2
    24    27    30    1
    25    30    31   ar
    26    31    32   ar
    27    32    33   ar
    28    33    34   ar
    29    34    35   ar
    30    22    23   ar
    31    23    24   ar
    32    16    11   ar
    33     9     1   ar
    34    24    19   ar
    35     8     3   ar
    36    35    30   ar
    37    10    17    1
    38    10    18    1
    39    26    29    1
@<TRIPOS>MOLECULE
*****
 35 39 0 0 0
SMALL
GASTEIGER

@<TRIPOS>ATOM
      1 C           2.4817   -0.0216   29.9854 C.ar    1  UNL1        0.1515
      2 N           2.4476   -0.2412   31.4689 N.ar    1  UNL1       -0.2248
      3 C           3.7431   -0.8803   31.8728 C.ar    1  UNL1        0.1173
      4 C           4.2705   -1.3252   33.2046 C.ar    1  UNL1        0.0238
      5 C           5.6326   -1.9455   33.3027 C.ar    1  UNL1        0.0223
      6 C           6.4675   -2.1209   32.0688 C.ar    1  UNL1        0.1006
      7 N           5.9401   -1.6760   30.7370 N.ar    1  UNL1       -0.2248
      8 C           4.5779   -1.0557   30.6390 C.ar    1  UNL1        0.1666
      9 N           3.7983   -0.5250   29.4725 N.ar    1  UNL1       -0.2754
     10 N           2.7775    2.7811   28.9571 N.pl3   1  UNL1       -0.3425
     11 C           1.5386    1.9947   28.6457 C.ar    1  UNL1        0.1282
     12 N           0.4476    2.6098   27.8201 N.ar    1  UNL1       -0.2295
     13 C          -0.7912    1.8235   27.5087 C.ar    1  UNL1        0.1003
     14 C          -0.9391    0.4222   28.0229 C.ar    1  UNL1        0.0209
     15 C           0.1519   -0.1928   28.8485 C.ar    1  UNL1        0.0074
     16 C           1.3907    0.5934   29.1599 C.ar    1  UNL1        0.0657
     17 H           2.8745    3.7009   28.6196 H       1  UNL1        0.1437
     18 H           3.4935    2.3775   29.4989 H       1  UNL1        0.1437
     19 C           4.2551   -0.5018   28.0440 C.ar    1  UNL1        0.0667
     20 C           5.3868    0.3927   27.6329 C.ar    1  UNL1        0.0173
     21 C           5.8437    0.4159   26.2043 C.ar    1  UNL1       -0.0011
     22 C           5.1688   -0.4554   25.1868 C.ar    1  UNL1       -0.0025
     23 C           4.0370   -1.3499   25.5979 C.ar    1  UNL1       -0.0011
     24 C           3.5802   -1.3731   27.0264 C.ar    1  UNL1        0.0173
     25 C           5.6256   -0.4321   23.7583 C.3     1  UNL1        0.1166
     26 N           4.7065    0.0710   22.6850 N.am    1  UNL1       -0.2969
     27 C           3.9226   -0.9002   21.8529 C.2     1  UNL1        0.2461
     28 O           4.0579   -2.3744   22.0941 O.2     1  UNL1       -0.2701
     29 H           4.6177    1.0387   22.5267 H       1  UNL1        0.1501
     30 C           3.0034   -0.3970   20.7796 C.ar    1  UNL1        0.0534
     31 C           3.5367   -0.1176   19.4056 C.ar    1  UNL1        0.0045
     32 C           2.6176    0.3855   18.3323 C.ar    1  UNL1        0.0001
     33 C           1.1651    0.6094   18.6330 C.ar    1  UNL1        0.0000
     34 C           0.6319    0.3301   20.0069 C.ar    1  UNL1        0.0001
     35 C           1.5510   -0.1731   21.0802 C.ar    1  UNL1        0.0045
@<TRIPOS>BOND
     1    10    11    1
     2    11    12   ar
     3    12    13   ar
     4    13    14   ar
     5    14    15   ar
     6    15    16   ar
     7    16     1    1
     8     1     2   ar
     9     2     3   ar
    10     3     4   ar
    11     4     5   ar
    12     5     6   ar
    13     6     7   ar
    14     7     8   ar
    15     8     9   ar
    16     9    19    1
    17    19    20   ar
    18    20    21   ar
    19    21    22   ar
    20    22    25    1
    21    25    26    1
    22    26    27   am
    23    27    28    2
    24    27    30    1
    25    30    31   ar
    26    31    32   ar
    27    32    33   ar
    28    33    34   ar
    29    34    35   ar
    30    22    23   ar
    31    23    24   ar
    32    16    11   ar
    33     9     1   ar
    34    24    19   ar
    35     8     3   ar
    36    35    30   ar
    37    10    17    1
    38    10    18    1
    39    26    29    1
@<TRIPOS>MOLECULE
*****
 35 39 0 0 0
SMALL
GASTEIGER

@<TRIPOS>ATOM
      1 C           1.1452    1.7156   22.5218 C.ar    1  UNL1        0.1515
      2 N          -0.1101    2.3508   23.0423 N.ar    1  UNL1       -0.2248
      3 C          -0.1632    2.1263   24.5244 C.ar    1  UNL1        0.1173
      4 C          -1.1667    2.5265   25.5649 C.ar    1  UNL1        0.0238
      5 C          -0.9477    2.1529   27.0010 C.ar    1  UNL1        0.0223
      6 C           0.2748    1.3790   27.3966 C.ar    1  UNL1        0.1006
      7 N           1.2784    0.9787   26.3561 N.ar    1  UNL1       -0.2248
      8 C           1.0594    1.3524   24.9200 C.ar    1  UNL1        0.1666
      9 N           1.8679    1.0986   23.6824 N.ar    1  UNL1       -0.2754
     10 N          -0.2139   -0.0771   20.5370 N.pl3   1  UNL1       -0.3425
     11 C           0.9186    0.8040   20.0996 C.ar    1  UNL1        0.1282
     12 N           1.3716    0.7886   18.6697 N.ar    1  UNL1       -0.2295
     13 C           2.5041    1.6695   18.2322 C.ar    1  UNL1        0.1003
     14 C           3.1835    2.5658   19.2246 C.ar    1  UNL1        0.0209
     15 C           2.7306    2.5812   20.6544 C.ar    1  UNL1        0.0074
     16 C           1.5981    1.7003   21.0919 C.ar    1  UNL1        0.0657
     17 H          -0.6598   -0.6654   19.8857 H       1  UNL1        0.1437
     18 H          -0.5112   -0.0670   21.4755 H       1  UNL1        0.1437
     19 C           3.1706    0.3578   23.6168 C.ar    1  UNL1        0.0667
     20 C           4.4437    1.0423   24.0175 C.ar    1  UNL1        0.0173
     21 C           5.7464    0.3016   23.9519 C.ar    1  UNL1       -0.0011
     22 C           5.7760   -1.1238   23.4856 C.ar    1  UNL1       -0.0025
     23 C           4.5029   -1.8084   23.0848 C.ar    1  UNL1       -0.0011
     24 C           3.2002   -1.0676   23.1504 C.ar    1  UNL1        0.0173
     25 C           7.0786   -1.8645   23.4200 C.3     1  UNL1        0.1166
     26 N           7.3273   -3.0269   24.3348 N.am    1  UNL1       -0.2969
     27 C           7.2851   -4.4267   23.7974 C.2     1  UNL1        0.2461
     28 O           6.9941   -4.6641   22.3452 O.2     1  UNL1       -0.2701
     29 H           7.5183   -2.8711   25.2880 H       1  UNL1        0.1501
     30 C           7.5337   -5.5891   24.7123 C.ar    1  UNL1        0.0534
     31 C           6.9965   -5.5697   26.1127 C.ar    1  UNL1        0.0045
     32 C           7.2452   -6.7321   27.0276 C.ar    1  UNL1        0.0001
     33 C           8.0311   -7.9139   26.5420 C.ar    1  UNL1        0.0000
     34 C           8.5683   -7.9333   25.1417 C.ar    1  UNL1        0.0001
     35 C           8.3197   -6.7709   24.2268 C.ar    1  UNL1        0.0045
@<TRIPOS>BOND
     1    10    11    1
     2    11    12   ar
     3    12    13   ar
     4    13    14   ar
     5    14    15   ar
     6    15    16   ar
     7    16     1    1
     8     1     2   ar
     9     2     3   ar
    10     3     4   ar
    11     4     5   ar
    12     5     6   ar
    13     6     7   ar
    14     7     8   ar
    15     8     9   ar
    16     9    19    1
    17    19    20   ar
    18    20    21   ar
    19    21    22   ar
    20    22    25    1
    21    25    26    1
    22    26    27   am
    23    27    28    2
    24    27    30    1
    25    30    31   ar
    26    31    32   ar
    27    32    33   ar
    28    33    34   ar
    29    34    35   ar
    30    22    23   ar
    31    23    24   ar
    32    16    11   ar
    33     9     1   ar
    34    24    19   ar
    35     8     3   ar
    36    35    30   ar
    37    10    17    1
    38    10    18    1
    39    26    29    1
@<TRIPOS>MOLECULE
*****
 35 39 0 0 0
SMALL
GASTEIGER

@<TRIPOS>ATOM
      1 C           2.4622   -0.1291   29.8993 C.ar    1  UNL1        0.1515
      2 N           2.5106   -0.5159   31.3478 N.ar    1  UNL1       -0.2248
      3 C           3.8413   -1.1555   31.6125 C.ar    1  UNL1        0.1173
      4 C           4.4483   -1.7313   32.8575 C.ar    1  UNL1        0.0238
      5 C           5.8292   -2.3156   32.8177 C.ar    1  UNL1        0.0223
      6 C           6.6031   -2.3242   31.5328 C.ar    1  UNL1        0.1006
      7 N           5.9962   -1.7484   30.2878 N.ar    1  UNL1       -0.2248
      8 C           4.6153   -1.1641   30.3277 C.ar    1  UNL1        0.1666
      9 N           3.7629   -0.5297   29.2689 N.ar    1  UNL1       -0.2754
     10 N           2.5426    2.8237   29.3754 N.pl3   1  UNL1       -0.3425
     11 C           1.3547    2.0171   28.9416 C.ar    1  UNL1        0.1282
     12 N           0.2070    2.6869   28.2457 N.ar    1  UNL1       -0.2295
     13 C          -0.9809    1.8803   27.8119 C.ar    1  UNL1        0.1003
     14 C          -1.0211    0.4039   28.0738 C.ar    1  UNL1        0.0209
     15 C           0.1266   -0.2659   28.7696 C.ar    1  UNL1        0.0074
     16 C           1.3145    0.5407   29.2035 C.ar    1  UNL1        0.0657
     17 H           2.5690    3.7927   29.2035 H       1  UNL1        0.1437
     18 H           3.2959    2.3841   29.8321 H       1  UNL1        0.1437
     19 C           4.1444   -0.3309   27.8319 C.ar    1  UNL1        0.0667
     20 C           4.8704    0.9132   27.4138 C.ar    1  UNL1        0.0173
     21 C           5.2519    1.1120   25.9768 C.ar    1  UNL1       -0.0011
     22 C           4.9073    0.0666   24.9578 C.ar    1  UNL1       -0.0025
     23 C           4.1813   -1.1776   25.3758 C.ar    1  UNL1       -0.0011
     24 C           3.7998   -1.3764   26.8128 C.ar    1  UNL1        0.0173
     25 C           5.2888    0.2654   23.5208 C.3     1  UNL1        0.1166
     26 N           4.8211   -0.7074   22.4792 N.am    1  UNL1       -0.2969
     27 C           5.7962   -1.6565   21.8479 C.2     1  UNL1        0.2461
     28 O           7.2388   -1.6327   22.2582 O.2     1  UNL1       -0.2701
     29 H           3.8743   -0.7230   22.2099 H       1  UNL1        0.1501
     30 C           5.3286   -2.6293   20.8062 C.ar    1  UNL1        0.0534
     31 C           5.7322   -2.4454   19.3732 C.ar    1  UNL1        0.0045
     32 C           5.2646   -3.4182   18.3316 C.ar    1  UNL1        0.0001
     33 C           4.3933   -4.5749   18.7230 C.ar    1  UNL1        0.0000
     34 C           3.9897   -4.7587   20.1559 C.ar    1  UNL1        0.0001
     35 C           4.4573   -3.7859   21.1976 C.ar    1  UNL1        0.0045
@<TRIPOS>BOND
     1    10    11    1
     2    11    12   ar
     3    12    13   ar
     4    13    14   ar
     5    14    15   ar
     6    15    16   ar
     7    16     1    1
     8     1     2   ar
     9     2     3   ar
    10     3     4   ar
    11     4     5   ar
    12     5     6   ar
    13     6     7   ar
    14     7     8   ar
    15     8     9   ar
    16     9    19    1
    17    19    20   ar
    18    20    21   ar
    19    21    22   ar
    20    22    25    1
    21    25    26    1
    22    26    27   am
    23    27    28    2
    24    27    30    1
    25    30    31   ar
    26    31    32   ar
    27    32    33   ar
    28    33    34   ar
    29    34    35   ar
    30    22    23   ar
    31    23    24   ar
    32    16    11   ar
    33     9     1   ar
    34    24    19   ar
    35     8     3   ar
    36    35    30   ar
    37    10    17    1
    38    10    18    1
    39    26    29    1
