@<TRIPOS>MOLECULE
*****
 32 35 0 0 0
SMALL
GASTEIGER

@<TRIPOS>ATOM
      1 C          -6.9162  -20.1400   21.5525 C.3     1  UNL1        0.0750
      2 C          -8.4729  -19.4244   18.7751 C.3     1  UNL1        0.0497
      3 C          -8.9465  -19.0984   20.1605 C.ar    1  UNL1        0.0342
      4 C          -8.2310  -19.4273   21.4371 C.ar    1  UNL1       -0.0030
      5 C          -9.0611  -18.9184   22.5782 C.ar    1  UNL1        0.0155
      6 C          -8.8569  -18.9578   24.0637 C.ar    1  UNL1        0.0308
      7 C          -9.8814  -18.3538   24.9777 C.ar    1  UNL1        0.1402
      8 F          -9.6773  -18.3932   26.4633 F       1  UNL1       -0.2042
      9 C         -11.1100  -17.7103   24.4063 C.ar    1  UNL1        0.0311
     10 C         -11.3141  -17.6709   22.9208 C.ar    1  UNL1        0.0195
     11 C         -10.2897  -18.2750   22.0068 C.ar    1  UNL1        0.0598
     12 N         -10.2189  -18.3862   20.5126 N.ar    1  UNL1       -0.3256
     13 C         -11.2410  -17.8750   19.5410 C.3     1  UNL1        0.1474
     14 C         -11.6878  -16.4446   19.6057 C.2     1  UNL1        0.0732
     15 O         -10.7812  -15.3529   19.1194 O.co2   1  UNL1       -0.5472
     16 O         -13.0411  -16.1057   20.1568 O.co2   1  UNL1       -0.5472
     17 C          -5.6684  -19.3667   21.8614 C.ar    1  UNL1        0.0832
     18 C          -4.3303  -19.9078   21.4532 C.ar    1  UNL1        0.0217
     19 C          -3.0827  -19.1346   21.7620 C.ar    1  UNL1        0.0635
     20 C          -3.1731  -17.8202   22.4791 C.ar    1  UNL1        0.2768
     21 O          -1.9255  -17.0470   22.7880 O.2     1  UNL1       -0.2655
     22 N          -4.5112  -17.2791   22.8873 N.ar    1  UNL1       -0.2123
     23 N          -5.7589  -18.0523   22.5785 N.ar    1  UNL1       -0.1706
     24 C          -4.6017  -15.9647   23.6044 C.3     1  UNL1        0.1593
     25 C          -5.6739  -15.7418   24.6294 C.ar    1  UNL1        0.0298
     26 C          -5.3380  -15.7971   26.0903 C.ar    1  UNL1        0.0022
     27 C          -6.4102  -15.5742   27.1153 C.ar    1  UNL1        0.0295
     28 C          -7.8183  -15.2960   26.6795 C.ar    1  UNL1        0.1424
     29 F          -8.8905  -15.0731   27.7045 F       1  UNL1       -0.2041
     30 C          -8.1542  -15.2407   25.2186 C.ar    1  UNL1        0.0590
     31 C          -7.0820  -15.4636   24.1936 C.ar    1  UNL1        0.1403
     32 F          -7.4178  -15.4084   22.7327 F       1  UNL1       -0.2044
@<TRIPOS>UNITY_ATOM_ATTR
15 1
charge -1
@<TRIPOS>BOND
     1     2     3    1
     2     3     4   ar
     3     4     1    1
     4     1    17    1
     5    17    18   ar
     6    18    19   ar
     7    19    20   ar
     8    20    21    2
     9    20    22   ar
    10    22    24    1
    11    24    25    1
    12    25    26   ar
    13    26    27   ar
    14    27    28   ar
    15    28    29    1
    16    28    30   ar
    17    30    31   ar
    18    31    32    1
    19    22    23   ar
    20     4     5   ar
    21     5     6   ar
    22     6     7   ar
    23     7     8    1
    24     7     9   ar
    25     9    10   ar
    26    10    11   ar
    27    11    12   ar
    28    12    13    1
    29    13    14    1
    30    14    15   ar
    31    14    16   ar
    32    12     3   ar
    33    23    17   ar
    34    11     5   ar
    35    31    25   ar
@<TRIPOS>MOLECULE
*****
 32 35 0 0 0
SMALL
GASTEIGER

@<TRIPOS>ATOM
      1 C          -8.4271  -19.6653   21.4497 C.3     1  UNL1        0.0750
      2 C          -9.5987  -20.4881   24.3823 C.3     1  UNL1        0.0497
      3 C         -10.1566  -19.4323   23.4744 C.ar    1  UNL1        0.0342
      4 C          -9.6181  -19.0541   22.1265 C.ar    1  UNL1       -0.0030
      5 C         -10.4796  -17.9575   21.5741 C.ar    1  UNL1        0.0155
      6 C         -10.4272  -17.1930   20.2846 C.ar    1  UNL1        0.0308
      7 C         -11.4459  -16.1290   20.0017 C.ar    1  UNL1        0.1402
      8 F         -11.3935  -15.3644   18.7122 F       1  UNL1       -0.2042
      9 C         -12.5169  -15.8294   21.0083 C.ar    1  UNL1        0.0311
     10 C         -12.5693  -16.5938   22.2977 C.ar    1  UNL1        0.0195
     11 C         -11.5506  -17.6579   22.5807 C.ar    1  UNL1        0.0598
     12 N         -11.3510  -18.5694   23.7551 N.ar    1  UNL1       -0.3256
     13 C         -12.1972  -18.6107   24.9929 C.3     1  UNL1        0.1474
     14 C         -13.6928  -18.6022   24.8797 C.2     1  UNL1        0.0732
     15 O         -14.5387  -18.8075   26.1013 O.co2   1  UNL1       -0.5472
     16 O         -14.3427  -18.3883   23.5448 O.co2   1  UNL1       -0.5472
     17 C          -7.0431  -19.2242   21.8245 C.ar    1  UNL1        0.0832
     18 C          -5.8606  -20.0700   21.4553 C.ar    1  UNL1        0.0217
     19 C          -4.4768  -19.6291   21.8300 C.ar    1  UNL1        0.0635
     20 C          -4.2755  -18.3423   22.5740 C.ar    1  UNL1        0.2768
     21 O          -2.8916  -17.9012   22.9488 O.2     1  UNL1       -0.2655
     22 N          -5.4579  -17.4965   22.9432 N.ar    1  UNL1       -0.2123
     23 N          -6.8418  -17.9374   22.5685 N.ar    1  UNL1       -0.1706
     24 C          -5.2566  -16.2096   23.6872 C.3     1  UNL1        0.1593
     25 C          -6.1833  -15.8375   24.8065 C.ar    1  UNL1        0.0298
     26 C          -5.6710  -15.7752   26.2150 C.ar    1  UNL1        0.0022
     27 C          -6.5977  -15.4031   27.3342 C.ar    1  UNL1        0.0295
     28 C          -8.0365  -15.0932   27.0451 C.ar    1  UNL1        0.1424
     29 F          -8.9632  -14.7211   28.1644 F       1  UNL1       -0.2041
     30 C          -8.5488  -15.1555   25.6367 C.ar    1  UNL1        0.0590
     31 C          -7.6221  -15.5276   24.5174 C.ar    1  UNL1        0.1403
     32 F          -8.1343  -15.5899   23.1089 F       1  UNL1       -0.2044
@<TRIPOS>UNITY_ATOM_ATTR
15 1
charge -1
@<TRIPOS>BOND
     1     2     3    1
     2     3     4   ar
     3     4     1    1
     4     1    17    1
     5    17    18   ar
     6    18    19   ar
     7    19    20   ar
     8    20    21    2
     9    20    22   ar
    10    22    24    1
    11    24    25    1
    12    25    26   ar
    13    26    27   ar
    14    27    28   ar
    15    28    29    1
    16    28    30   ar
    17    30    31   ar
    18    31    32    1
    19    22    23   ar
    20     4     5   ar
    21     5     6   ar
    22     6     7   ar
    23     7     8    1
    24     7     9   ar
    25     9    10   ar
    26    10    11   ar
    27    11    12   ar
    28    12    13    1
    29    13    14    1
    30    14    15   ar
    31    14    16   ar
    32    12     3   ar
    33    23    17   ar
    34    11     5   ar
    35    31    25   ar
@<TRIPOS>MOLECULE
*****
 32 35 0 0 0
SMALL
GASTEIGER

@<TRIPOS>ATOM
      1 C          -3.6301  -16.6664   23.7187 C.3     1  UNL1        0.0750
      2 C          -1.2874  -16.1475   21.5068 C.3     1  UNL1        0.0497
      3 C          -2.3351  -17.2193   21.4466 C.ar    1  UNL1        0.0342
      4 C          -3.4119  -17.4578   22.4633 C.ar    1  UNL1       -0.0030
      5 C          -4.2323  -18.6267   22.0042 C.ar    1  UNL1        0.0155
      6 C          -5.4245  -19.3129   22.6022 C.ar    1  UNL1        0.0308
      7 C          -6.0469  -20.4830   21.8999 C.ar    1  UNL1        0.1402
      8 F          -7.2392  -21.1692   22.4979 F       1  UNL1       -0.2042
      9 C          -5.4771  -20.9669   20.5994 C.ar    1  UNL1        0.0311
     10 C          -4.2850  -20.2807   20.0013 C.ar    1  UNL1        0.0195
     11 C          -3.6625  -19.1106   20.7037 C.ar    1  UNL1        0.0598
     12 N          -2.4900  -18.2408   20.3591 N.ar    1  UNL1       -0.3256
     13 C          -1.6244  -18.3698   19.1409 C.3     1  UNL1        0.1474
     14 C          -1.9621  -17.6038   17.8963 C.2     1  UNL1        0.0732
     15 O          -3.0789  -16.6025   17.9116 O.co2   1  UNL1       -0.5472
     16 O          -1.1830  -17.8390   16.6363 O.co2   1  UNL1       -0.5472
     17 C          -5.0148  -16.2359   24.1029 C.ar    1  UNL1        0.0832
     18 C          -5.2889  -15.7450   25.4935 C.ar    1  UNL1        0.0217
     19 C          -6.6734  -15.3145   25.8777 C.ar    1  UNL1        0.0635
     20 C          -7.7839  -15.3749   24.8711 C.ar    1  UNL1        0.2768
     21 O          -9.1685  -14.9444   25.2552 O.2     1  UNL1       -0.2655
     22 N          -7.5098  -15.8657   23.4805 N.ar    1  UNL1       -0.2123
     23 N          -6.1253  -16.2962   23.0963 N.ar    1  UNL1       -0.1706
     24 C          -8.6203  -15.9260   22.4739 C.3     1  UNL1        0.1593
     25 C          -9.3681  -17.2083   22.2581 C.ar    1  UNL1        0.0298
     26 C          -9.0952  -18.3927   23.1373 C.ar    1  UNL1        0.0022
     27 C          -9.8430  -19.6749   22.9215 C.ar    1  UNL1        0.0295
     28 C         -10.8636  -19.7729   21.8266 C.ar    1  UNL1        0.1424
     29 F         -11.6114  -21.0552   21.6108 F       1  UNL1       -0.2041
     30 C         -11.1365  -18.5885   20.9474 C.ar    1  UNL1        0.0590
     31 C         -10.3887  -17.3063   21.1632 C.ar    1  UNL1        0.1403
     32 F         -10.6615  -16.1219   20.2841 F       1  UNL1       -0.2044
@<TRIPOS>UNITY_ATOM_ATTR
15 1
charge -1
@<TRIPOS>BOND
     1     2     3    1
     2     3     4   ar
     3     4     1    1
     4     1    17    1
     5    17    18   ar
     6    18    19   ar
     7    19    20   ar
     8    20    21    2
     9    20    22   ar
    10    22    24    1
    11    24    25    1
    12    25    26   ar
    13    26    27   ar
    14    27    28   ar
    15    28    29    1
    16    28    30   ar
    17    30    31   ar
    18    31    32    1
    19    22    23   ar
    20     4     5   ar
    21     5     6   ar
    22     6     7   ar
    23     7     8    1
    24     7     9   ar
    25     9    10   ar
    26    10    11   ar
    27    11    12   ar
    28    12    13    1
    29    13    14    1
    30    14    15   ar
    31    14    16   ar
    32    12     3   ar
    33    23    17   ar
    34    11     5   ar
    35    31    25   ar
@<TRIPOS>MOLECULE
*****
 32 35 0 0 0
SMALL
GASTEIGER

@<TRIPOS>ATOM
      1 C          -3.7749  -16.7093   23.6465 C.3     1  UNL1        0.0750
      2 C          -1.3934  -16.2614   21.4607 C.3     1  UNL1        0.0497
      3 C          -2.4554  -17.3192   21.4032 C.ar    1  UNL1        0.0342
      4 C          -3.5500  -17.5251   22.4079 C.ar    1  UNL1       -0.0030
      5 C          -4.3804  -18.6899   21.9566 C.ar    1  UNL1        0.0155
      6 C          -5.5907  -19.3490   22.5487 C.ar    1  UNL1        0.0308
      7 C          -6.2197  -20.5220   21.8572 C.ar    1  UNL1        0.1402
      8 F          -7.4301  -21.1811   22.4492 F       1  UNL1       -0.2042
      9 C          -5.6382  -21.0361   20.5736 C.ar    1  UNL1        0.0311
     10 C          -4.4278  -20.3771   19.9815 C.ar    1  UNL1        0.0195
     11 C          -3.7989  -19.2040   20.6730 C.ar    1  UNL1        0.0598
     12 N          -2.6092  -18.3568   20.3310 N.ar    1  UNL1       -0.3256
     13 C          -1.7281  -18.5188   19.1280 C.3     1  UNL1        0.1474
     14 C          -1.9480  -17.6624   17.9164 C.2     1  UNL1        0.0732
     15 O          -3.0191  -16.6122   17.9246 O.co2   1  UNL1       -0.5472
     16 O          -1.0969  -17.8560   16.6965 O.co2   1  UNL1       -0.5472
     17 C          -5.1620  -16.2746   24.0167 C.ar    1  UNL1        0.0832
     18 C          -5.4483  -15.7815   25.4041 C.ar    1  UNL1        0.0217
     19 C          -6.8353  -15.3469   25.7744 C.ar    1  UNL1        0.0635
     20 C          -7.9361  -15.4053   24.7571 C.ar    1  UNL1        0.2768
     21 O          -9.3232  -14.9706   25.1273 O.2     1  UNL1       -0.2655
     22 N          -7.6499  -15.8983   23.3697 N.ar    1  UNL1       -0.2123
     23 N          -6.2629  -16.3330   22.9994 N.ar    1  UNL1       -0.1706
     24 C          -8.7507  -15.9567   22.3525 C.3     1  UNL1        0.1593
     25 C         -10.0650  -16.5878   22.7051 C.ar    1  UNL1        0.0298
     26 C         -11.3475  -15.8799   22.3821 C.ar    1  UNL1        0.0022
     27 C         -12.6618  -16.5110   22.7347 C.ar    1  UNL1        0.0295
     28 C         -12.6937  -17.8498   23.4102 C.ar    1  UNL1        0.1424
     29 F         -14.0080  -18.4809   23.7628 F       1  UNL1       -0.2041
     30 C         -11.4113  -18.5577   23.7332 C.ar    1  UNL1        0.0590
     31 C         -10.0970  -17.9267   23.3806 C.ar    1  UNL1        0.1403
     32 F          -8.8145  -18.6345   23.7036 F       1  UNL1       -0.2044
@<TRIPOS>UNITY_ATOM_ATTR
15 1
charge -1
@<TRIPOS>BOND
     1     2     3    1
     2     3     4   ar
     3     4     1    1
     4     1    17    1
     5    17    18   ar
     6    18    19   ar
     7    19    20   ar
     8    20    21    2
     9    20    22   ar
    10    22    24    1
    11    24    25    1
    12    25    26   ar
    13    26    27   ar
    14    27    28   ar
    15    28    29    1
    16    28    30   ar
    17    30    31   ar
    18    31    32    1
    19    22    23   ar
    20     4     5   ar
    21     5     6   ar
    22     6     7   ar
    23     7     8    1
    24     7     9   ar
    25     9    10   ar
    26    10    11   ar
    27    11    12   ar
    28    12    13    1
    29    13    14    1
    30    14    15   ar
    31    14    16   ar
    32    12     3   ar
    33    23    17   ar
    34    11     5   ar
    35    31    25   ar
@<TRIPOS>MOLECULE
*****
 32 35 0 0 0
SMALL
GASTEIGER

@<TRIPOS>ATOM
      1 C          -8.5890  -17.7843   21.2799 C.3     1  UNL1        0.0750
      2 C         -11.3157  -19.4346   21.9806 C.3     1  UNL1        0.0497
      3 C         -10.4956  -18.6350   22.9491 C.ar    1  UNL1        0.0342
      4 C          -9.2422  -17.8764   22.6270 C.ar    1  UNL1       -0.0030
      5 C          -8.7568  -17.2262   23.8886 C.ar    1  UNL1        0.0155
      6 C          -7.5699  -16.3554   24.1764 C.ar    1  UNL1        0.0308
      7 C          -7.3364  -15.8412   25.5661 C.ar    1  UNL1        0.1402
      8 F          -6.1494  -14.9704   25.8540 F       1  UNL1       -0.2042
      9 C          -8.2897  -16.1979   26.6678 C.ar    1  UNL1        0.0311
     10 C          -9.4766  -17.0687   26.3800 C.ar    1  UNL1        0.0195
     11 C          -9.7102  -17.5828   24.9904 C.ar    1  UNL1        0.0598
     12 N         -10.7848  -18.4535   24.4097 N.ar    1  UNL1       -0.3256
     13 C         -11.9449  -19.0398   25.1583 C.3     1  UNL1        0.1474
     14 C         -13.3270  -18.4979   24.9438 C.2     1  UNL1        0.0732
     15 O         -14.3999  -18.7562   25.9598 O.co2   1  UNL1       -0.5472
     16 O         -13.6363  -17.6977   23.7133 O.co2   1  UNL1       -0.5472
     17 C          -7.4461  -18.6934   20.9368 C.ar    1  UNL1        0.0832
     18 C          -7.6098  -19.7337   19.8686 C.ar    1  UNL1        0.0217
     19 C          -6.4671  -20.6427   19.5255 C.ar    1  UNL1        0.0635
     20 C          -5.1606  -20.5114   20.2506 C.ar    1  UNL1        0.2768
     21 O          -4.0178  -21.4205   19.9075 O.2     1  UNL1       -0.2655
     22 N          -4.9969  -19.4712   21.3188 N.ar    1  UNL1       -0.2123
     23 N          -6.1396  -18.5621   21.6619 N.ar    1  UNL1       -0.1706
     24 C          -3.6903  -19.3399   22.0439 C.3     1  UNL1        0.1593
     25 C          -2.5713  -18.5477   21.4356 C.ar    1  UNL1        0.0298
     26 C          -1.6482  -19.1925   20.4446 C.ar    1  UNL1        0.0022
     27 C          -0.5291  -18.4002   19.8363 C.ar    1  UNL1        0.0295
     28 C          -0.3331  -16.9632   20.2190 C.ar    1  UNL1        0.1424
     29 F           0.7860  -16.1710   19.6108 F       1  UNL1       -0.2041
     30 C          -1.2562  -16.3184   21.2101 C.ar    1  UNL1        0.0590
     31 C          -2.3752  -17.1107   21.8184 C.ar    1  UNL1        0.1403
     32 F          -3.2983  -16.4659   22.8094 F       1  UNL1       -0.2044
@<TRIPOS>UNITY_ATOM_ATTR
15 1
charge -1
@<TRIPOS>BOND
     1     2     3    1
     2     3     4   ar
     3     4     1    1
     4     1    17    1
     5    17    18   ar
     6    18    19   ar
     7    19    20   ar
     8    20    21    2
     9    20    22   ar
    10    22    24    1
    11    24    25    1
    12    25    26   ar
    13    26    27   ar
    14    27    28   ar
    15    28    29    1
    16    28    30   ar
    17    30    31   ar
    18    31    32    1
    19    22    23   ar
    20     4     5   ar
    21     5     6   ar
    22     6     7   ar
    23     7     8    1
    24     7     9   ar
    25     9    10   ar
    26    10    11   ar
    27    11    12   ar
    28    12    13    1
    29    13    14    1
    30    14    15   ar
    31    14    16   ar
    32    12     3   ar
    33    23    17   ar
    34    11     5   ar
    35    31    25   ar
@<TRIPOS>MOLECULE
*****
 32 35 0 0 0
SMALL
GASTEIGER

@<TRIPOS>ATOM
      1 C          -4.2893  -15.8005   23.4173 C.3     1  UNL1        0.0750
      2 C          -6.4790  -18.2036   23.1350 C.3     1  UNL1        0.0497
      3 C          -5.1601  -18.1247   22.4249 C.ar    1  UNL1        0.0342
      4 C          -4.1536  -17.0202   22.5547 C.ar    1  UNL1       -0.0030
      5 C          -2.9875  -17.3493   21.6704 C.ar    1  UNL1        0.0155
      6 C          -1.7024  -16.6270   21.3936 C.ar    1  UNL1        0.0308
      7 C          -0.7031  -17.2127   20.4405 C.ar    1  UNL1        0.1402
      8 F           0.5821  -16.4903   20.1637 F       1  UNL1       -0.2042
      9 C          -0.9890  -18.5207   19.7642 C.ar    1  UNL1        0.0311
     10 C          -2.2741  -19.2430   20.0410 C.ar    1  UNL1        0.0195
     11 C          -3.2734  -18.6573   20.9941 C.ar    1  UNL1        0.0598
     12 N          -4.6161  -19.1366   21.4604 N.ar    1  UNL1       -0.3256
     13 C          -5.2955  -20.4049   21.0366 C.3     1  UNL1        0.1474
     14 C          -6.4234  -20.3578   20.0491 C.2     1  UNL1        0.0732
     15 O          -6.8867  -21.6173   19.3789 O.co2   1  UNL1       -0.5472
     16 O          -7.0882  -19.0512   19.7315 O.co2   1  UNL1       -0.5472
     17 C          -5.3869  -15.7212   24.4367 C.ar    1  UNL1        0.0832
     18 C          -5.0506  -15.5727   25.8909 C.ar    1  UNL1        0.0217
     19 C          -6.1481  -15.4933   26.9102 C.ar    1  UNL1        0.0635
     20 C          -7.5820  -15.5625   26.4753 C.ar    1  UNL1        0.2768
     21 O          -8.6796  -15.4831   27.4946 O.2     1  UNL1       -0.2655
     22 N          -7.9183  -15.7110   25.0211 N.ar    1  UNL1       -0.2123
     23 N          -6.8208  -15.7903   24.0017 N.ar    1  UNL1       -0.1706
     24 C          -9.3522  -15.7801   24.5861 C.3     1  UNL1        0.1593
     25 C          -9.8742  -17.0170   23.9171 C.ar    1  UNL1        0.0298
     26 C         -10.2921  -16.9713   22.4772 C.ar    1  UNL1        0.0022
     27 C         -10.8141  -18.2082   21.8082 C.ar    1  UNL1        0.0295
     28 C         -10.9182  -19.4908   22.5790 C.ar    1  UNL1        0.1424
     29 F         -11.4402  -20.7277   21.9100 F       1  UNL1       -0.2041
     30 C         -10.5003  -19.5365   24.0189 C.ar    1  UNL1        0.0590
     31 C          -9.9783  -18.2996   24.6879 C.ar    1  UNL1        0.1403
     32 F          -9.5604  -18.3452   26.1278 F       1  UNL1       -0.2044
@<TRIPOS>UNITY_ATOM_ATTR
15 1
charge -1
@<TRIPOS>BOND
     1     2     3    1
     2     3     4   ar
     3     4     1    1
     4     1    17    1
     5    17    18   ar
     6    18    19   ar
     7    19    20   ar
     8    20    21    2
     9    20    22   ar
    10    22    24    1
    11    24    25    1
    12    25    26   ar
    13    26    27   ar
    14    27    28   ar
    15    28    29    1
    16    28    30   ar
    17    30    31   ar
    18    31    32    1
    19    22    23   ar
    20     4     5   ar
    21     5     6   ar
    22     6     7   ar
    23     7     8    1
    24     7     9   ar
    25     9    10   ar
    26    10    11   ar
    27    11    12   ar
    28    12    13    1
    29    13    14    1
    30    14    15   ar
    31    14    16   ar
    32    12     3   ar
    33    23    17   ar
    34    11     5   ar
    35    31    25   ar
