@<TRIPOS>MOLECULE
*****
 26 27 0 0 0
SMALL
GASTEIGER

@<TRIPOS>ATOM
      1 C          -8.2927  -19.4026   20.0959 C.ar    1  UNL1        0.0527
      2 C          -9.5610  -19.6788   19.3441 C.ar    1  UNL1        0.1091
      3 N         -10.7114  -19.2274   20.1942 N.ar    1  UNL1       -0.2035
      4 C         -10.1542  -18.6722   21.4714 C.ar    1  UNL1        0.2628
      5 S          -8.6593  -18.7806   21.4106 S.2     1  UNL1       -0.0283
      6 C          -5.7198  -19.2163   20.4054 C.2     1  UNL1       -0.0063
      7 C          -6.9020  -19.6969   19.6170 C.2     1  UNL1        0.0052
      8 C          -4.3292  -19.5106   19.9265 C.3     1  UNL1        0.0971
      9 C          -3.8898  -20.9307   19.7258 C.3     1  UNL1        0.0263
     10 C          -2.1430  -18.2224   20.4844 C.2     1  UNL1        0.4019
     11 O          -1.8596  -19.1859   21.5985 O.2     1  UNL1       -0.2264
     12 N          -3.3778  -18.3847   19.6484 N.am    1  UNL1       -0.2685
     13 H          -3.5638  -17.7523   18.9171 H       1  UNL1        0.1530
     14 C           0.2681  -17.3797   20.0085 C.3     1  UNL1        0.2573
     15 O          -1.1916  -17.0966   20.2063 O.3     1  UNL1       -0.4306
     16 O         -10.9517  -18.1079   22.6095 O.3     1  UNL1       -0.4313
     17 C         -10.2514  -17.5721   23.8231 C.ar    1  UNL1        0.1479
     18 C          -9.7611  -16.1547   23.8414 C.ar    1  UNL1        0.0407
     19 C          -9.0609  -15.6190   25.0549 C.ar    1  UNL1        0.0400
     20 C          -8.8509  -16.5007   26.2501 C.ar    1  UNL1        0.1386
     21 C          -9.3413  -17.9182   26.2318 C.ar    1  UNL1        0.0400
     22 C         -10.0415  -18.4539   25.0183 C.ar    1  UNL1        0.0407
     23 O          -8.1507  -15.9650   27.4637 O.3     1  UNL1       -0.4792
     24 C          -6.8423  -15.2459   27.3183 C.3     1  UNL1        0.1661
     25 C          -5.7846  -15.7906   26.4046 C.3     1  UNL1        0.0472
     26 C          -6.5916  -13.9823   28.0866 C.3     1  UNL1        0.0472
@<TRIPOS>BOND
     1    14    15    1
     2    15    10    1
     3    10    11    2
     4    10    12   am
     5    12     8    1
     6     8     9    1
     7     8     6    1
     8     6     7    2
     9     7     1    1
    10     1     2   ar
    11     2     3   ar
    12     3     4   ar
    13     4    16    1
    14    16    17    1
    15    17    18   ar
    16    18    19   ar
    17    19    20   ar
    18    20    23    1
    19    23    24    1
    20    24    25    1
    21    24    26    1
    22    20    21   ar
    23    21    22   ar
    24     4     5   ar
    25     5     1   ar
    26    22    17   ar
    27    12    13    1
@<TRIPOS>MOLECULE
*****
 26 27 0 0 0
SMALL
GASTEIGER

@<TRIPOS>ATOM
      1 C          -5.6517  -19.8499   20.3946 C.ar    1  UNL1        0.0527
      2 C          -5.8138  -21.2659   19.9270 C.ar    1  UNL1        0.1091
      3 N          -7.1803  -21.4013   19.3235 N.ar    1  UNL1       -0.2035
      4 C          -7.8628  -20.0689   19.4181 C.ar    1  UNL1        0.2628
      5 S          -6.9181  -19.1101   20.0801 S.2     1  UNL1       -0.0283
      6 C          -4.5456  -18.6721   22.4291 C.2     1  UNL1       -0.0063
      7 C          -4.4366  -19.2747   21.0598 C.2     1  UNL1        0.0052
      8 C          -3.3305  -18.0969   23.0944 C.3     1  UNL1        0.0971
      9 C          -3.3773  -17.7209   24.5458 C.3     1  UNL1        0.0263
     10 C          -1.8436  -16.6152   21.5635 C.2     1  UNL1        0.4019
     11 O          -2.8805  -15.5320   21.6048 O.2     1  UNL1       -0.2264
     12 N          -2.0687  -17.8976   22.3083 N.am    1  UNL1       -0.2685
     13 H          -1.3882  -18.6086   22.2812 H       1  UNL1        0.1530
     14 C          -0.0335  -17.5351   19.9425 C.3     1  UNL1        0.2573
     15 O          -0.5818  -16.4159   20.7774 O.3     1  UNL1       -0.4306
     16 O          -9.2470  -19.7511   18.9355 O.3     1  UNL1       -0.4313
     17 C         -10.2749  -19.2297   19.8957 C.ar    1  UNL1        0.1479
     18 C         -10.7432  -20.0888   21.0326 C.ar    1  UNL1        0.0407
     19 C         -11.7709  -19.5673   21.9927 C.ar    1  UNL1        0.0400
     20 C         -12.3304  -18.1868   21.8158 C.ar    1  UNL1        0.1386
     21 C         -11.8621  -17.3278   20.6788 C.ar    1  UNL1        0.0400
     22 C         -10.8343  -17.8492   19.7188 C.ar    1  UNL1        0.0407
     23 O         -13.3582  -17.6654   22.7759 O.3     1  UNL1       -0.4792
     24 C         -13.4204  -18.2050   24.1741 C.3     1  UNL1        0.1661
     25 C         -14.7382  -18.2960   24.8849 C.3     1  UNL1        0.0472
     26 C         -12.1650  -18.6538   24.8614 C.3     1  UNL1        0.0472
@<TRIPOS>BOND
     1    14    15    1
     2    15    10    1
     3    10    11    2
     4    10    12   am
     5    12     8    1
     6     8     9    1
     7     8     6    1
     8     6     7    2
     9     7     1    1
    10     1     2   ar
    11     2     3   ar
    12     3     4   ar
    13     4    16    1
    14    16    17    1
    15    17    18   ar
    16    18    19   ar
    17    19    20   ar
    18    20    23    1
    19    23    24    1
    20    24    25    1
    21    24    26    1
    22    20    21   ar
    23    21    22   ar
    24     4     5   ar
    25     5     1   ar
    26    22    17   ar
    27    12    13    1
@<TRIPOS>MOLECULE
*****
 26 27 0 0 0
SMALL
GASTEIGER

@<TRIPOS>ATOM
      1 C          -5.3513  -19.9140   20.6879 C.ar    1  UNL1        0.0527
      2 C          -4.0003  -20.4133   20.2686 C.ar    1  UNL1        0.1091
      3 N          -2.9700  -19.7348   21.1220 N.ar    1  UNL1       -0.2035
      4 C          -3.6842  -18.8162   22.0687 C.ar    1  UNL1        0.2628
      5 S          -5.1559  -18.9270   21.8003 S.2     1  UNL1       -0.0283
      6 C          -7.8575  -19.4237   20.2098 C.2     1  UNL1       -0.0063
      7 C          -6.6666  -20.3289   20.0982 C.2     1  UNL1        0.0052
      8 C          -9.1728  -19.8386   19.6201 C.3     1  UNL1        0.0971
      9 C          -9.2185  -20.4766   18.2633 C.3     1  UNL1        0.0263
     10 C         -11.0676  -18.2524   20.4223 C.2     1  UNL1        0.4019
     11 O         -10.4233  -17.1125   19.6903 O.2     1  UNL1       -0.2264
     12 N         -10.4423  -19.6154   20.3871 N.am    1  UNL1       -0.2685
     13 H         -10.8652  -20.3635   20.8675 H       1  UNL1        0.1530
     14 C         -12.3231  -18.0620   22.6889 C.3     1  UNL1        0.2573
     15 O         -12.3371  -18.0291   21.1893 O.3     1  UNL1       -0.4306
     16 O          -3.0398  -17.9407   23.1021 O.3     1  UNL1       -0.4313
     17 C          -3.8893  -17.1924   24.0864 C.ar    1  UNL1        0.1479
     18 C          -4.8079  -16.1061   23.6108 C.ar    1  UNL1        0.0407
     19 C          -5.6572  -15.3579   24.5950 C.ar    1  UNL1        0.0400
     20 C          -5.5880  -15.6959   26.0548 C.ar    1  UNL1        0.1386
     21 C          -4.6694  -16.7821   26.5303 C.ar    1  UNL1        0.0400
     22 C          -3.8200  -17.5304   25.5461 C.ar    1  UNL1        0.0407
     23 O          -6.4374  -14.9476   27.0390 O.3     1  UNL1       -0.4792
     24 C          -7.8434  -15.3951   27.3088 C.3     1  UNL1        0.1661
     25 C          -8.7813  -14.5042   28.0683 C.3     1  UNL1        0.0472
     26 C          -8.3115  -16.7334   26.8193 C.3     1  UNL1        0.0472
@<TRIPOS>BOND
     1    14    15    1
     2    15    10    1
     3    10    11    2
     4    10    12   am
     5    12     8    1
     6     8     9    1
     7     8     6    1
     8     6     7    2
     9     7     1    1
    10     1     2   ar
    11     2     3   ar
    12     3     4   ar
    13     4    16    1
    14    16    17    1
    15    17    18   ar
    16    18    19   ar
    17    19    20   ar
    18    20    23    1
    19    23    24    1
    20    24    25    1
    21    24    26    1
    22    20    21   ar
    23    21    22   ar
    24     4     5   ar
    25     5     1   ar
    26    22    17   ar
    27    12    13    1
@<TRIPOS>MOLECULE
*****
 26 27 0 0 0
SMALL
GASTEIGER

@<TRIPOS>ATOM
      1 C           2.3896   -0.4730   20.3237 C.ar    1  UNL1        0.0527
      2 C           0.9348   -0.7529   20.0885 C.ar    1  UNL1        0.1091
      3 N           0.1397    0.3147   20.7801 N.ar    1  UNL1       -0.2035
      4 C           1.1031    1.2542   21.4427 C.ar    1  UNL1        0.2628
      5 S           2.4936    0.7674   21.1607 S.2     1  UNL1       -0.0283
      6 C           3.4748   -2.7880   19.8619 C.2     1  UNL1       -0.0063
      7 C           3.5386   -1.2902   19.8119 C.2     1  UNL1        0.0052
      8 C           4.6238   -3.6052   19.3501 C.3     1  UNL1        0.0971
      9 C           4.3874   -4.9974   18.8441 C.3     1  UNL1        0.0263
     10 C           6.9911   -3.4286   20.4059 C.2     1  UNL1        0.4019
     11 O           6.5875   -4.4020   21.4734 O.2     1  UNL1       -0.2264
     12 N           6.0092   -3.0302   19.3442 N.am    1  UNL1       -0.2685
     13 H           6.2740   -2.3913   18.6436 H       1  UNL1        0.1530
     14 C           8.8123   -1.9584   19.2781 C.3     1  UNL1        0.2573
     15 O           8.3764   -2.8536   20.4001 O.3     1  UNL1       -0.4306
     16 O           0.7398    2.4676   22.2463 O.3     1  UNL1       -0.4313
     17 C           0.2047    2.3122   23.6390 C.ar    1  UNL1        0.1479
     18 C           0.8601    1.3572   24.5920 C.ar    1  UNL1        0.0407
     19 C           0.3251    1.2019   25.9847 C.ar    1  UNL1        0.0400
     20 C          -0.8653    2.0016   26.4243 C.ar    1  UNL1        0.1386
     21 C          -1.5207    2.9566   25.4713 C.ar    1  UNL1        0.0400
     22 C          -0.9857    3.1120   24.0786 C.ar    1  UNL1        0.0407
     23 O          -1.4004    1.8462   27.8171 O.3     1  UNL1       -0.4792
     24 C          -0.8148    0.8143   28.7347 C.3     1  UNL1        0.1661
     25 C          -1.3832   -0.5737   28.7626 C.3     1  UNL1        0.0472
     26 C           0.3392    1.1701   29.6245 C.3     1  UNL1        0.0472
@<TRIPOS>BOND
     1    14    15    1
     2    15    10    1
     3    10    11    2
     4    10    12   am
     5    12     8    1
     6     8     9    1
     7     8     6    1
     8     6     7    2
     9     7     1    1
    10     1     2   ar
    11     2     3   ar
    12     3     4   ar
    13     4    16    1
    14    16    17    1
    15    17    18   ar
    16    18    19   ar
    17    19    20   ar
    18    20    23    1
    19    23    24    1
    20    24    25    1
    21    24    26    1
    22    20    21   ar
    23    21    22   ar
    24     4     5   ar
    25     5     1   ar
    26    22    17   ar
    27    12    13    1
@<TRIPOS>MOLECULE
*****
 26 27 0 0 0
SMALL
GASTEIGER

@<TRIPOS>ATOM
      1 C          -2.0136    3.5716   22.1031 C.ar    1  UNL1        0.0527
      2 C          -0.6408    3.5112   22.7046 C.ar    1  UNL1        0.1091
      3 N           0.2893    2.9324   21.6800 N.ar    1  UNL1       -0.2035
      4 C          -0.5086    2.6351   20.4451 C.ar    1  UNL1        0.2628
      5 S          -1.9319    3.0301   20.7066 S.2     1  UNL1       -0.0283
      6 C          -4.5416    3.3302   22.6517 C.2     1  UNL1       -0.0063
      7 C          -3.2508    4.0836   22.7793 C.2     1  UNL1        0.0052
      8 C          -5.7787    3.8421   23.3279 C.3     1  UNL1        0.0971
      9 C          -6.9470    4.3013   22.5066 C.3     1  UNL1        0.0263
     10 C          -5.5253    5.1701   25.5465 C.2     1  UNL1        0.4019
     11 O          -5.1339    6.3924   24.7701 O.2     1  UNL1       -0.2264
     12 N          -5.8477    3.8949   24.8254 N.am    1  UNL1       -0.2685
     13 H          -6.1046    3.0927   25.3349 H       1  UNL1        0.1530
     14 C          -6.5679    6.1439   27.7179 C.3     1  UNL1        0.2573
     15 O          -5.5943    5.2229   27.0439 O.3     1  UNL1       -0.4306
     16 O           0.0233    2.0461   19.1723 O.3     1  UNL1       -0.4313
     17 C           1.1037    1.0067   19.2209 C.ar    1  UNL1        0.1479
     18 C           2.3119    1.1390   18.3419 C.ar    1  UNL1        0.0407
     19 C           3.3922    0.0996   18.3905 C.ar    1  UNL1        0.0400
     20 C           3.2644   -1.0722   19.3181 C.ar    1  UNL1        0.1386
     21 C           2.0562   -1.2046   20.1972 C.ar    1  UNL1        0.0400
     22 C           0.9759   -0.1651   20.1486 C.ar    1  UNL1        0.0407
     23 O           4.3448   -2.1117   19.3667 O.3     1  UNL1       -0.4792
     24 C           4.0631   -3.4588   19.9631 C.3     1  UNL1        0.1661
     25 C           3.3527   -4.5035   19.1544 C.3     1  UNL1        0.0472
     26 C           4.4919   -3.7615   21.3683 C.3     1  UNL1        0.0472
@<TRIPOS>BOND
     1    14    15    1
     2    15    10    1
     3    10    11    2
     4    10    12   am
     5    12     8    1
     6     8     9    1
     7     8     6    1
     8     6     7    2
     9     7     1    1
    10     1     2   ar
    11     2     3   ar
    12     3     4   ar
    13     4    16    1
    14    16    17    1
    15    17    18   ar
    16    18    19   ar
    17    19    20   ar
    18    20    23    1
    19    23    24    1
    20    24    25    1
    21    24    26    1
    22    20    21   ar
    23    21    22   ar
    24     4     5   ar
    25     5     1   ar
    26    22    17   ar
    27    12    13    1
@<TRIPOS>MOLECULE
*****
 26 27 0 0 0
SMALL
GASTEIGER

@<TRIPOS>ATOM
      1 C           5.5951   -2.1685   25.3998 C.ar    1  UNL1        0.0527
      2 C           6.6284   -3.0702   26.0074 C.ar    1  UNL1        0.1091
      3 N           7.0259   -4.0822   24.9739 N.ar    1  UNL1       -0.2035
      4 C           6.2382   -3.8059   23.7277 C.ar    1  UNL1        0.2628
      5 S           5.3540   -2.6231   23.9909 S.2     1  UNL1       -0.0283
      6 C           3.6937   -1.2470   26.9116 C.2     1  UNL1       -0.0063
      7 C           4.9212   -1.0147   26.0815 C.2     1  UNL1        0.0052
      8 C           3.0199   -0.0932   27.5933 C.3     1  UNL1        0.0971
      9 C           3.8285    1.0854   28.0481 C.3     1  UNL1        0.0263
     10 C           0.9933   -0.3584   29.1972 C.2     1  UNL1        0.4019
     11 O           1.9318   -0.5738   30.3474 O.2     1  UNL1       -0.2264
     12 N           1.5373   -0.1181   27.8202 N.am    1  UNL1       -0.2685
     13 H           0.9214    0.0233   27.0653 H       1  UNL1        0.1530
     14 C          -1.3841    0.5268   28.6359 C.3     1  UNL1        0.2573
     15 O          -0.4892   -0.3832   29.4242 O.3     1  UNL1       -0.4306
     16 O           6.3204   -4.5769   22.4437 O.3     1  UNL1       -0.4313
     17 C           5.9819   -3.9082   21.1443 C.ar    1  UNL1        0.1479
     18 C           7.0362   -3.1494   20.3943 C.ar    1  UNL1        0.0407
     19 C           6.6976   -2.4807   19.0950 C.ar    1  UNL1        0.0400
     20 C           5.3048   -2.5710   18.5456 C.ar    1  UNL1        0.1386
     21 C           4.2504   -3.3298   19.2956 C.ar    1  UNL1        0.0400
     22 C           4.5890   -3.9984   20.5949 C.ar    1  UNL1        0.0407
     23 O           4.9662   -1.9023   17.2463 O.3     1  UNL1       -0.4792
     24 C           4.6754   -0.4311   17.2133 C.3     1  UNL1        0.1661
     25 C           5.7281    0.5312   16.7486 C.3     1  UNL1        0.0472
     26 C           3.3320    0.0777   17.6449 C.3     1  UNL1        0.0472
@<TRIPOS>BOND
     1    14    15    1
     2    15    10    1
     3    10    11    2
     4    10    12   am
     5    12     8    1
     6     8     9    1
     7     8     6    1
     8     6     7    2
     9     7     1    1
    10     1     2   ar
    11     2     3   ar
    12     3     4   ar
    13     4    16    1
    14    16    17    1
    15    17    18   ar
    16    18    19   ar
    17    19    20   ar
    18    20    23    1
    19    23    24    1
    20    24    25    1
    21    24    26    1
    22    20    21   ar
    23    21    22   ar
    24     4     5   ar
    25     5     1   ar
    26    22    17   ar
    27    12    13    1
@<TRIPOS>MOLECULE
*****
 26 27 0 0 0
SMALL
GASTEIGER

@<TRIPOS>ATOM
      1 C          -6.8521  -15.9596   24.4236 C.ar    1  UNL1        0.0527
      2 C          -7.5797  -15.1890   25.4851 C.ar    1  UNL1        0.1091
      3 N          -9.0512  -15.4002   25.2848 N.ar    1  UNL1       -0.2035
      4 C          -9.2330  -16.3013   24.0995 C.ar    1  UNL1        0.2628
      5 S          -7.8739  -16.6470   23.5673 S.2     1  UNL1       -0.0283
      6 C          -4.7656  -17.0390   23.3139 C.2     1  UNL1       -0.0063
      7 C          -5.3640  -16.0303   24.2490 C.2     1  UNL1        0.0052
      8 C          -3.2775  -17.1098   23.1393 C.3     1  UNL1        0.0971
      9 C          -2.4193  -17.6669   24.2363 C.3     1  UNL1        0.0263
     10 C          -1.9734  -17.5952   20.9454 C.2     1  UNL1        0.4019
     11 O          -1.9292  -19.0534   21.2943 O.2     1  UNL1       -0.2264
     12 N          -2.6475  -16.6234   21.8679 N.am    1  UNL1       -0.2685
     13 H          -2.6765  -15.6663   21.6389 H       1  UNL1        0.1530
     14 C          -1.5146  -17.8908   18.4052 C.3     1  UNL1        0.2573
     15 O          -1.3435  -17.1090   19.6739 O.3     1  UNL1       -0.4306
     16 O         -10.5438  -16.7737   23.5441 O.3     1  UNL1       -0.4313
     17 C         -10.5714  -17.6352   22.3163 C.ar    1  UNL1        0.1479
     18 C         -10.5768  -17.0026   20.9563 C.ar    1  UNL1        0.0407
     19 C         -10.6044  -17.8640   19.7287 C.ar    1  UNL1        0.0400
     20 C         -10.6265  -19.3580   19.8611 C.ar    1  UNL1        0.1386
     21 C         -10.6210  -19.9906   21.2211 C.ar    1  UNL1        0.0400
     22 C         -10.5935  -19.1291   22.4488 C.ar    1  UNL1        0.0407
     23 O         -10.6540  -20.2194   18.6333 O.3     1  UNL1       -0.4792
     24 C          -9.3692  -20.6844   18.0144 C.3     1  UNL1        0.1661
     25 C          -9.3898  -21.4231   16.7090 C.3     1  UNL1        0.0472
     26 C          -8.0639  -20.4106   18.7007 C.3     1  UNL1        0.0472
@<TRIPOS>BOND
     1    14    15    1
     2    15    10    1
     3    10    11    2
     4    10    12   am
     5    12     8    1
     6     8     9    1
     7     8     6    1
     8     6     7    2
     9     7     1    1
    10     1     2   ar
    11     2     3   ar
    12     3     4   ar
    13     4    16    1
    14    16    17    1
    15    17    18   ar
    16    18    19   ar
    17    19    20   ar
    18    20    23    1
    19    23    24    1
    20    24    25    1
    21    24    26    1
    22    20    21   ar
    23    21    22   ar
    24     4     5   ar
    25     5     1   ar
    26    22    17   ar
    27    12    13    1
@<TRIPOS>MOLECULE
*****
 26 27 0 0 0
SMALL
GASTEIGER

@<TRIPOS>ATOM
      1 C           5.0842   -0.7577   34.4081 C.ar    1  UNL1        0.0527
      2 C           4.2651   -1.9446   33.9949 C.ar    1  UNL1        0.1091
      3 N           5.0382   -2.7025   32.9566 N.ar    1  UNL1       -0.2035
      4 C           6.3350   -1.9841   32.7281 C.ar    1  UNL1        0.2628
      5 S           6.3634   -0.7822   33.6251 S.2     1  UNL1       -0.0283
      6 C           3.7137    1.3500   35.0635 C.2     1  UNL1       -0.0063
      7 C           4.6927    0.2726   35.4255 C.2     1  UNL1        0.0052
      8 C           3.3223    2.3803   36.0809 C.3     1  UNL1        0.0971
      9 C           3.8776    3.7709   35.9921 C.3     1  UNL1        0.0263
     10 C           2.9079    1.6607   38.5427 C.2     1  UNL1        0.4019
     11 O           4.3870    1.6616   38.7919 O.2     1  UNL1       -0.2264
     12 N           2.3755    2.0200   37.1872 N.am    1  UNL1       -0.2685
     13 H           1.4047    2.0194   37.0236 H       1  UNL1        0.1530
     14 C           1.1329    0.0536   39.5510 C.3     1  UNL1        0.2573
     15 O           1.9612    1.3004   39.6489 O.3     1  UNL1       -0.4306
     16 O           7.4139   -2.3954   31.7707 O.3     1  UNL1       -0.4313
     17 C           7.0890   -3.2972   30.6169 C.ar    1  UNL1        0.1479
     18 C           6.6354   -2.7122   29.3123 C.ar    1  UNL1        0.0407
     19 C           6.3105   -3.6140   28.1586 C.ar    1  UNL1        0.0400
     20 C           6.4391   -5.1008   28.3094 C.ar    1  UNL1        0.1386
     21 C           6.8927   -5.6859   29.6140 C.ar    1  UNL1        0.0400
     22 C           7.2176   -4.7840   30.7677 C.ar    1  UNL1        0.0407
     23 O           6.1142   -6.0027   27.1556 O.3     1  UNL1       -0.4792
     24 C           7.2169   -6.5562   26.3027 C.3     1  UNL1        0.1661
     25 C           7.8763   -5.6877   25.2725 C.3     1  UNL1        0.0472
     26 C           7.6603   -7.9782   26.4798 C.3     1  UNL1        0.0472
@<TRIPOS>BOND
     1    14    15    1
     2    15    10    1
     3    10    11    2
     4    10    12   am
     5    12     8    1
     6     8     9    1
     7     8     6    1
     8     6     7    2
     9     7     1    1
    10     1     2   ar
    11     2     3   ar
    12     3     4   ar
    13     4    16    1
    14    16    17    1
    15    17    18   ar
    16    18    19   ar
    17    19    20   ar
    18    20    23    1
    19    23    24    1
    20    24    25    1
    21    24    26    1
    22    20    21   ar
    23    21    22   ar
    24     4     5   ar
    25     5     1   ar
    26    22    17   ar
    27    12    13    1
@<TRIPOS>MOLECULE
*****
 26 27 0 0 0
SMALL
GASTEIGER

@<TRIPOS>ATOM
      1 C           7.0505   -4.2344   25.8296 C.ar    1  UNL1        0.0527
      2 C           6.1592   -3.0379   25.6743 C.ar    1  UNL1        0.1091
      3 N           5.8164   -2.9009   24.2204 N.ar    1  UNL1       -0.2035
      4 C           6.4959   -4.0125   23.4772 C.ar    1  UNL1        0.2628
      5 S           7.2586   -4.8367   24.4717 S.2     1  UNL1       -0.0283
      6 C           6.7298   -5.2865   28.1834 C.2     1  UNL1       -0.0063
      7 C           7.6317   -4.7397   27.1168 C.2     1  UNL1        0.0052
      8 C           7.3109   -5.7918   29.4705 C.3     1  UNL1        0.0971
      9 C           8.5445   -6.6450   29.4526 C.3     1  UNL1        0.0263
     10 C           6.8114   -4.0653   31.3465 C.2     1  UNL1        0.4019
     11 O           7.6166   -3.0345   30.6123 O.2     1  UNL1       -0.2264
     12 N           6.6585   -5.4439   30.7756 N.am    1  UNL1       -0.2685
     13 H           6.1300   -6.1204   31.2575 H       1  UNL1        0.1530
     14 C           5.0748   -2.6816   32.6956 C.3     1  UNL1        0.2573
     15 O           6.1590   -3.7173   32.6516 O.3     1  UNL1       -0.4306
     16 O           6.4251   -4.2571   21.9990 O.3     1  UNL1       -0.4313
     17 C           5.5714   -3.3784   21.1334 C.ar    1  UNL1        0.1479
     18 C           5.8999   -1.9221   20.9880 C.ar    1  UNL1        0.0407
     19 C           5.0462   -1.0435   20.1225 C.ar    1  UNL1        0.0400
     20 C           3.8640   -1.6213   19.4023 C.ar    1  UNL1        0.1386
     21 C           3.5355   -3.0776   19.5476 C.ar    1  UNL1        0.0400
     22 C           4.3892   -3.9562   20.4132 C.ar    1  UNL1        0.0407
     23 O           3.0103   -0.7426   18.5367 O.3     1  UNL1       -0.4792
     24 C           1.8260   -0.0340   19.1243 C.3     1  UNL1        0.1661
     25 C           1.2531    1.1684   18.4343 C.3     1  UNL1        0.0472
     26 C           1.2147   -0.5276   20.4020 C.3     1  UNL1        0.0472
@<TRIPOS>BOND
     1    14    15    1
     2    15    10    1
     3    10    11    2
     4    10    12   am
     5    12     8    1
     6     8     9    1
     7     8     6    1
     8     6     7    2
     9     7     1    1
    10     1     2   ar
    11     2     3   ar
    12     3     4   ar
    13     4    16    1
    14    16    17    1
    15    17    18   ar
    16    18    19   ar
    17    19    20   ar
    18    20    23    1
    19    23    24    1
    20    24    25    1
    21    24    26    1
    22    20    21   ar
    23    21    22   ar
    24     4     5   ar
    25     5     1   ar
    26    22    17   ar
    27    12    13    1
