@<TRIPOS>MOLECULE
*****
 24 26 0 0 0
SMALL
GASTEIGER

@<TRIPOS>ATOM
      1 C          -4.8784  -18.9822   21.2722 C.ar    1  UNL1        0.0012
      2 C          -5.6177  -20.1500   20.6897 C.ar    1  UNL1       -0.0003
      3 C          -7.0305  -20.4283   21.1097 C.ar    1  UNL1       -0.0045
      4 C          -7.7040  -19.5387   22.1122 C.ar    1  UNL1       -0.0247
      5 C          -6.9647  -18.3708   22.6947 C.ar    1  UNL1       -0.0247
      6 C          -5.5518  -18.0926   22.2747 C.ar    1  UNL1       -0.0045
      7 C          -7.8818  -17.6743   23.6558 C.3     1  UNL1        0.0437
      8 C          -9.1880  -18.4117   23.6673 C.3     1  UNL1        0.0838
      9 C          -9.0782  -19.5640   22.7133 C.3     1  UNL1        0.0437
     10 C           0.7731  -17.8689   19.5923 C.3     1  UNL1        0.0521
     11 C          -0.6397  -18.1472   20.0123 C.ar    1  UNL1        0.0594
     12 C          -1.7541  -18.0384   19.0141 C.ar    1  UNL1        0.0147
     13 C          -3.1670  -18.3167   19.4341 C.ar    1  UNL1        0.0028
     14 C          -3.4655  -18.7038   20.8522 C.ar    1  UNL1        0.0191
     15 C          -2.3511  -18.8126   21.8503 C.ar    1  UNL1        0.0984
     16 N          -0.9383  -18.5343   21.4304 N.ar    1  UNL1       -0.2481
     17 N         -10.3926  -18.0587   24.4886 N.3     1  UNL1       -0.1841
     18 H         -10.2175  -17.1360   24.8866 H       1  UNL1        0.1484
     19 S         -11.7475  -18.0039   23.8475 S.O2    1  UNL1        0.0390
     20 O         -12.1943  -19.1596   24.6929 O.2     1  UNL1       -0.1576
     21 O         -11.3008  -16.8481   23.0021 O.2     1  UNL1       -0.1576
     22 C         -13.1025  -17.9490   23.2064 C.3     1  UNL1        0.1457
     23 C         -13.2232  -17.7684   21.7222 C.3     1  UNL1        0.0270
     24 C         -14.3368  -18.0747   24.0495 C.3     1  UNL1        0.0270
@<TRIPOS>BOND
     1    10    11    1
     2    11    12   ar
     3    12    13   ar
     4    13    14   ar
     5    14     1    1
     6     1     2   ar
     7     2     3   ar
     8     3     4   ar
     9     4     5   ar
    10     5     6   ar
    11     5     7    1
    12     7     8    1
    13     8    17    1
    14    17    19    1
    15    19    20    2
    16    19    21    2
    17    19    22    1
    18    22    23    1
    19    22    24    1
    20     8     9    1
    21    14    15   ar
    22    15    16   ar
    23    16    11   ar
    24     6     1   ar
    25     9     4    1
    26    17    18    1
@<TRIPOS>MOLECULE
*****
 24 26 0 0 0
SMALL
GASTEIGER

@<TRIPOS>ATOM
      1 C          -4.9941  -19.5104   20.1202 C.ar    1  UNL1        0.0012
      2 C          -5.2784  -20.9611   19.8662 C.ar    1  UNL1       -0.0003
      3 C          -6.6953  -21.4512   19.8223 C.ar    1  UNL1       -0.0045
      4 C          -7.8281  -20.4905   20.0323 C.ar    1  UNL1       -0.0247
      5 C          -7.5438  -19.0398   20.2863 C.ar    1  UNL1       -0.0247
      6 C          -6.1269  -18.5497   20.3302 C.ar    1  UNL1       -0.0045
      7 C          -8.8560  -18.3332   20.4559 C.3     1  UNL1        0.0437
      8 C          -9.9513  -19.3472   20.3068 C.3     1  UNL1        0.0838
      9 C          -9.3160  -20.6805   20.0450 C.3     1  UNL1        0.0437
     10 C           0.6738  -17.5498   20.2962 C.3     1  UNL1        0.0521
     11 C          -0.7431  -18.0399   20.2522 C.ar    1  UNL1        0.0594
     12 C          -1.6197  -17.6961   19.0846 C.ar    1  UNL1        0.0147
     13 C          -3.0368  -18.1863   19.0406 C.ar    1  UNL1        0.0028
     14 C          -3.5771  -19.0202   20.1642 C.ar    1  UNL1        0.0191
     15 C          -2.7005  -19.3640   21.3318 C.ar    1  UNL1        0.0984
     16 N          -1.2835  -18.8739   21.3758 N.ar    1  UNL1       -0.2481
     17 N         -11.4234  -19.0755   20.4027 N.3     1  UNL1       -0.1841
     18 H         -11.8833  -19.9795   20.5103 H       1  UNL1        0.1484
     19 S         -11.9530  -18.1880   21.4898 S.O2    1  UNL1        0.0390
     20 O         -12.3516  -17.1690   20.4638 O.2     1  UNL1       -0.1576
     21 O         -11.5544  -19.2071   22.5158 O.2     1  UNL1       -0.1576
     22 C         -12.4826  -17.3006   22.5770 C.3     1  UNL1        0.1457
     23 C         -12.1089  -15.8482   22.6083 C.3     1  UNL1        0.0270
     24 C         -13.3859  -17.8655   23.6329 C.3     1  UNL1        0.0270
@<TRIPOS>BOND
     1    10    11    1
     2    11    12   ar
     3    12    13   ar
     4    13    14   ar
     5    14     1    1
     6     1     2   ar
     7     2     3   ar
     8     3     4   ar
     9     4     5   ar
    10     5     6   ar
    11     5     7    1
    12     7     8    1
    13     8    17    1
    14    17    19    1
    15    19    20    2
    16    19    21    2
    17    19    22    1
    18    22    23    1
    19    22    24    1
    20     8     9    1
    21    14    15   ar
    22    15    16   ar
    23    16    11   ar
    24     6     1   ar
    25     9     4    1
    26    17    18    1
@<TRIPOS>MOLECULE
*****
 24 26 0 0 0
SMALL
GASTEIGER

@<TRIPOS>ATOM
      1 C         -13.5134   -2.2072   18.8806 C.ar    1  UNL1        0.0012
      2 C         -12.0494   -2.5187   18.9786 C.ar    1  UNL1       -0.0003
      3 C         -11.5886   -3.9448   19.0406 C.ar    1  UNL1       -0.0045
      4 C         -12.5917   -5.0594   19.0046 C.ar    1  UNL1       -0.0247
      5 C         -14.0557   -4.7479   18.9065 C.ar    1  UNL1       -0.0247
      6 C         -14.5165   -3.3218   18.8445 C.ar    1  UNL1       -0.0045
      7 C         -14.8059   -6.0467   18.8905 C.3     1  UNL1        0.0437
      8 C         -13.8055   -7.1610   18.9786 C.3     1  UNL1        0.0838
      9 C         -12.4370   -6.5508   19.0491 C.3     1  UNL1        0.0437
     10 C         -15.3568    3.4972   18.6324 C.3     1  UNL1        0.0521
     11 C         -14.8960    2.0711   18.6945 C.ar    1  UNL1        0.0594
     12 C         -15.8129    1.0090   19.2248 C.ar    1  UNL1        0.0147
     13 C         -15.3520   -0.4171   19.2868 C.ar    1  UNL1        0.0028
     14 C         -13.9743   -0.7811   18.8185 C.ar    1  UNL1        0.0191
     15 C         -13.0574    0.2810   18.2883 C.ar    1  UNL1        0.0984
     16 N         -13.5182    1.7071   18.2262 N.ar    1  UNL1       -0.2481
     17 N         -14.1186   -8.6279   18.9936 N.3     1  UNL1       -0.1841
     18 H         -13.9712   -8.9507   19.9499 H       1  UNL1        0.1484
     19 S         -15.4775   -9.1090   18.5789 S.O2    1  UNL1        0.0390
     20 O         -15.0885   -8.9652   17.1374 O.2     1  UNL1       -0.1576
     21 O         -15.8666   -9.2528   20.0204 O.2     1  UNL1       -0.1576
     22 C         -16.8364   -9.5900   18.1642 C.3     1  UNL1        0.1457
     23 C         -17.2650  -10.9919   18.4821 C.3     1  UNL1        0.0270
     24 C         -17.7667   -8.6693   17.4316 C.3     1  UNL1        0.0270
@<TRIPOS>BOND
     1    10    11    1
     2    11    12   ar
     3    12    13   ar
     4    13    14   ar
     5    14     1    1
     6     1     2   ar
     7     2     3   ar
     8     3     4   ar
     9     4     5   ar
    10     5     6   ar
    11     5     7    1
    12     7     8    1
    13     8    17    1
    14    17    19    1
    15    19    20    2
    16    19    21    2
    17    19    22    1
    18    22    23    1
    19    22    24    1
    20     8     9    1
    21    14    15   ar
    22    15    16   ar
    23    16    11   ar
    24     6     1   ar
    25     9     4    1
    26    17    18    1
@<TRIPOS>MOLECULE
*****
 24 26 0 0 0
SMALL
GASTEIGER

@<TRIPOS>ATOM
      1 C           5.2419   -1.5739   32.3796 C.ar    1  UNL1        0.0012
      2 C           4.3791   -0.5914   31.6447 C.ar    1  UNL1       -0.0003
      3 C           3.7218    0.5328   32.3889 C.ar    1  UNL1       -0.0045
      4 C           3.9273    0.6746   33.8680 C.ar    1  UNL1       -0.0247
      5 C           4.7902   -0.3079   34.6029 C.ar    1  UNL1       -0.0247
      6 C           5.4475   -1.4322   33.8587 C.ar    1  UNL1       -0.0045
      7 C           4.8087    0.0837   36.0507 C.3     1  UNL1        0.0437
      8 C           3.9573    1.3083   36.2107 C.3     1  UNL1        0.0838
      9 C           3.4125    1.6735   34.8617 C.3     1  UNL1        0.0437
     10 C           7.8714   -6.0712   29.4029 C.3     1  UNL1        0.0521
     11 C           7.2140   -4.9470   30.1471 C.ar    1  UNL1        0.0594
     12 C           6.9505   -5.0742   31.6183 C.ar    1  UNL1        0.0147
     13 C           6.2931   -3.9498   32.3625 C.ar    1  UNL1        0.0028
     14 C           5.8993   -2.6983   31.6355 C.ar    1  UNL1        0.0191
     15 C           6.1628   -2.5711   30.1643 C.ar    1  UNL1        0.0984
     16 N           6.8202   -3.6954   29.4201 N.ar    1  UNL1       -0.2481
     17 N           3.6964    2.0393   37.4943 N.3     1  UNL1       -0.1841
     18 H           3.6030    3.0269   37.2570 H       1  UNL1        0.1484
     19 S           2.5054    1.6809   38.3328 S.O2    1  UNL1        0.0390
     20 O           1.6299    2.5160   37.4463 O.2     1  UNL1       -0.1576
     21 O           3.3810    0.8457   39.2194 O.2     1  UNL1       -0.1576
     22 C           1.3145    1.3225   39.1713 C.3     1  UNL1        0.1457
     23 C           0.2591    2.3505   39.4535 C.3     1  UNL1        0.0270
     24 C           1.1788   -0.0639   39.7277 C.3     1  UNL1        0.0270
@<TRIPOS>BOND
     1    10    11    1
     2    11    12   ar
     3    12    13   ar
     4    13    14   ar
     5    14     1    1
     6     1     2   ar
     7     2     3   ar
     8     3     4   ar
     9     4     5   ar
    10     5     6   ar
    11     5     7    1
    12     7     8    1
    13     8    17    1
    14    17    19    1
    15    19    20    2
    16    19    21    2
    17    19    22    1
    18    22    23    1
    19    22    24    1
    20     8     9    1
    21    14    15   ar
    22    15    16   ar
    23    16    11   ar
    24     6     1   ar
    25     9     4    1
    26    17    18    1
@<TRIPOS>MOLECULE
*****
 24 26 0 0 0
SMALL
GASTEIGER

@<TRIPOS>ATOM
      1 C          -4.5892  -17.6833   22.2614 C.ar    1  UNL1        0.0012
      2 C          -4.9667  -16.5934   23.2204 C.ar    1  UNL1       -0.0003
      3 C          -6.3533  -16.5429   23.7901 C.ar    1  UNL1       -0.0045
      4 C          -7.3624  -17.5822   23.4010 C.ar    1  UNL1       -0.0247
      5 C          -6.9849  -18.6721   22.4421 C.ar    1  UNL1       -0.0247
      6 C          -5.5983  -18.7227   21.8723 C.ar    1  UNL1       -0.0045
      7 C          -8.1837  -19.5519   22.2449 C.3     1  UNL1        0.0437
      8 C          -9.3022  -19.0057   23.0820 C.3     1  UNL1        0.0838
      9 C          -8.7946  -17.7884   23.7965 C.3     1  UNL1        0.0437
     10 C           0.9574  -17.8857   19.9822 C.3     1  UNL1        0.0521
     11 C          -0.4292  -17.8351   20.5520 C.ar    1  UNL1        0.0594
     12 C          -1.0355  -16.5173   20.9339 C.ar    1  UNL1        0.0147
     13 C          -2.4222  -16.4667   21.5037 C.ar    1  UNL1        0.0028
     14 C          -3.2025  -17.7339   21.6916 C.ar    1  UNL1        0.0191
     15 C          -2.5962  -19.0517   21.3097 C.ar    1  UNL1        0.0984
     16 N          -1.2096  -19.1023   20.7400 N.ar    1  UNL1       -0.2481
     17 N         -10.6854  -19.5766   23.1863 N.3     1  UNL1       -0.1841
     18 H         -10.7059  -20.1462   24.0322 H       1  UNL1        0.1484
     19 S         -11.8717  -18.6610   23.2521 S.O2    1  UNL1        0.0390
     20 O         -11.9152  -18.8243   24.7425 O.2     1  UNL1       -0.1576
     21 O         -11.8283  -18.4976   21.7616 O.2     1  UNL1       -0.1576
     22 C         -13.0580  -17.7453   23.3179 C.3     1  UNL1        0.1457
     23 C         -14.2409  -18.1100   24.1652 C.3     1  UNL1        0.0270
     24 C         -13.0615  -16.4650   22.5363 C.3     1  UNL1        0.0270
@<TRIPOS>BOND
     1    10    11    1
     2    11    12   ar
     3    12    13   ar
     4    13    14   ar
     5    14     1    1
     6     1     2   ar
     7     2     3   ar
     8     3     4   ar
     9     4     5   ar
    10     5     6   ar
    11     5     7    1
    12     7     8    1
    13     8    17    1
    14    17    19    1
    15    19    20    2
    16    19    21    2
    17    19    22    1
    18    22    23    1
    19    22    24    1
    20     8     9    1
    21    14    15   ar
    22    15    16   ar
    23    16    11   ar
    24     6     1   ar
    25     9     4    1
    26    17    18    1
@<TRIPOS>MOLECULE
*****
 24 26 0 0 0
SMALL
GASTEIGER

@<TRIPOS>ATOM
      1 C         -12.9624   -3.2104   19.1354 C.ar    1  UNL1        0.0012
      2 C         -14.3265   -3.3601   19.7410 C.ar    1  UNL1       -0.0003
      3 C         -15.2421   -2.1753   19.8290 C.ar    1  UNL1       -0.0045
      4 C         -14.7936   -0.8407   19.3115 C.ar    1  UNL1       -0.0247
      5 C         -13.4295   -0.6910   18.7060 C.ar    1  UNL1       -0.0247
      6 C         -12.5139   -1.8759   18.6179 C.ar    1  UNL1       -0.0045
      7 C         -13.2645    0.7386   18.2830 C.3     1  UNL1        0.0437
      8 C         -14.5266    1.4725   18.6272 C.3     1  UNL1        0.0838
      9 C         -15.4717    0.4964   19.2629 C.3     1  UNL1        0.0437
     10 C          -9.2999   -7.9498   18.7831 C.3     1  UNL1        0.0521
     11 C         -10.2155   -6.7650   18.8711 C.ar    1  UNL1        0.0594
     12 C          -9.6469   -5.3770   18.8831 C.ar    1  UNL1        0.0147
     13 C         -10.5625   -4.1921   18.9712 C.ar    1  UNL1        0.0028
     14 C         -12.0467   -4.3953   19.0473 C.ar    1  UNL1        0.0191
     15 C         -12.6153   -5.7833   19.0353 C.ar    1  UNL1        0.0984
     16 N         -11.6998   -6.9681   18.9473 N.ar    1  UNL1       -0.2481
     17 N         -14.7963    2.9271   18.3793 N.3     1  UNL1       -0.1841
     18 H         -15.1200    3.0065   17.4153 H       1  UNL1        0.1484
     19 S         -15.7886    3.6618   19.2311 S.O2    1  UNL1        0.0390
     20 O         -14.7693    3.7686   20.3264 O.2     1  UNL1       -0.1576
     21 O         -16.8079    3.5549   18.1358 O.2     1  UNL1       -0.1576
     22 C         -16.7810    4.3964   20.0829 C.3     1  UNL1        0.1457
     23 C         -17.0344    3.9508   21.4926 C.3     1  UNL1        0.0270
     24 C         -17.5199    5.5765   19.5250 C.3     1  UNL1        0.0270
@<TRIPOS>BOND
     1    10    11    1
     2    11    12   ar
     3    12    13   ar
     4    13    14   ar
     5    14     1    1
     6     1     2   ar
     7     2     3   ar
     8     3     4   ar
     9     4     5   ar
    10     5     6   ar
    11     5     7    1
    12     7     8    1
    13     8    17    1
    14    17    19    1
    15    19    20    2
    16    19    21    2
    17    19    22    1
    18    22    23    1
    19    22    24    1
    20     8     9    1
    21    14    15   ar
    22    15    16   ar
    23    16    11   ar
    24     6     1   ar
    25     9     4    1
    26    17    18    1
@<TRIPOS>MOLECULE
*****
 24 26 0 0 0
SMALL
GASTEIGER

@<TRIPOS>ATOM
      1 C           2.1391    0.1524   19.0747 C.ar    1  UNL1        0.0012
      2 C           2.7365    0.0442   17.7031 C.ar    1  UNL1       -0.0003
      3 C           3.8384   -0.9390   17.4405 C.ar    1  UNL1       -0.0045
      4 C           4.3429   -1.8140   18.5494 C.ar    1  UNL1       -0.0247
      5 C           3.7455   -1.7058   19.9210 C.ar    1  UNL1       -0.0247
      6 C           2.6436   -0.7226   20.1837 C.ar    1  UNL1       -0.0045
      7 C           4.4430   -2.6927   20.8096 C.3     1  UNL1        0.0437
      8 C           5.4715   -3.4109   19.9871 C.3     1  UNL1        0.0838
      9 C           5.4097   -2.8679   18.5902 C.3     1  UNL1        0.0437
     10 C          -2.2688    4.0853   20.1255 C.3     1  UNL1        0.0521
     11 C          -1.1668    3.1021   19.8628 C.ar    1  UNL1        0.0594
     12 C          -0.3542    3.2044   18.6061 C.ar    1  UNL1        0.0147
     13 C           0.7478    2.2212   18.3434 C.ar    1  UNL1        0.0028
     14 C           1.0371    1.1357   19.3374 C.ar    1  UNL1        0.0191
     15 C           0.2245    1.0333   20.5940 C.ar    1  UNL1        0.0984
     16 N          -0.8775    2.0165   20.8567 N.ar    1  UNL1       -0.2481
     17 N           6.3990   -4.4838   20.4758 N.3     1  UNL1       -0.1841
     18 H           6.8403   -4.8898   19.6507 H       1  UNL1        0.1484
     19 S           7.5021   -4.1426   21.4333 S.O2    1  UNL1        0.0390
     20 O           6.7267   -4.7740   22.5515 O.2     1  UNL1       -0.1576
     21 O           8.2774   -3.5113   20.3151 O.2     1  UNL1       -0.1576
     22 C           8.6051   -3.8015   22.3908 C.3     1  UNL1        0.1457
     23 C           9.5350   -4.8737   22.8765 C.3     1  UNL1        0.0270
     24 C           8.7783   -2.3882   22.8627 C.3     1  UNL1        0.0270
@<TRIPOS>BOND
     1    10    11    1
     2    11    12   ar
     3    12    13   ar
     4    13    14   ar
     5    14     1    1
     6     1     2   ar
     7     2     3   ar
     8     3     4   ar
     9     4     5   ar
    10     5     6   ar
    11     5     7    1
    12     7     8    1
    13     8    17    1
    14    17    19    1
    15    19    20    2
    16    19    21    2
    17    19    22    1
    18    22    23    1
    19    22    24    1
    20     8     9    1
    21    14    15   ar
    22    15    16   ar
    23    16    11   ar
    24     6     1   ar
    25     9     4    1
    26    17    18    1
@<TRIPOS>MOLECULE
*****
 24 26 0 0 0
SMALL
GASTEIGER

@<TRIPOS>ATOM
      1 C           3.3704   -1.5636   21.6793 C.ar    1  UNL1        0.0012
      2 C           2.9512   -1.7560   20.2520 C.ar    1  UNL1       -0.0003
      3 C           1.8845   -0.8836   19.6596 C.ar    1  UNL1       -0.0045
      4 C           1.2369    0.1811   20.4945 C.ar    1  UNL1       -0.0247
      5 C           1.6561    0.3735   21.9218 C.ar    1  UNL1       -0.0247
      6 C           2.7229   -0.4989   22.5142 C.ar    1  UNL1       -0.0045
      7 C           0.8443    1.4966   22.4960 C.3     1  UNL1        0.0437
      8 C          -0.0766    1.9983   21.4235 C.3     1  UNL1        0.0838
      9 C           0.1660    1.1853   20.1865 C.3     1  UNL1        0.0437
     10 C           7.6375   -5.0531   24.0491 C.3     1  UNL1        0.0521
     11 C           6.5708   -4.1807   23.4567 C.ar    1  UNL1        0.0594
     12 C           5.8102   -3.2278   24.3305 C.ar    1  UNL1        0.0147
     13 C           4.7434   -2.3555   23.7380 C.ar    1  UNL1        0.0028
     14 C           4.4372   -2.4360   22.2718 C.ar    1  UNL1        0.0191
     15 C           5.1978   -3.3889   21.3980 C.ar    1  UNL1        0.0984
     16 N           6.2646   -4.2612   21.9904 N.ar    1  UNL1       -0.2481
     17 N          -1.0664    3.1167   21.5635 N.3     1  UNL1       -0.1841
     18 H          -0.5444    3.9340   21.8797 H       1  UNL1        0.1484
     19 S          -1.8779    3.5526   20.3797 S.O2    1  UNL1        0.0390
     20 O          -0.7663    4.4651   19.9536 O.2     1  UNL1       -0.1576
     21 O          -2.9896    2.6401   20.8058 O.2     1  UNL1       -0.1576
     22 C          -2.6895    3.9885   19.1959 C.3     1  UNL1        0.1457
     23 C          -2.0062    4.5466   17.9827 C.3     1  UNL1        0.0270
     24 C          -4.1842    3.8663   19.2252 C.3     1  UNL1        0.0270
@<TRIPOS>BOND
     1    10    11    1
     2    11    12   ar
     3    12    13   ar
     4    13    14   ar
     5    14     1    1
     6     1     2   ar
     7     2     3   ar
     8     3     4   ar
     9     4     5   ar
    10     5     6   ar
    11     5     7    1
    12     7     8    1
    13     8    17    1
    14    17    19    1
    15    19    20    2
    16    19    21    2
    17    19    22    1
    18    22    23    1
    19    22    24    1
    20     8     9    1
    21    14    15   ar
    22    15    16   ar
    23    16    11   ar
    24     6     1   ar
    25     9     4    1
    26    17    18    1
@<TRIPOS>MOLECULE
*****
 24 26 0 0 0
SMALL
GASTEIGER

@<TRIPOS>ATOM
      1 C           0.4718    1.6357   19.2939 C.ar    1  UNL1        0.0012
      2 C           0.2048    0.6563   20.3982 C.ar    1  UNL1       -0.0003
      3 C           1.0851   -0.5471   20.5624 C.ar    1  UNL1       -0.0045
      4 C           2.2323   -0.7711   19.6223 C.ar    1  UNL1       -0.0247
      5 C           2.4992    0.2083   18.5180 C.ar    1  UNL1       -0.0247
      6 C           1.6190    1.4116   18.3538 C.ar    1  UNL1       -0.0045
      7 C           3.6950   -0.2729   17.7508 C.3     1  UNL1        0.0437
      8 C           4.1670   -1.5497   18.3809 C.3     1  UNL1        0.0838
      9 C           3.2630   -1.8576   19.5376 C.3     1  UNL1        0.0437
     10 C          -3.0492    6.4494   18.6369 C.3     1  UNL1        0.0521
     11 C          -2.1690    5.2460   18.8011 C.ar    1  UNL1        0.0594
     12 C          -1.1992    4.8728   17.7193 C.ar    1  UNL1        0.0147
     13 C          -0.3190    3.6693   17.8835 C.ar    1  UNL1        0.0028
     14 C          -0.4085    2.8391   19.1296 C.ar    1  UNL1        0.0191
     15 C          -1.3782    3.2123   20.2114 C.ar    1  UNL1        0.0984
     16 N          -2.2584    4.4157   20.0472 N.ar    1  UNL1       -0.2481
     17 N           5.3376   -2.3738   17.9330 N.3     1  UNL1       -0.1841
     18 H           5.3581   -2.3270   16.9143 H       1  UNL1        0.1484
     19 S           6.7191   -2.0359   18.4098 S.O2    1  UNL1        0.0390
     20 O           6.9338   -1.1911   17.1890 O.2     1  UNL1       -0.1576
     21 O           6.5043   -2.8806   19.6306 O.2     1  UNL1       -0.1576
     22 C           8.1005   -1.6979   18.8866 C.3     1  UNL1        0.1457
     23 C           8.4645   -0.2729   19.1814 C.3     1  UNL1        0.0270
     24 C           9.1180   -2.7849   19.0687 C.3     1  UNL1        0.0270
@<TRIPOS>BOND
     1    10    11    1
     2    11    12   ar
     3    12    13   ar
     4    13    14   ar
     5    14     1    1
     6     1     2   ar
     7     2     3   ar
     8     3     4   ar
     9     4     5   ar
    10     5     6   ar
    11     5     7    1
    12     7     8    1
    13     8    17    1
    14    17    19    1
    15    19    20    2
    16    19    21    2
    17    19    22    1
    18    22    23    1
    19    22    24    1
    20     8     9    1
    21    14    15   ar
    22    15    16   ar
    23    16    11   ar
    24     6     1   ar
    25     9     4    1
    26    17    18    1
