@<TRIPOS>MOLECULE
*****
 38 42 0 0 0
SMALL
GASTEIGER

@<TRIPOS>ATOM
      1 C           5.5343    0.2992   26.8946 C.3     1  UNL1        0.1139
      2 C           5.2061   -0.3913   25.6041 C.ar    1  UNL1       -0.0029
      3 C           6.3085   -0.9181   24.7340 C.ar    1  UNL1       -0.0026
      4 C           5.9804   -1.6087   23.4434 C.ar    1  UNL1       -0.0003
      5 C           4.5498   -1.7724   23.0231 C.ar    1  UNL1       -0.0000
      6 C           3.4474   -1.2457   23.8933 C.ar    1  UNL1       -0.0003
      7 C           3.7756   -0.5551   25.1838 C.ar    1  UNL1       -0.0026
      8 C           4.2216   -2.4630   21.7326 C.ar    1  UNL1       -0.0000
      9 C           3.4964   -1.7219   20.6488 C.ar    1  UNL1       -0.0000
     10 C           3.1682   -2.4124   19.3582 C.ar    1  UNL1        0.0000
     11 C           3.5652   -3.8440   19.1515 C.ar    1  UNL1        0.0000
     12 C           4.2905   -4.5852   20.2354 C.ar    1  UNL1        0.0000
     13 C           4.6187   -3.8946   21.5259 C.ar    1  UNL1       -0.0000
     14 C           7.9246    1.1792   27.4065 C.3     1  UNL1        0.1152
     15 N           6.8814    0.1081   27.5261 N.am    1  UNL1       -0.2729
     16 C           7.1854   -1.1544   28.2772 C.2     1  UNL1        0.2465
     17 O           8.5325   -1.3455   28.9086 O.2     1  UNL1       -0.2730
     18 C           6.1422   -2.2255   28.3967 C.3     1  UNL1        0.1835
     19 N           6.5354   -3.6124   28.8118 N.am    1  UNL1       -0.2439
     20 C           6.5445   -3.9862   30.2644 C.2     1  UNL1        0.2744
     21 O           6.1605   -2.9733   31.3020 O.2     1  UNL1       -0.2705
     22 C           6.9377   -5.3730   30.6795 C.3     1  UNL1        0.2900
     23 O           7.3217   -6.3859   29.6419 O.3     1  UNL1       -0.4643
     24 C           7.3125   -6.0120   28.1893 C.ar    1  UNL1        0.1537
     25 C           7.6965   -7.0249   27.1517 C.ar    1  UNL1        0.0504
     26 C           7.6874   -6.6511   25.6991 C.ar    1  UNL1        0.0713
     27 CL          8.0714   -7.6640   24.6616 Cl      1  UNL1       -0.0813
     28 C           7.2942   -5.2642   25.2840 C.ar    1  UNL1        0.0696
     29 CL          7.2851   -4.8904   23.8314 Cl      1  UNL1       -0.0813
     30 C           6.9102   -4.2513   26.3216 C.ar    1  UNL1        0.0302
     31 C           6.9194   -4.6253   27.7743 C.ar    1  UNL1        0.0894
     32 C           4.5154    1.1809   27.5537 C.3     1  UNL1        0.0968
     33 N           3.5706    0.6071   28.5677 N.3     1  UNL1       -0.2667
     34 C           2.1212    0.4279   28.2253 C.3     1  UNL1        0.1047
     35 C           1.1764   -0.1460   29.2393 C.3     1  UNL1        0.1595
     36 O           1.6811   -0.5406   30.5956 O.3     1  UNL1       -0.3508
     37 C           3.1304   -0.3614   30.9380 C.3     1  UNL1        0.1595
     38 C           4.0752    0.2124   29.9240 C.3     1  UNL1        0.1047
@<TRIPOS>BOND
     1    14    15    1
     2    15    16   am
     3    16    17    2
     4    16    18    1
     5    18    19    1
     6    19    20   am
     7    20    21    2
     8    20    22    1
     9    22    23    1
    10    23    24    1
    11    24    25   ar
    12    25    26   ar
    13    26    27    1
    14    26    28   ar
    15    28    29    1
    16    28    30   ar
    17    30    31   ar
    18    15     1    1
    19     1    32    1
    20    32    33    1
    21    33    34    1
    22    34    35    1
    23    35    36    1
    24    36    37    1
    25    37    38    1
    26     1     2    1
    27     2     3   ar
    28     3     4   ar
    29     4     5   ar
    30     5     8    1
    31     8     9   ar
    32     9    10   ar
    33    10    11   ar
    34    11    12   ar
    35    12    13   ar
    36     5     6   ar
    37     6     7   ar
    38    31    19    1
    39    38    33    1
    40     7     2   ar
    41    31    24   ar
    42    13     8   ar
@<TRIPOS>MOLECULE
*****
 38 42 0 0 0
SMALL
GASTEIGER

@<TRIPOS>ATOM
      1 C           0.6644    4.4187   18.4135 C.3     1  UNL1        0.1139
      2 C           1.3711    3.0969   18.4706 C.ar    1  UNL1       -0.0029
      3 C           0.5801    1.8225   18.4607 C.ar    1  UNL1       -0.0026
      4 C           1.2868    0.5006   18.5178 C.ar    1  UNL1       -0.0003
      5 C           2.7845    0.4532   18.5849 C.ar    1  UNL1       -0.0000
      6 C           3.5756    1.7277   18.5948 C.ar    1  UNL1       -0.0003
      7 C           2.8688    3.0495   18.5377 C.ar    1  UNL1       -0.0026
      8 C           3.4912   -0.8686   18.6421 C.ar    1  UNL1       -0.0000
      9 C           2.9645   -1.9632   19.5221 C.ar    1  UNL1       -0.0000
     10 C           3.6712   -3.2851   19.5792 C.ar    1  UNL1        0.0000
     11 C           4.9046   -3.5124   18.7564 C.ar    1  UNL1        0.0000
     12 C           5.4313   -2.4177   17.8764 C.ar    1  UNL1        0.0000
     13 C           4.7246   -1.0959   17.8192 C.ar    1  UNL1       -0.0000
     14 C           1.6009    6.6867   19.2673 C.3     1  UNL1        0.1152
     15 N           0.8466    5.4151   19.5199 N.am    1  UNL1       -0.2729
     16 C           0.2744    5.1397   20.8789 C.2     1  UNL1        0.2465
     17 O           0.4566    6.1360   21.9853 O.2     1  UNL1       -0.2730
     18 C          -0.4799    3.8680   21.1314 C.3     1  UNL1        0.1835
     19 N          -0.6628    3.3705   22.5347 N.am    1  UNL1       -0.2439
     20 C          -1.8230    3.8505   23.3554 C.2     1  UNL1        0.2744
     21 O          -2.8004    4.8280   22.7729 O.2     1  UNL1       -0.2705
     22 C          -2.0058    3.3530   24.7586 C.3     1  UNL1        0.2900
     23 O          -1.0285    2.3755   25.3411 O.3     1  UNL1       -0.4643
     24 C           0.1317    1.8955   24.5204 C.ar    1  UNL1        0.1537
     25 C           1.1090    0.9181   25.1029 C.ar    1  UNL1        0.0504
     26 C           2.2692    0.4381   24.2823 C.ar    1  UNL1        0.0713
     27 CL          3.2466   -0.5394   24.8648 Cl      1  UNL1       -0.0813
     28 C           2.4521    0.9356   22.8790 C.ar    1  UNL1        0.0696
     29 CL          3.6123    0.4556   22.0583 Cl      1  UNL1       -0.0813
     30 C           1.4748    1.9131   22.2965 C.ar    1  UNL1        0.0302
     31 C           0.3145    2.3930   23.1172 C.ar    1  UNL1        0.0894
     32 C          -0.2246    4.7443   17.2499 C.3     1  UNL1        0.0968
     33 N          -1.6549    4.2924   17.2493 N.3     1  UNL1       -0.2667
     34 C          -2.2820    3.7893   15.9829 C.3     1  UNL1        0.1047
     35 C          -3.7123    3.3374   15.9824 C.3     1  UNL1        0.1595
     36 O          -4.5155    3.3886   17.2483 O.3     1  UNL1       -0.3508
     37 C          -3.8884    3.8917   18.5146 C.3     1  UNL1        0.1595
     38 C          -2.4581    4.3436   18.5151 C.3     1  UNL1        0.1047
@<TRIPOS>BOND
     1    14    15    1
     2    15    16   am
     3    16    17    2
     4    16    18    1
     5    18    19    1
     6    19    20   am
     7    20    21    2
     8    20    22    1
     9    22    23    1
    10    23    24    1
    11    24    25   ar
    12    25    26   ar
    13    26    27    1
    14    26    28   ar
    15    28    29    1
    16    28    30   ar
    17    30    31   ar
    18    15     1    1
    19     1    32    1
    20    32    33    1
    21    33    34    1
    22    34    35    1
    23    35    36    1
    24    36    37    1
    25    37    38    1
    26     1     2    1
    27     2     3   ar
    28     3     4   ar
    29     4     5   ar
    30     5     8    1
    31     8     9   ar
    32     9    10   ar
    33    10    11   ar
    34    11    12   ar
    35    12    13   ar
    36     5     6   ar
    37     6     7   ar
    38    31    19    1
    39    38    33    1
    40     7     2   ar
    41    31    24   ar
    42    13     8   ar
@<TRIPOS>MOLECULE
*****
 38 42 0 0 0
SMALL
GASTEIGER

@<TRIPOS>ATOM
      1 C           4.1816   -2.0822   18.8337 C.3     1  UNL1        0.1139
      2 C           3.1577   -0.9942   18.9664 C.ar    1  UNL1       -0.0029
      3 C           3.2997    0.2703   18.1722 C.ar    1  UNL1       -0.0026
      4 C           2.2757    1.3584   18.3049 C.ar    1  UNL1       -0.0003
      5 C           1.1097    1.1819   19.2319 C.ar    1  UNL1       -0.0000
      6 C           0.9677   -0.0826   20.0262 C.ar    1  UNL1       -0.0003
      7 C           1.9917   -1.1706   19.8934 C.ar    1  UNL1       -0.0026
      8 C           0.0857    2.2699   19.3646 C.ar    1  UNL1       -0.0000
      9 C          -0.6819    2.4254   20.6439 C.ar    1  UNL1       -0.0000
     10 C          -1.7059    3.5134   20.7767 C.ar    1  UNL1        0.0000
     11 C          -1.9623    4.4460   19.6302 C.ar    1  UNL1        0.0000
     12 C          -1.1947    4.2906   18.3509 C.ar    1  UNL1        0.0000
     13 C          -0.1707    3.2025   18.2181 C.ar    1  UNL1       -0.0000
     14 C           3.4033   -4.5533   19.0277 C.3     1  UNL1        0.1152
     15 N           4.0456   -3.3421   19.6362 N.am    1  UNL1       -0.2729
     16 C           4.5520   -3.3908   21.0474 C.2     1  UNL1        0.2465
     17 O           4.4160   -4.6507   21.8500 O.2     1  UNL1       -0.2730
     18 C           5.1944   -2.1796   21.6559 C.3     1  UNL1        0.1835
     19 N           5.3596   -2.0859   23.1439 N.am    1  UNL1       -0.2439
     20 C           6.4842   -2.8119   23.8208 C.2     1  UNL1        0.2744
     21 O           7.4436   -3.6316   23.0097 O.2     1  UNL1       -0.2705
     22 C           6.6494   -2.7183   25.3087 C.3     1  UNL1        0.2900
     23 O           5.6900   -1.8986   26.1197 O.3     1  UNL1       -0.4643
     24 C           4.5654   -1.1726   25.4428 C.ar    1  UNL1        0.1537
     25 C           3.6061   -0.3530   26.2538 C.ar    1  UNL1        0.0504
     26 C           2.4815    0.3730   25.5770 C.ar    1  UNL1        0.0713
     27 CL          1.5221    1.1927   26.3880 Cl      1  UNL1       -0.0813
     28 C           2.3162    0.2794   24.0890 C.ar    1  UNL1        0.0696
     29 CL          1.1917    1.0054   23.4121 Cl      1  UNL1       -0.0813
     30 C           3.2756   -0.5403   23.2780 C.ar    1  UNL1        0.0302
     31 C           4.4002   -1.2663   23.9549 C.ar    1  UNL1        0.0894
     32 C           5.3417   -1.9103   17.8983 C.3     1  UNL1        0.0968
     33 N           6.6585   -1.4160   18.4196 N.3     1  UNL1       -0.2667
     34 C           7.6775   -2.3919   18.9291 C.3     1  UNL1        0.1047
     35 C           8.9943   -1.8976   19.4503 C.3     1  UNL1        0.1595
     36 O           9.2922   -0.4275   19.4621 O.3     1  UNL1       -0.3508
     37 C           8.2732    0.5483   18.9526 C.3     1  UNL1        0.1595
     38 C           6.9564    0.0540   18.4314 C.3     1  UNL1        0.1047
@<TRIPOS>BOND
     1    14    15    1
     2    15    16   am
     3    16    17    2
     4    16    18    1
     5    18    19    1
     6    19    20   am
     7    20    21    2
     8    20    22    1
     9    22    23    1
    10    23    24    1
    11    24    25   ar
    12    25    26   ar
    13    26    27    1
    14    26    28   ar
    15    28    29    1
    16    28    30   ar
    17    30    31   ar
    18    15     1    1
    19     1    32    1
    20    32    33    1
    21    33    34    1
    22    34    35    1
    23    35    36    1
    24    36    37    1
    25    37    38    1
    26     1     2    1
    27     2     3   ar
    28     3     4   ar
    29     4     5   ar
    30     5     8    1
    31     8     9   ar
    32     9    10   ar
    33    10    11   ar
    34    11    12   ar
    35    12    13   ar
    36     5     6   ar
    37     6     7   ar
    38    31    19    1
    39    38    33    1
    40     7     2   ar
    41    31    24   ar
    42    13     8   ar
@<TRIPOS>MOLECULE
*****
 38 42 0 0 0
SMALL
GASTEIGER

@<TRIPOS>ATOM
      1 C           4.3994   -3.0053   20.7754 C.3     1  UNL1        0.1139
      2 C           3.4159   -1.8926   20.9866 C.ar    1  UNL1       -0.0029
      3 C           3.4362   -1.1061   22.2637 C.ar    1  UNL1       -0.0026
      4 C           2.4527    0.0067   22.4750 C.ar    1  UNL1       -0.0003
      5 C           1.4490    0.3330   21.4090 C.ar    1  UNL1       -0.0000
      6 C           1.4288   -0.4536   20.1319 C.ar    1  UNL1       -0.0003
      7 C           2.4123   -1.5663   19.9207 C.ar    1  UNL1       -0.0026
      8 C           0.4656    1.4457   21.6202 C.ar    1  UNL1       -0.0000
      9 C          -0.3911    1.9154   20.4821 C.ar    1  UNL1       -0.0000
     10 C          -1.3746    3.0282   20.6933 C.ar    1  UNL1        0.0000
     11 C          -1.5013    3.6712   22.0425 C.ar    1  UNL1        0.0000
     12 C          -0.6445    3.2014   23.1806 C.ar    1  UNL1        0.0000
     13 C           0.3389    2.0887   22.9695 C.ar    1  UNL1       -0.0000
     14 C           4.6606   -4.4121   18.6069 C.3     1  UNL1        0.1152
     15 N           5.0229   -3.2092   19.4265 N.am    1  UNL1       -0.2729
     16 C           6.0088   -2.2102   18.8972 C.2     1  UNL1        0.2465
     17 O           6.6324   -2.4142   17.5483 O.2     1  UNL1       -0.2730
     18 C           6.3711   -1.0074   19.7169 C.3     1  UNL1        0.1835
     19 N           7.0465    0.1654   19.0698 N.am    1  UNL1       -0.2439
     20 C           8.5356    0.1678   18.8897 C.2     1  UNL1        0.2744
     21 O           9.3494   -1.0025   19.3566 O.2     1  UNL1       -0.2705
     22 C           9.2108    1.3406   18.2427 C.3     1  UNL1        0.2900
     23 O           8.3970    2.5109   17.7758 O.3     1  UNL1       -0.4643
     24 C           6.9079    2.5085   17.9559 C.ar    1  UNL1        0.1537
     25 C           6.0940    3.6788   17.4891 C.ar    1  UNL1        0.0504
     26 C           4.6049    3.6764   17.6692 C.ar    1  UNL1        0.0713
     27 CL          3.7910    4.8467   17.2023 Cl      1  UNL1       -0.0813
     28 C           3.9295    2.5036   18.3162 C.ar    1  UNL1        0.0696
     29 CL          2.4404    2.5012   18.4964 Cl      1  UNL1       -0.0813
     30 C           4.7434    1.3333   18.7831 C.ar    1  UNL1        0.0302
     31 C           6.2326    1.3357   18.6029 C.ar    1  UNL1        0.0894
     32 C           4.7593   -3.9142   21.9132 C.3     1  UNL1        0.0968
     33 N           6.0575   -3.7269   22.6409 N.3     1  UNL1       -0.2667
     34 C           7.3573   -3.9364   21.9220 C.3     1  UNL1        0.1047
     35 C           8.6555   -3.7491   22.6497 C.3     1  UNL1        0.1595
     36 O           8.6540   -3.3523   24.0963 O.3     1  UNL1       -0.3508
     37 C           7.3543   -3.1428   24.8151 C.3     1  UNL1        0.1595
     38 C           6.0560   -3.3301   24.0875 C.3     1  UNL1        0.1047
@<TRIPOS>BOND
     1    14    15    1
     2    15    16   am
     3    16    17    2
     4    16    18    1
     5    18    19    1
     6    19    20   am
     7    20    21    2
     8    20    22    1
     9    22    23    1
    10    23    24    1
    11    24    25   ar
    12    25    26   ar
    13    26    27    1
    14    26    28   ar
    15    28    29    1
    16    28    30   ar
    17    30    31   ar
    18    15     1    1
    19     1    32    1
    20    32    33    1
    21    33    34    1
    22    34    35    1
    23    35    36    1
    24    36    37    1
    25    37    38    1
    26     1     2    1
    27     2     3   ar
    28     3     4   ar
    29     4     5   ar
    30     5     8    1
    31     8     9   ar
    32     9    10   ar
    33    10    11   ar
    34    11    12   ar
    35    12    13   ar
    36     5     6   ar
    37     6     7   ar
    38    31    19    1
    39    38    33    1
    40     7     2   ar
    41    31    24   ar
    42    13     8   ar
@<TRIPOS>MOLECULE
*****
 38 42 0 0 0
SMALL
GASTEIGER

@<TRIPOS>ATOM
      1 C          -0.3713    2.4023   25.7900 C.3     1  UNL1        0.1139
      2 C          -1.7373    3.0025   25.6357 C.ar    1  UNL1       -0.0029
      3 C          -2.2942    3.2575   24.2665 C.ar    1  UNL1       -0.0026
      4 C          -3.6602    3.8577   24.1122 C.ar    1  UNL1       -0.0003
      5 C          -4.4694    4.2029   25.3272 C.ar    1  UNL1       -0.0000
      6 C          -3.9124    3.9478   26.6965 C.ar    1  UNL1       -0.0003
      7 C          -2.5464    3.3476   26.8507 C.ar    1  UNL1       -0.0026
      8 C          -5.8353    4.8030   25.1729 C.ar    1  UNL1       -0.0000
      9 C          -6.6921    4.4261   24.0009 C.ar    1  UNL1       -0.0000
     10 C          -8.0582    5.0263   23.8466 C.ar    1  UNL1        0.0000
     11 C          -8.5674    6.0034   24.8644 C.ar    1  UNL1        0.0000
     12 C          -7.7105    6.3804   26.0365 C.ar    1  UNL1        0.0000
     13 C          -6.3445    5.7802   26.1907 C.ar    1  UNL1       -0.0000
     14 C           1.3898    4.3054   25.6274 C.3     1  UNL1        0.1152
     15 N           0.8050    3.0282   25.1013 N.am    1  UNL1       -0.2729
     16 C           1.3966    2.3769   23.8864 C.2     1  UNL1        0.2465
     17 O           2.5730    3.0029   23.1977 O.2     1  UNL1       -0.2730
     18 C           0.8119    1.0998   23.3603 C.3     1  UNL1        0.1835
     19 N           1.1041    0.6639   21.9550 N.am    1  UNL1       -0.2439
     20 C           0.3249    1.2445   20.8123 C.2     1  UNL1        0.2744
     21 O          -0.7466    2.2608   21.0749 O.2     1  UNL1       -0.2705
     22 C           0.6171    0.8086   19.4071 C.3     1  UNL1        0.2900
     23 O           1.6887   -0.2077   19.1446 O.3     1  UNL1       -0.4643
     24 C           2.4679   -0.7882   20.2873 C.ar    1  UNL1        0.1537
     25 C           3.5394   -1.8046   20.0248 C.ar    1  UNL1        0.0504
     26 C           4.3187   -2.3851   21.1674 C.ar    1  UNL1        0.0713
     27 CL          5.3902   -3.4014   20.9049 Cl      1  UNL1       -0.0813
     28 C           4.0264   -1.9493   22.5727 C.ar    1  UNL1        0.0696
     29 CL          4.8056   -2.5298   23.7154 Cl      1  UNL1       -0.0813
     30 C           2.9549   -0.9329   22.8352 C.ar    1  UNL1        0.0302
     31 C           2.1756   -0.3524   21.6925 C.ar    1  UNL1        0.0894
     32 C          -0.1817    1.1761   26.6330 C.3     1  UNL1        0.0968
     33 N           0.4746    1.2845   27.9775 N.3     1  UNL1       -0.2667
     34 C           0.4470    2.5860   28.7228 C.3     1  UNL1        0.1047
     35 C           1.1033    2.6943   30.0672 C.3     1  UNL1        0.1595
     36 O           1.7870    1.5012   30.6664 O.3     1  UNL1       -0.3508
     37 C           1.8145    0.1998   29.9211 C.3     1  UNL1        0.1595
     38 C           1.1583    0.0914   28.5767 C.3     1  UNL1        0.1047
@<TRIPOS>BOND
     1    14    15    1
     2    15    16   am
     3    16    17    2
     4    16    18    1
     5    18    19    1
     6    19    20   am
     7    20    21    2
     8    20    22    1
     9    22    23    1
    10    23    24    1
    11    24    25   ar
    12    25    26   ar
    13    26    27    1
    14    26    28   ar
    15    28    29    1
    16    28    30   ar
    17    30    31   ar
    18    15     1    1
    19     1    32    1
    20    32    33    1
    21    33    34    1
    22    34    35    1
    23    35    36    1
    24    36    37    1
    25    37    38    1
    26     1     2    1
    27     2     3   ar
    28     3     4   ar
    29     4     5   ar
    30     5     8    1
    31     8     9   ar
    32     9    10   ar
    33    10    11   ar
    34    11    12   ar
    35    12    13   ar
    36     5     6   ar
    37     6     7   ar
    38    31    19    1
    39    38    33    1
    40     7     2   ar
    41    31    24   ar
    42    13     8   ar
@<TRIPOS>MOLECULE
*****
 38 42 0 0 0
SMALL
GASTEIGER

@<TRIPOS>ATOM
      1 C          -0.0066    2.2147   21.0553 C.3     1  UNL1        0.1139
      2 C           0.0300    2.1109   22.5512 C.ar    1  UNL1       -0.0029
      3 C           0.9308    1.1097   23.2116 C.ar    1  UNL1       -0.0026
      4 C           0.9675    1.0058   24.7076 C.ar    1  UNL1       -0.0003
      5 C           0.1033    1.9031   25.5431 C.ar    1  UNL1       -0.0000
      6 C          -0.7975    2.9043   24.8826 C.ar    1  UNL1       -0.0003
      7 C          -0.8341    3.0081   23.3867 C.ar    1  UNL1       -0.0026
      8 C           0.1399    1.7992   27.0390 C.ar    1  UNL1       -0.0000
      9 C           0.9557    2.7714   27.8385 C.ar    1  UNL1       -0.0000
     10 C           0.9923    2.6676   29.3345 C.ar    1  UNL1        0.0000
     11 C           0.2132    1.5915   30.0309 C.ar    1  UNL1        0.0000
     12 C          -0.6027    0.6193   29.2313 C.ar    1  UNL1        0.0000
     13 C          -0.6393    0.7232   27.7354 C.ar    1  UNL1       -0.0000
     14 C           1.0625    4.4577   20.2964 C.3     1  UNL1        0.1152
     15 N          -0.1331    3.5579   20.3996 N.am    1  UNL1       -0.2729
     16 C          -1.4554    4.0011   19.8470 C.2     1  UNL1        0.2465
     17 O          -1.5820    5.3442   19.1913 O.2     1  UNL1       -0.2730
     18 C          -2.6510    3.1012   19.9502 C.3     1  UNL1        0.1835
     19 N          -4.0306    3.6642   19.7777 N.am    1  UNL1       -0.2439
     20 C          -4.5598    3.9443   18.4024 C.2     1  UNL1        0.2744
     21 O          -3.7095    3.6614   17.1995 O.2     1  UNL1       -0.2705
     22 C          -5.9394    4.5073   18.2299 C.3     1  UNL1        0.2900
     23 O          -6.7898    4.7902   19.4328 O.3     1  UNL1       -0.4643
     24 C          -6.2606    4.5101   20.8081 C.ar    1  UNL1        0.1537
     25 C          -7.1109    4.7930   22.0109 C.ar    1  UNL1        0.0504
     26 C          -6.5817    4.5129   23.3862 C.ar    1  UNL1        0.0713
     27 CL         -7.4321    4.7959   24.5890 Cl      1  UNL1       -0.0813
     28 C          -5.2021    3.9499   23.5587 C.ar    1  UNL1        0.0696
     29 CL         -4.6729    3.6698   24.9340 Cl      1  UNL1       -0.0813
     30 C          -4.3517    3.6670   22.3559 C.ar    1  UNL1        0.0302
     31 C          -4.8810    3.9471   20.9805 C.ar    1  UNL1        0.0894
     32 C           0.0834    0.9754   20.2149 C.3     1  UNL1        0.0968
     33 N           1.4168    0.5023   19.7166 N.3     1  UNL1       -0.2667
     34 C           2.1791    1.3235   18.7193 C.3     1  UNL1        0.1047
     35 C           3.5125    0.8504   18.2210 C.3     1  UNL1        0.1595
     36 O           4.0835   -0.4439   18.7200 O.3     1  UNL1       -0.3508
     37 C           3.3212   -1.2650   19.7173 C.3     1  UNL1        0.1595
     38 C           1.9878   -0.7919   20.2156 C.3     1  UNL1        0.1047
@<TRIPOS>BOND
     1    14    15    1
     2    15    16   am
     3    16    17    2
     4    16    18    1
     5    18    19    1
     6    19    20   am
     7    20    21    2
     8    20    22    1
     9    22    23    1
    10    23    24    1
    11    24    25   ar
    12    25    26   ar
    13    26    27    1
    14    26    28   ar
    15    28    29    1
    16    28    30   ar
    17    30    31   ar
    18    15     1    1
    19     1    32    1
    20    32    33    1
    21    33    34    1
    22    34    35    1
    23    35    36    1
    24    36    37    1
    25    37    38    1
    26     1     2    1
    27     2     3   ar
    28     3     4   ar
    29     4     5   ar
    30     5     8    1
    31     8     9   ar
    32     9    10   ar
    33    10    11   ar
    34    11    12   ar
    35    12    13   ar
    36     5     6   ar
    37     6     7   ar
    38    31    19    1
    39    38    33    1
    40     7     2   ar
    41    31    24   ar
    42    13     8   ar
@<TRIPOS>MOLECULE
*****
 38 42 0 0 0
SMALL
GASTEIGER

@<TRIPOS>ATOM
      1 C          -0.3378    2.9782   21.1086 C.3     1  UNL1        0.1139
      2 C           0.6062    1.9042   20.6555 C.ar    1  UNL1       -0.0029
      3 C           1.9919    2.2636   20.2078 C.ar    1  UNL1       -0.0026
      4 C           2.9360    1.1896   19.7547 C.ar    1  UNL1       -0.0003
      5 C           2.4942   -0.2439   19.7494 C.ar    1  UNL1       -0.0000
      6 C           1.1084   -0.6033   20.1971 C.ar    1  UNL1       -0.0003
      7 C           0.1644    0.4707   20.6502 C.ar    1  UNL1       -0.0026
      8 C           3.4382   -1.3179   19.2963 C.ar    1  UNL1       -0.0000
      9 C           4.6596   -0.9575   18.5038 C.ar    1  UNL1       -0.0000
     10 C           5.6037   -2.0316   18.0507 C.ar    1  UNL1        0.0000
     11 C           5.3263   -3.4660   18.3902 C.ar    1  UNL1        0.0000
     12 C           4.1048   -3.8265   19.1828 C.ar    1  UNL1        0.0000
     13 C           3.1608   -2.7524   19.6358 C.ar    1  UNL1       -0.0000
     14 C           0.6442    5.3785   21.2641 C.3     1  UNL1        0.1152
     15 N           0.1695    4.1233   21.9341 N.am    1  UNL1       -0.2729
     16 C           0.2020    4.0130   23.4298 C.2     1  UNL1        0.2465
     17 O           0.7093    5.1581   24.2553 O.2     1  UNL1       -0.2730
     18 C          -0.2727    2.7578   24.0998 C.3     1  UNL1        0.1835
     19 N           0.3119    2.3439   25.4178 N.am    1  UNL1       -0.2439
     20 C          -0.2007    2.9519   26.6896 C.2     1  UNL1        0.2744
     21 O          -1.2979    3.9737   26.6435 O.2     1  UNL1       -0.2705
     22 C           0.3838    2.5380   28.0075 C.3     1  UNL1        0.2900
     23 O           1.4810    1.5162   28.0536 O.3     1  UNL1       -0.4643
     24 C           1.9936    0.9082   26.7818 C.ar    1  UNL1        0.1537
     25 C           3.0908   -0.1136   26.8279 C.ar    1  UNL1        0.0504
     26 C           3.6034   -0.7215   25.5560 C.ar    1  UNL1        0.0713
     27 CL          4.7005   -1.7433   25.6021 Cl      1  UNL1       -0.0813
     28 C           3.0188   -0.3077   24.2380 C.ar    1  UNL1        0.0696
     29 CL          3.5314   -0.9156   22.9662 Cl      1  UNL1       -0.0813
     30 C           1.9216    0.7141   24.1919 C.ar    1  UNL1        0.0302
     31 C           1.4090    1.3221   25.4639 C.ar    1  UNL1        0.0894
     32 C          -1.7891    2.9072   20.7361 C.3     1  UNL1        0.0968
     33 N          -2.2717    3.5562   19.4727 N.3     1  UNL1       -0.2667
     34 C          -1.2883    3.9643   18.4161 C.3     1  UNL1        0.1047
     35 C          -1.7709    4.6132   17.1528 C.3     1  UNL1        0.1595
     36 O          -3.2370    4.8540   16.9461 O.3     1  UNL1       -0.3508
     37 C          -4.2204    4.4459   18.0027 C.3     1  UNL1        0.1595
     38 C          -3.7377    3.7970   19.2660 C.3     1  UNL1        0.1047
@<TRIPOS>BOND
     1    14    15    1
     2    15    16   am
     3    16    17    2
     4    16    18    1
     5    18    19    1
     6    19    20   am
     7    20    21    2
     8    20    22    1
     9    22    23    1
    10    23    24    1
    11    24    25   ar
    12    25    26   ar
    13    26    27    1
    14    26    28   ar
    15    28    29    1
    16    28    30   ar
    17    30    31   ar
    18    15     1    1
    19     1    32    1
    20    32    33    1
    21    33    34    1
    22    34    35    1
    23    35    36    1
    24    36    37    1
    25    37    38    1
    26     1     2    1
    27     2     3   ar
    28     3     4   ar
    29     4     5   ar
    30     5     8    1
    31     8     9   ar
    32     9    10   ar
    33    10    11   ar
    34    11    12   ar
    35    12    13   ar
    36     5     6   ar
    37     6     7   ar
    38    31    19    1
    39    38    33    1
    40     7     2   ar
    41    31    24   ar
    42    13     8   ar
@<TRIPOS>MOLECULE
*****
 38 42 0 0 0
SMALL
GASTEIGER

@<TRIPOS>ATOM
      1 C           4.9154    0.2523   28.4680 C.3     1  UNL1        0.1139
      2 C           4.4573    0.0601   27.0527 C.ar    1  UNL1       -0.0029
      3 C           4.1161    1.2507   26.2066 C.ar    1  UNL1       -0.0026
      4 C           3.6579    1.0586   24.7912 C.ar    1  UNL1       -0.0003
      5 C           3.5411   -0.3243   24.2220 C.ar    1  UNL1       -0.0000
      6 C           3.8825   -1.5150   25.0681 C.ar    1  UNL1       -0.0003
      7 C           4.3405   -1.3228   26.4834 C.ar    1  UNL1       -0.0026
      8 C           3.0831   -0.5165   22.8067 C.ar    1  UNL1       -0.0000
      9 C           3.6787   -1.6076   21.9672 C.ar    1  UNL1       -0.0000
     10 C           3.2206   -1.7998   20.5518 C.ar    1  UNL1        0.0000
     11 C           2.1669   -0.9009   19.9759 C.ar    1  UNL1        0.0000
     12 C           1.5713    0.1902   20.8154 C.ar    1  UNL1        0.0000
     13 C           2.0293    0.3824   22.2308 C.ar    1  UNL1       -0.0000
     14 C           7.2811    1.3227   28.5555 C.3     1  UNL1        0.1152
     15 N           6.3740    0.1543   28.8041 N.am    1  UNL1       -0.2729
     16 C           6.9254   -1.1123   29.3888 C.2     1  UNL1        0.2465
     17 O           8.3840   -1.2103   29.7249 O.2     1  UNL1       -0.2730
     18 C           6.0183   -2.2807   29.6374 C.3     1  UNL1        0.1835
     19 N           6.5955   -3.6536   29.8165 N.am    1  UNL1       -0.2439
     20 C           6.8853   -4.1716   31.1940 C.2     1  UNL1        0.2744
     21 O           6.5978   -3.3168   32.3926 O.2     1  UNL1       -0.2705
     22 C           7.4625   -5.5445   31.3730 C.3     1  UNL1        0.2900
     23 O           7.7500   -6.3993   30.1745 O.3     1  UNL1       -0.4643
     24 C           7.4603   -5.8813   28.7969 C.ar    1  UNL1        0.1537
     25 C           7.7478   -6.7362   27.5983 C.ar    1  UNL1        0.0504
     26 C           7.4581   -6.2182   26.2208 C.ar    1  UNL1        0.0713
     27 CL          7.7456   -7.0731   25.0222 Cl      1  UNL1       -0.0813
     28 C           6.8808   -4.8453   26.0417 C.ar    1  UNL1        0.0696
     29 CL          6.5911   -4.3273   24.6642 Cl      1  UNL1       -0.0813
     30 C           6.5933   -3.9905   27.2403 C.ar    1  UNL1        0.0302
     31 C           6.8830   -4.5085   28.6179 C.ar    1  UNL1        0.0894
     32 C           3.9149    0.5426   29.5473 C.3     1  UNL1        0.0968
     33 N           2.4765    0.7778   29.1930 N.3     1  UNL1       -0.2667
     34 C           1.5349   -0.3833   29.0693 C.3     1  UNL1        0.1047
     35 C           0.0965   -0.1481   28.7149 C.3     1  UNL1        0.1595
     36 O          -0.4004    1.2484   28.4843 O.3     1  UNL1       -0.3508
     37 C           0.5412    2.4095   28.6080 C.3     1  UNL1        0.1595
     38 C           1.9796    2.1742   28.9623 C.3     1  UNL1        0.1047
@<TRIPOS>BOND
     1    14    15    1
     2    15    16   am
     3    16    17    2
     4    16    18    1
     5    18    19    1
     6    19    20   am
     7    20    21    2
     8    20    22    1
     9    22    23    1
    10    23    24    1
    11    24    25   ar
    12    25    26   ar
    13    26    27    1
    14    26    28   ar
    15    28    29    1
    16    28    30   ar
    17    30    31   ar
    18    15     1    1
    19     1    32    1
    20    32    33    1
    21    33    34    1
    22    34    35    1
    23    35    36    1
    24    36    37    1
    25    37    38    1
    26     1     2    1
    27     2     3   ar
    28     3     4   ar
    29     4     5   ar
    30     5     8    1
    31     8     9   ar
    32     9    10   ar
    33    10    11   ar
    34    11    12   ar
    35    12    13   ar
    36     5     6   ar
    37     6     7   ar
    38    31    19    1
    39    38    33    1
    40     7     2   ar
    41    31    24   ar
    42    13     8   ar
@<TRIPOS>MOLECULE
*****
 38 42 0 0 0
SMALL
GASTEIGER

@<TRIPOS>ATOM
      1 C           0.5156    1.9627   24.8376 C.3     1  UNL1        0.1139
      2 C           1.2429    1.0758   23.8709 C.ar    1  UNL1       -0.0029
      3 C           0.8913    1.1081   22.4131 C.ar    1  UNL1       -0.0026
      4 C           1.6186    0.2213   21.4463 C.ar    1  UNL1       -0.0003
      5 C           2.6975   -0.6978   21.9374 C.ar    1  UNL1       -0.0000
      6 C           3.0491   -0.7301   23.3953 C.ar    1  UNL1       -0.0003
      7 C           2.3218    0.1567   24.3620 C.ar    1  UNL1       -0.0026
      8 C           3.4248   -1.5846   20.9707 C.ar    1  UNL1       -0.0000
      9 C           4.3090   -2.6838   21.4806 C.ar    1  UNL1       -0.0000
     10 C           5.0364   -3.5707   20.5139 C.ar    1  UNL1        0.0000
     11 C           4.8795   -3.3583   19.0373 C.ar    1  UNL1        0.0000
     12 C           3.9952   -2.2591   18.5274 C.ar    1  UNL1        0.0000
     13 C           3.2679   -1.3723   19.4941 C.ar    1  UNL1       -0.0000
     14 C           1.5742    4.3343   24.9044 C.3     1  UNL1        0.1152
     15 N           0.4184    3.4365   24.5761 N.am    1  UNL1       -0.2729
     16 C          -0.8348    4.0125   23.9863 C.2     1  UNL1        0.2465
     17 O          -0.9321    5.4863   23.7249 O.2     1  UNL1       -0.2730
     18 C          -1.9907    3.1147   23.6580 C.3     1  UNL1        0.1835
     19 N          -3.3944    3.5709   23.9255 N.am    1  UNL1       -0.2439
     20 C          -3.8550    3.7929   25.3357 C.2     1  UNL1        0.2744
     21 O          -2.9119    3.5587   26.4784 O.2     1  UNL1       -0.2705
     22 C          -5.2586    4.2492   25.6031 C.3     1  UNL1        0.2900
     23 O          -6.2017    4.4834   24.4604 O.3     1  UNL1       -0.4643
     24 C          -5.7411    4.2614   23.0503 C.ar    1  UNL1        0.1537
     25 C          -6.6842    4.4957   21.9076 C.ar    1  UNL1        0.0504
     26 C          -6.2236    4.2737   20.4974 C.ar    1  UNL1        0.0713
     27 CL         -7.1667    4.5079   19.3547 Cl      1  UNL1       -0.0813
     28 C          -4.8199    3.8174   20.2299 C.ar    1  UNL1        0.0696
     29 CL         -4.3593    3.5954   18.8198 Cl      1  UNL1       -0.0813
     30 C          -3.8768    3.5831   21.3726 C.ar    1  UNL1        0.0302
     31 C          -4.3375    3.8052   22.7828 C.ar    1  UNL1        0.0894
     32 C          -0.1145    1.3756   26.0658 C.3     1  UNL1        0.0968
     33 N           0.4985    1.6197   27.4129 N.3     1  UNL1       -0.2667
     34 C           0.1784    2.8770   28.1659 C.3     1  UNL1        0.1047
     35 C           0.7914    3.1211   29.5130 C.3     1  UNL1        0.1595
     36 O           1.7245    2.1080   30.1071 O.3     1  UNL1       -0.3508
     37 C           2.0446    0.8508   29.3541 C.3     1  UNL1        0.1595
     38 C           1.4316    0.6067   28.0070 C.3     1  UNL1        0.1047
@<TRIPOS>BOND
     1    14    15    1
     2    15    16   am
     3    16    17    2
     4    16    18    1
     5    18    19    1
     6    19    20   am
     7    20    21    2
     8    20    22    1
     9    22    23    1
    10    23    24    1
    11    24    25   ar
    12    25    26   ar
    13    26    27    1
    14    26    28   ar
    15    28    29    1
    16    28    30   ar
    17    30    31   ar
    18    15     1    1
    19     1    32    1
    20    32    33    1
    21    33    34    1
    22    34    35    1
    23    35    36    1
    24    36    37    1
    25    37    38    1
    26     1     2    1
    27     2     3   ar
    28     3     4   ar
    29     4     5   ar
    30     5     8    1
    31     8     9   ar
    32     9    10   ar
    33    10    11   ar
    34    11    12   ar
    35    12    13   ar
    36     5     6   ar
    37     6     7   ar
    38    31    19    1
    39    38    33    1
    40     7     2   ar
    41    31    24   ar
    42    13     8   ar
