@<TRIPOS>MOLECULE
*****
 35 38 0 0 0
SMALL
GASTEIGER

@<TRIPOS>ATOM
      1 C          -9.5890  -19.0373   21.1775 C.ar    1  UNL1        0.0528
      2 C          -8.1646  -18.5847   21.0499 C.ar    1  UNL1        0.0167
      3 C          -7.3514  -18.9945   19.8580 C.ar    1  UNL1        0.0505
      4 C          -7.9626  -19.8570   18.7937 C.ar    1  UNL1        0.0170
      5 C          -9.3869  -20.3096   18.9213 C.ar    1  UNL1        0.0307
      6 C         -10.2002  -19.8997   20.1133 C.ar    1  UNL1        0.1402
      7 F         -11.6245  -20.3523   20.2409 F       1  UNL1       -0.2044
      8 N         -11.8845  -16.2181   19.5858 N.pl3   1  UNL1       -0.2456
      9 C         -11.6615  -16.8846   20.9110 C.2     1  UNL1        0.3505
     10 N         -10.6253  -17.9609   21.0442 N.2     1  UNL1       -0.0666
     11 C         -10.4023  -18.6274   22.3694 C.3     1  UNL1        0.2224
     12 C          -9.3661  -19.7038   22.5027 C.3     1  UNL1        0.1951
     13 O          -9.1431  -20.3702   23.8278 O.3     1  UNL1       -0.3490
     14 C          -9.9564  -19.9604   25.0197 C.3     1  UNL1        0.1425
     15 C         -10.9926  -18.8841   24.8865 C.3     1  UNL1        0.0369
     16 C         -11.2155  -18.2176   23.5614 C.3     1  UNL1        0.0601
     17 C         -12.2518  -17.1412   23.4281 C.3     1  UNL1        0.0837
     18 C         -12.4747  -16.4748   22.1029 C.3     1  UNL1        0.3553
     19 F         -13.4875  -15.7455   22.9349 F       1  UNL1       -0.1914
     20 F         -13.0494  -15.5550   21.0667 F       1  UNL1       -0.1914
     21 H         -11.3507  -16.4871   18.8035 H       1  UNL1        0.2883
     22 H         -12.5646  -15.5116   19.4984 H       1  UNL1        0.2883
     23 N          -5.9270  -18.5419   19.7304 N.am    1  UNL1       -0.2791
     24 C          -4.8530  -19.2084   20.5382 C.2     1  UNL1        0.2688
     25 O          -5.2035  -20.3274   21.4736 O.2     1  UNL1       -0.2681
     26 H          -5.6970  -17.8075   19.1164 H       1  UNL1        0.1552
     27 C          -3.4287  -18.7558   20.4105 C.ar    1  UNL1        0.1541
     28 C          -2.4119  -19.1834   21.4271 C.ar    1  UNL1        0.1258
     29 N          -0.9875  -18.7308   21.2995 N.ar    1  UNL1       -0.2070
     30 C          -0.5799  -17.8507   20.1553 C.ar    1  UNL1        0.2469
     31 C          -1.5967  -17.4231   19.1387 C.ar    1  UNL1        0.1566
     32 N          -3.0210  -17.8757   19.2663 N.ar    1  UNL1       -0.2328
     33 O           0.8445  -17.3981   20.0277 O.3     1  UNL1       -0.4265
     34 C           1.8983  -17.9759   20.9252 C.3     1  UNL1        0.4044
     35 F           3.1322  -17.1832   21.2403 F       1  UNL1       -0.1809
@<TRIPOS>BOND
     1     8     9    1
     2     9    10    2
     3    10    11    1
     4    11     1    1
     5     1     2   ar
     6     2     3   ar
     7     3    23    1
     8    23    24   am
     9    24    25    2
    10    24    27    1
    11    27    28   ar
    12    28    29   ar
    13    29    30   ar
    14    30    33    1
    15    33    34    1
    16    34    35    1
    17    30    31   ar
    18    31    32   ar
    19     3     4   ar
    20     4     5   ar
    21     5     6   ar
    22     6     7    1
    23    11    12    1
    24    12    13    1
    25    13    14    1
    26    14    15    1
    27    16    15    1
    28    16    17    1
    29    17    18    1
    30    18    19    1
    31    18    20    1
    32    18     9    1
    33    16    11    1
    34     6     1   ar
    35    32    27   ar
    36     8    21    1
    37     8    22    1
    38    23    26    1
@<TRIPOS>MOLECULE
*****
 35 38 0 0 0
SMALL
GASTEIGER

@<TRIPOS>ATOM
      1 C          -8.7568  -16.4584   23.8904 C.ar    1  UNL1        0.0528
      2 C          -7.4451  -16.6516   23.1888 C.ar    1  UNL1        0.0167
      3 C          -6.1795  -16.1404   23.8107 C.ar    1  UNL1        0.0505
      4 C          -6.2255  -15.4360   25.1342 C.ar    1  UNL1        0.0170
      5 C          -7.5372  -15.2428   25.8358 C.ar    1  UNL1        0.0307
      6 C          -8.8028  -15.7540   25.2139 C.ar    1  UNL1        0.1402
      7 F         -10.1145  -15.5608   25.9154 F       1  UNL1       -0.2044
      8 N          -8.8871  -14.2932   20.5669 N.pl3   1  UNL1       -0.2456
      9 C          -9.6874  -15.3557   21.2601 C.2     1  UNL1        0.3505
     10 N          -9.2221  -15.9070   22.5752 N.2     1  UNL1       -0.0666
     11 C         -10.0225  -16.9696   23.2685 C.3     1  UNL1        0.2224
     12 C          -9.5572  -17.5209   24.5835 C.3     1  UNL1        0.1951
     13 O         -10.3575  -18.5834   25.2767 O.3     1  UNL1       -0.3490
     14 C         -11.6231  -19.0946   24.6548 C.3     1  UNL1        0.1425
     15 C         -12.0885  -18.5433   23.3397 C.3     1  UNL1        0.0369
     16 C         -11.2881  -17.4808   22.6465 C.3     1  UNL1        0.0601
     17 C         -11.7534  -16.9295   21.3314 C.3     1  UNL1        0.0837
     18 C         -10.9531  -15.8670   20.6382 C.3     1  UNL1        0.3553
     19 F         -12.0762  -16.0287   19.6573 F       1  UNL1       -0.1914
     20 F         -10.5428  -14.8606   19.6043 F       1  UNL1       -0.1914
     21 H          -8.0564  -13.9576   20.9751 H       1  UNL1        0.2883
     22 H          -9.1925  -13.9313   19.7037 H       1  UNL1        0.2883
     23 N          -4.8678  -16.3336   23.1092 N.am    1  UNL1       -0.2791
     24 C          -4.5005  -17.6819   22.5637 C.2     1  UNL1        0.2688
     25 O          -5.4448  -18.8368   22.7198 O.2     1  UNL1       -0.2681
     26 H          -4.2480  -15.5756   23.0067 H       1  UNL1        0.1552
     27 C          -3.1888  -17.8751   21.8621 C.ar    1  UNL1        0.1541
     28 C          -2.6652  -19.2595   21.6190 C.ar    1  UNL1        0.1258
     29 N          -1.3535  -19.4527   20.9174 N.ar    1  UNL1       -0.2070
     30 C          -0.5655  -18.2615   20.4590 C.ar    1  UNL1        0.2469
     31 C          -1.0892  -16.8771   20.7022 C.ar    1  UNL1        0.1566
     32 N          -2.4008  -16.6839   21.4037 N.ar    1  UNL1       -0.2328
     33 O           0.7462  -18.4548   19.7575 O.3     1  UNL1       -0.4265
     34 C           1.8888  -17.5231   20.0337 C.3     1  UNL1        0.4044
     35 F           2.7908  -17.7695   21.2067 F       1  UNL1       -0.1809
@<TRIPOS>BOND
     1     8     9    1
     2     9    10    2
     3    10    11    1
     4    11     1    1
     5     1     2   ar
     6     2     3   ar
     7     3    23    1
     8    23    24   am
     9    24    25    2
    10    24    27    1
    11    27    28   ar
    12    28    29   ar
    13    29    30   ar
    14    30    33    1
    15    33    34    1
    16    34    35    1
    17    30    31   ar
    18    31    32   ar
    19     3     4   ar
    20     4     5   ar
    21     5     6   ar
    22     6     7    1
    23    11    12    1
    24    12    13    1
    25    13    14    1
    26    14    15    1
    27    16    15    1
    28    16    17    1
    29    17    18    1
    30    18    19    1
    31    18    20    1
    32    18     9    1
    33    16    11    1
    34     6     1   ar
    35    32    27   ar
    36     8    21    1
    37     8    22    1
    38    23    26    1
@<TRIPOS>MOLECULE
*****
 35 38 0 0 0
SMALL
GASTEIGER

@<TRIPOS>ATOM
      1 C          -9.7370  -18.8348   20.8032 C.ar    1  UNL1        0.0528
      2 C          -8.3153  -18.3567   20.7827 C.ar    1  UNL1        0.0167
      3 C          -7.3446  -18.9326   19.7947 C.ar    1  UNL1        0.0505
      4 C          -7.7956  -19.9865   18.8272 C.ar    1  UNL1        0.0170
      5 C          -9.2173  -20.4645   18.8477 C.ar    1  UNL1        0.0307
      6 C         -10.1879  -19.8886   19.8358 C.ar    1  UNL1        0.1402
      7 F         -11.6096  -20.3666   19.8563 F       1  UNL1       -0.2044
      8 N          -8.9124  -21.0092   24.0192 N.pl3   1  UNL1       -0.2456
      9 C          -9.8344  -19.9005   23.6059 C.2     1  UNL1        0.3505
     10 N          -9.7857  -19.3677   22.2046 N.2     1  UNL1       -0.0666
     11 C         -10.7076  -18.2589   21.7913 C.3     1  UNL1        0.2224
     12 C         -10.6589  -17.7261   20.3900 C.3     1  UNL1        0.1951
     13 O         -11.5809  -16.6175   19.9767 O.3     1  UNL1       -0.3490
     14 C         -12.5515  -16.0416   20.9647 C.3     1  UNL1        0.1425
     15 C         -12.6003  -16.5744   22.3660 C.3     1  UNL1        0.0369
     16 C         -11.6783  -17.6831   22.7793 C.3     1  UNL1        0.0601
     17 C         -11.7270  -18.2160   24.1806 C.3     1  UNL1        0.0837
     18 C         -10.8051  -19.3246   24.5939 C.3     1  UNL1        0.3553
     19 F         -11.5447  -19.1076   25.8806 F       1  UNL1       -0.1914
     20 F         -10.1400  -20.3580   25.4541 F       1  UNL1       -0.1914
     21 H          -8.2753  -21.3872   23.3708 H       1  UNL1        0.2883
     22 H          -8.9444  -21.3589   24.9390 H       1  UNL1        0.2883
     23 N          -5.9230  -18.4546   19.7741 N.am    1  UNL1       -0.2791
     24 C          -4.8046  -19.4152   20.0510 C.2     1  UNL1        0.2688
     25 O          -5.1080  -20.8538   20.3484 O.2     1  UNL1       -0.2681
     26 H          -5.7239  -17.5104   19.5789 H       1  UNL1        0.1552
     27 C          -3.3830  -18.9373   20.0304 C.ar    1  UNL1        0.1541
     28 C          -2.4635  -19.2697   21.1679 C.ar    1  UNL1        0.1258
     29 N          -1.0418  -18.7918   21.1474 N.ar    1  UNL1       -0.2070
     30 C          -0.5397  -17.9813   19.9893 C.ar    1  UNL1        0.2469
     31 C          -1.4593  -17.6488   18.8518 C.ar    1  UNL1        0.1566
     32 N          -2.8809  -18.1268   18.8724 N.ar    1  UNL1       -0.2328
     33 O           0.8820  -17.5033   19.9688 O.3     1  UNL1       -0.4265
     34 C           1.7963  -17.8199   21.1150 C.3     1  UNL1        0.4044
     35 F           3.2085  -17.3141   21.1097 F       1  UNL1       -0.1809
@<TRIPOS>BOND
     1     8     9    1
     2     9    10    2
     3    10    11    1
     4    11     1    1
     5     1     2   ar
     6     2     3   ar
     7     3    23    1
     8    23    24   am
     9    24    25    2
    10    24    27    1
    11    27    28   ar
    12    28    29   ar
    13    29    30   ar
    14    30    33    1
    15    33    34    1
    16    34    35    1
    17    30    31   ar
    18    31    32   ar
    19     3     4   ar
    20     4     5   ar
    21     5     6   ar
    22     6     7    1
    23    11    12    1
    24    12    13    1
    25    13    14    1
    26    14    15    1
    27    16    15    1
    28    16    17    1
    29    17    18    1
    30    18    19    1
    31    18    20    1
    32    18     9    1
    33    16    11    1
    34     6     1   ar
    35    32    27   ar
    36     8    21    1
    37     8    22    1
    38    23    26    1
@<TRIPOS>MOLECULE
*****
 35 38 0 0 0
SMALL
GASTEIGER

@<TRIPOS>ATOM
      1 C           2.7697   -0.8654   20.2344 C.ar    1  UNL1        0.0528
      2 C           1.4724   -0.3042   20.7370 C.ar    1  UNL1        0.0167
      3 C           0.7455    0.7361   19.9374 C.ar    1  UNL1        0.0505
      4 C           1.3157    1.2153   18.6354 C.ar    1  UNL1        0.0170
      5 C           2.6129    0.6541   18.1329 C.ar    1  UNL1        0.0307
      6 C           3.3398   -0.3862   18.9324 C.ar    1  UNL1        0.1402
      7 F           4.6370   -0.9474   18.4300 F       1  UNL1       -0.2044
      8 N           3.2044    1.0201   23.6995 N.pl3   1  UNL1       -0.2456
      9 C           3.5441   -0.3020   23.0775 C.2     1  UNL1        0.3505
     10 N           3.1569   -0.5837   21.6560 N.2     1  UNL1       -0.0666
     11 C           3.4966   -1.9057   21.0340 C.3     1  UNL1        0.2224
     12 C           3.1094   -2.1874   19.6125 C.3     1  UNL1        0.1951
     13 O           3.4491   -3.5094   18.9906 O.3     1  UNL1       -0.3490
     14 C           4.1760   -4.5497   19.7901 C.3     1  UNL1        0.1425
     15 C           4.5633   -4.2681   21.2116 C.3     1  UNL1        0.0369
     16 C           4.2236   -2.9461   21.8335 C.3     1  UNL1        0.0601
     17 C           4.6108   -2.6643   23.2551 C.3     1  UNL1        0.0837
     18 C           4.2711   -1.3423   23.8770 C.3     1  UNL1        0.3553
     19 F           4.9636   -2.0032   25.0318 F       1  UNL1       -0.1914
     20 F           4.1719   -0.2498   24.9000 F       1  UNL1       -0.1914
     21 H           2.7273    1.7029   23.1747 H       1  UNL1        0.2883
     22 H           3.4586    1.2050   24.6325 H       1  UNL1        0.2883
     23 N          -0.5516    1.2972   20.4399 N.am    1  UNL1       -0.2791
     24 C          -0.5890    2.6648   21.0551 C.2     1  UNL1        0.2688
     25 O           0.6708    3.4712   21.1678 O.2     1  UNL1       -0.2681
     26 H          -1.3785    0.7680   20.3659 H       1  UNL1        0.1552
     27 C          -1.8861    3.2260   21.5576 C.ar    1  UNL1        0.1541
     28 C          -1.8963    4.1477   22.7409 C.ar    1  UNL1        0.1258
     29 N          -3.1934    4.7089   23.2434 N.ar    1  UNL1       -0.2070
     30 C          -4.4805    4.3483   22.5625 C.ar    1  UNL1        0.2469
     31 C          -4.4703    3.4265   21.3792 C.ar    1  UNL1        0.1566
     32 N          -3.1732    2.8654   20.8767 N.ar    1  UNL1       -0.2328
     33 O          -5.7776    4.9095   23.0650 O.3     1  UNL1       -0.4265
     34 C          -7.0752    4.4443   22.4735 C.3     1  UNL1        0.4044
     35 F          -8.1801    3.9686   23.3696 F       1  UNL1       -0.1809
@<TRIPOS>BOND
     1     8     9    1
     2     9    10    2
     3    10    11    1
     4    11     1    1
     5     1     2   ar
     6     2     3   ar
     7     3    23    1
     8    23    24   am
     9    24    25    2
    10    24    27    1
    11    27    28   ar
    12    28    29   ar
    13    29    30   ar
    14    30    33    1
    15    33    34    1
    16    34    35    1
    17    30    31   ar
    18    31    32   ar
    19     3     4   ar
    20     4     5   ar
    21     5     6   ar
    22     6     7    1
    23    11    12    1
    24    12    13    1
    25    13    14    1
    26    14    15    1
    27    16    15    1
    28    16    17    1
    29    17    18    1
    30    18    19    1
    31    18    20    1
    32    18     9    1
    33    16    11    1
    34     6     1   ar
    35    32    27   ar
    36     8    21    1
    37     8    22    1
    38    23    26    1
@<TRIPOS>MOLECULE
*****
 35 38 0 0 0
SMALL
GASTEIGER

@<TRIPOS>ATOM
      1 C          -1.9110    3.9378   20.9981 C.ar    1  UNL1        0.0528
      2 C          -0.9865    2.7648   20.8585 C.ar    1  UNL1        0.0167
      3 C           0.4820    2.9880   20.6497 C.ar    1  UNL1        0.0505
      4 C           1.0260    4.3843   20.5803 C.ar    1  UNL1        0.0170
      5 C           0.1015    5.5572   20.7199 C.ar    1  UNL1        0.0307
      6 C          -1.3670    5.3339   20.9288 C.ar    1  UNL1        0.1402
      7 F          -2.2915    6.5068   21.0683 F       1  UNL1       -0.2044
      8 N          -3.2173    3.9854   17.2508 N.pl3   1  UNL1       -0.2456
      9 C          -3.7609    3.8207   18.6392 C.2     1  UNL1        0.3505
     10 N          -2.8360    3.8792   19.8186 N.2     1  UNL1       -0.0666
     11 C          -3.3795    3.7146   21.2070 C.3     1  UNL1        0.2224
     12 C          -2.4546    3.7731   22.3864 C.3     1  UNL1        0.1951
     13 O          -2.9982    3.6084   23.7746 O.3     1  UNL1       -0.3490
     14 C          -4.4667    3.3852   23.9835 C.3     1  UNL1        0.1425
     15 C          -5.3916    3.3266   22.8041 C.3     1  UNL1        0.0369
     16 C          -4.8480    3.4913   21.4159 C.3     1  UNL1        0.0601
     17 C          -5.7730    3.4328   20.2364 C.3     1  UNL1        0.0837
     18 C          -5.2294    3.5975   18.8481 C.3     1  UNL1        0.3553
     19 F          -6.6846    3.4086   18.5374 F       1  UNL1       -0.1914
     20 F          -5.1912    3.6966   17.3519 F       1  UNL1       -0.1914
     21 H          -2.2535    4.1319   17.1137 H       1  UNL1        0.2883
     22 H          -3.8244    3.9470   16.4768 H       1  UNL1        0.2883
     23 N           1.4066    1.8151   20.5101 N.am    1  UNL1       -0.2791
     24 C           1.4349    1.0304   19.2320 C.2     1  UNL1        0.2688
     25 O           0.5387    1.4186   18.0936 O.2     1  UNL1       -0.2681
     26 H           1.9948    1.5604   21.2573 H       1  UNL1        0.1552
     27 C           2.3595   -0.1425   19.0925 C.ar    1  UNL1        0.1541
     28 C           3.2283   -0.2721   17.8766 C.ar    1  UNL1        0.1258
     29 N           4.1529   -1.4450   17.7370 N.ar    1  UNL1       -0.2070
     30 C           4.2086   -2.4884   18.8133 C.ar    1  UNL1        0.2469
     31 C           3.3397   -2.3587   20.0292 C.ar    1  UNL1        0.1566
     32 N           2.4152   -1.1858   20.1688 N.ar    1  UNL1       -0.2328
     33 O           5.1331   -3.6612   18.6738 O.3     1  UNL1       -0.4265
     34 C           4.5787   -5.0549   18.6531 C.3     1  UNL1        0.4044
     35 F           3.7047   -5.5311   19.7754 F       1  UNL1       -0.1809
@<TRIPOS>BOND
     1     8     9    1
     2     9    10    2
     3    10    11    1
     4    11     1    1
     5     1     2   ar
     6     2     3   ar
     7     3    23    1
     8    23    24   am
     9    24    25    2
    10    24    27    1
    11    27    28   ar
    12    28    29   ar
    13    29    30   ar
    14    30    33    1
    15    33    34    1
    16    34    35    1
    17    30    31   ar
    18    31    32   ar
    19     3     4   ar
    20     4     5   ar
    21     5     6   ar
    22     6     7    1
    23    11    12    1
    24    12    13    1
    25    13    14    1
    26    14    15    1
    27    16    15    1
    28    16    17    1
    29    17    18    1
    30    18    19    1
    31    18    20    1
    32    18     9    1
    33    16    11    1
    34     6     1   ar
    35    32    27   ar
    36     8    21    1
    37     8    22    1
    38    23    26    1
@<TRIPOS>MOLECULE
*****
 35 38 0 0 0
SMALL
GASTEIGER

@<TRIPOS>ATOM
      1 C           2.9975    0.1886   20.6176 C.ar    1  UNL1        0.0528
      2 C           1.5393    0.4556   20.8472 C.ar    1  UNL1        0.0167
      3 C           0.8852    1.6451   20.2090 C.ar    1  UNL1        0.0505
      4 C           1.6891    2.5675   19.3413 C.ar    1  UNL1        0.0170
      5 C           3.1472    2.3004   19.1117 C.ar    1  UNL1        0.0307
      6 C           3.8013    1.1109   19.7499 C.ar    1  UNL1        0.1402
      7 F           5.2594    0.8438   19.5204 F       1  UNL1       -0.2044
      8 N           4.0459   -1.9012   17.4107 N.pl3   1  UNL1       -0.2456
      9 C           4.1325   -1.9976   18.9052 C.2     1  UNL1        0.3505
     10 N           3.5650   -0.9045   19.7614 N.2     1  UNL1       -0.0666
     11 C           3.6516   -1.0009   21.2558 C.3     1  UNL1        0.2224
     12 C           3.0841    0.0921   22.1120 C.3     1  UNL1        0.1951
     13 O           3.1707   -0.0043   23.6063 O.3     1  UNL1       -0.3490
     14 C           3.8249   -1.1937   24.2445 C.3     1  UNL1        0.1425
     15 C           4.3924   -2.2868   23.3883 C.3     1  UNL1        0.0369
     16 C           4.3058   -2.1904   21.8940 C.3     1  UNL1        0.0601
     17 C           4.8733   -3.2835   21.0377 C.3     1  UNL1        0.0837
     18 C           4.7867   -3.1871   19.5434 C.3     1  UNL1        0.3553
     19 F           5.4963   -4.5015   19.6789 F       1  UNL1       -0.1914
     20 F           4.9465   -3.5472   18.0960 F       1  UNL1       -0.1914
     21 H           3.6166   -1.1206   16.9919 H       1  UNL1        0.2883
     22 H           4.4184   -2.6187   16.8488 H       1  UNL1        0.2883
     23 N          -0.5729    1.9122   20.4386 N.am    1  UNL1       -0.2791
     24 C          -0.9970    2.9848   21.3977 C.2     1  UNL1        0.2688
     25 O           0.0370    3.7902   22.1272 O.2     1  UNL1       -0.2681
     26 H          -1.2515    1.3835   19.9598 H       1  UNL1        0.1552
     27 C          -2.4550    3.2519   21.6272 C.ar    1  UNL1        0.1541
     28 C          -2.9202    3.7886   22.9483 C.ar    1  UNL1        0.1258
     29 N          -4.3783    4.0558   23.1779 N.ar    1  UNL1       -0.2070
     30 C          -5.3712    3.7861   22.0863 C.ar    1  UNL1        0.2469
     31 C          -4.9059    3.2492   20.7652 C.ar    1  UNL1        0.1566
     32 N          -3.4479    2.9821   20.5356 N.ar    1  UNL1       -0.2328
     33 O          -6.8292    4.0532   22.3159 O.3     1  UNL1       -0.4265
     34 C          -7.2896    4.6294   23.6220 C.3     1  UNL1        0.4044
     35 F          -8.6984    4.4050   24.0858 F       1  UNL1       -0.1809
@<TRIPOS>BOND
     1     8     9    1
     2     9    10    2
     3    10    11    1
     4    11     1    1
     5     1     2   ar
     6     2     3   ar
     7     3    23    1
     8    23    24   am
     9    24    25    2
    10    24    27    1
    11    27    28   ar
    12    28    29   ar
    13    29    30   ar
    14    30    33    1
    15    33    34    1
    16    34    35    1
    17    30    31   ar
    18    31    32   ar
    19     3     4   ar
    20     4     5   ar
    21     5     6   ar
    22     6     7    1
    23    11    12    1
    24    12    13    1
    25    13    14    1
    26    14    15    1
    27    16    15    1
    28    16    17    1
    29    17    18    1
    30    18    19    1
    31    18    20    1
    32    18     9    1
    33    16    11    1
    34     6     1   ar
    35    32    27   ar
    36     8    21    1
    37     8    22    1
    38    23    26    1
@<TRIPOS>MOLECULE
*****
 35 38 0 0 0
SMALL
GASTEIGER

@<TRIPOS>ATOM
      1 C           3.3115   -0.6152   20.4405 C.ar    1  UNL1        0.0528
      2 C           1.9910   -0.0223   20.0471 C.ar    1  UNL1        0.0167
      3 C           1.0633    0.5077   21.1000 C.ar    1  UNL1        0.0505
      4 C           1.4562    0.4448   22.5463 C.ar    1  UNL1        0.0170
      5 C           2.7767   -0.1481   22.9397 C.ar    1  UNL1        0.0307
      6 C           3.7043   -0.6781   21.8868 C.ar    1  UNL1        0.1402
      7 F           5.0248   -1.2709   22.2802 F       1  UNL1       -0.2044
      8 N           4.2980    2.7348   18.5549 N.pl3   1  UNL1       -0.2456
      9 C           4.5876    1.2648   18.4816 C.2     1  UNL1        0.3505
     10 N           3.9496    0.3248   19.4610 N.2     1  UNL1       -0.0666
     11 C           4.2392   -1.1451   19.3877 C.3     1  UNL1        0.2224
     12 C           3.6012   -2.0851   20.3671 C.3     1  UNL1        0.1951
     13 O           3.8908   -3.5550   20.2937 O.3     1  UNL1       -0.3490
     14 C           4.8184   -4.0850   19.2408 C.3     1  UNL1        0.1425
     15 C           5.4565   -3.1450   18.2614 C.3     1  UNL1        0.0369
     16 C           5.1668   -1.6751   18.3348 C.3     1  UNL1        0.0601
     17 C           5.8049   -0.7351   17.3553 C.3     1  UNL1        0.0837
     18 C           5.5152    0.7348   17.4287 C.3     1  UNL1        0.3553
     19 F           6.4557    0.7126   16.2604 F       1  UNL1       -0.1914
     20 F           5.5522    2.1970   17.0963 F       1  UNL1       -0.1914
     21 H           3.6891    3.0826   19.2460 H       1  UNL1        0.2883
     22 H           4.7167    3.3517   17.9121 H       1  UNL1        0.2883
     23 N          -0.2572    1.1006   20.7066 N.am    1  UNL1       -0.2791
     24 C          -0.3616    2.5666   20.4068 C.2     1  UNL1        0.2688
     25 O           0.8545    3.4398   20.5003 O.2     1  UNL1       -0.2681
     26 H          -1.0553    0.5275   20.6453 H       1  UNL1        0.1552
     27 C          -1.6821    3.1595   20.0134 C.ar    1  UNL1        0.1541
     28 C          -1.7705    4.0725   18.8267 C.ar    1  UNL1        0.1258
     29 N          -3.0911    4.6655   18.4332 N.ar    1  UNL1       -0.2070
     30 C          -4.3231    4.3453   19.2267 C.ar    1  UNL1        0.2469
     31 C          -4.2346    3.4322   20.4135 C.ar    1  UNL1        0.1566
     32 N          -2.9142    2.8393   20.8069 N.ar    1  UNL1       -0.2328
     33 O          -5.6436    4.9381   18.8333 O.3     1  UNL1       -0.4265
     34 C          -6.9045    4.1457   19.0121 C.3     1  UNL1        0.4044
     35 F          -6.9432    2.6987   18.6184 F       1  UNL1       -0.1809
@<TRIPOS>BOND
     1     8     9    1
     2     9    10    2
     3    10    11    1
     4    11     1    1
     5     1     2   ar
     6     2     3   ar
     7     3    23    1
     8    23    24   am
     9    24    25    2
    10    24    27    1
    11    27    28   ar
    12    28    29   ar
    13    29    30   ar
    14    30    33    1
    15    33    34    1
    16    34    35    1
    17    30    31   ar
    18    31    32   ar
    19     3     4   ar
    20     4     5   ar
    21     5     6   ar
    22     6     7    1
    23    11    12    1
    24    12    13    1
    25    13    14    1
    26    14    15    1
    27    16    15    1
    28    16    17    1
    29    17    18    1
    30    18    19    1
    31    18    20    1
    32    18     9    1
    33    16    11    1
    34     6     1   ar
    35    32    27   ar
    36     8    21    1
    37     8    22    1
    38    23    26    1
@<TRIPOS>MOLECULE
*****
 35 38 0 0 0
SMALL
GASTEIGER

@<TRIPOS>ATOM
      1 C           6.9580   -2.7953   30.3356 C.ar    1  UNL1        0.0528
      2 C           6.5249   -2.6411   28.9077 C.ar    1  UNL1        0.0167
      3 C           6.2862   -3.8561   28.0610 C.ar    1  UNL1        0.0505
      4 C           6.4806   -5.2253   28.6422 C.ar    1  UNL1        0.0170
      5 C           6.9137   -5.3794   30.0700 C.ar    1  UNL1        0.0307
      6 C           7.1524   -4.1644   30.9167 C.ar    1  UNL1        0.1402
      7 F           7.5854   -4.3185   32.3445 F       1  UNL1       -0.2044
      8 N           4.2627   -3.3348   33.1982 N.pl3   1  UNL1       -0.2456
      9 C           5.3203   -2.3450   32.8084 C.2     1  UNL1        0.3505
     10 N           6.1391   -2.5702   31.5720 N.2     1  UNL1       -0.0666
     11 C           7.1967   -1.5803   31.1822 C.3     1  UNL1        0.2224
     12 C           8.0155   -1.8055   29.9458 C.3     1  UNL1        0.1951
     13 O           9.0730   -0.8158   29.5561 O.3     1  UNL1       -0.3490
     14 C           9.3117    0.3992   30.4028 C.3     1  UNL1        0.1425
     15 C           8.4929    0.6244   31.6392 C.3     1  UNL1        0.0369
     16 C           7.4354   -0.3654   32.0289 C.3     1  UNL1        0.0601
     17 C           6.6165   -0.1402   33.2654 C.3     1  UNL1        0.0837
     18 C           5.5589   -1.1300   33.6551 C.3     1  UNL1        0.3553
     19 F           5.4127   -0.1393   34.7718 F       1  UNL1       -0.1914
     20 F           4.4506   -1.7757   34.4327 F       1  UNL1       -0.1914
     21 H           4.1060   -4.1322   32.6425 H       1  UNL1        0.2883
     22 H           3.7252   -3.1870   34.0098 H       1  UNL1        0.2883
     23 N           5.8532   -3.7020   26.6332 N.am    1  UNL1       -0.2791
     24 C           6.8151   -3.9998   25.5214 C.2     1  UNL1        0.2688
     25 O           8.2100   -4.4517   25.8374 O.2     1  UNL1       -0.2681
     26 H           4.9376   -3.4054   26.4258 H       1  UNL1        0.1552
     27 C           6.3820   -3.8457   24.0936 C.ar    1  UNL1        0.1541
     28 C           7.2131   -4.4309   22.9905 C.ar    1  UNL1        0.1258
     29 N           6.7800   -4.2768   21.5626 N.ar    1  UNL1       -0.2070
     30 C           5.5159   -3.5375   21.2379 C.ar    1  UNL1        0.2469
     31 C           4.6848   -2.9523   22.3411 C.ar    1  UNL1        0.1566
     32 N           5.1179   -3.1064   23.7689 N.ar    1  UNL1       -0.2328
     33 O           5.0829   -3.3834   19.8101 O.3     1  UNL1       -0.4265
     34 C           3.6233   -3.3900   19.4642 C.3     1  UNL1        0.4044
     35 F           2.9944   -4.6247   18.8895 F       1  UNL1       -0.1809
@<TRIPOS>BOND
     1     8     9    1
     2     9    10    2
     3    10    11    1
     4    11     1    1
     5     1     2   ar
     6     2     3   ar
     7     3    23    1
     8    23    24   am
     9    24    25    2
    10    24    27    1
    11    27    28   ar
    12    28    29   ar
    13    29    30   ar
    14    30    33    1
    15    33    34    1
    16    34    35    1
    17    30    31   ar
    18    31    32   ar
    19     3     4   ar
    20     4     5   ar
    21     5     6   ar
    22     6     7    1
    23    11    12    1
    24    12    13    1
    25    13    14    1
    26    14    15    1
    27    16    15    1
    28    16    17    1
    29    17    18    1
    30    18    19    1
    31    18    20    1
    32    18     9    1
    33    16    11    1
    34     6     1   ar
    35    32    27   ar
    36     8    21    1
    37     8    22    1
    38    23    26    1
@<TRIPOS>MOLECULE
*****
 35 38 0 0 0
SMALL
GASTEIGER

@<TRIPOS>ATOM
      1 C           3.7810   -1.2781   19.8880 C.ar    1  UNL1        0.0528
      2 C           3.9496   -1.5748   21.3488 C.ar    1  UNL1        0.0167
      3 C           4.5410   -2.8825   21.7850 C.ar    1  UNL1        0.0505
      4 C           4.9637   -3.8934   20.7606 C.ar    1  UNL1        0.0170
      5 C           4.7951   -3.5967   19.3000 C.ar    1  UNL1        0.0307
      6 C           4.2037   -2.2890   18.8637 C.ar    1  UNL1        0.1402
      7 F           4.0351   -1.9923   17.4031 F       1  UNL1       -0.2044
      8 N           6.9532    0.4787   18.2752 N.pl3   1  UNL1       -0.2456
      9 C           5.5015    0.7649   18.5220 C.2     1  UNL1        0.3505
     10 N           4.6413   -0.2566   19.2050 N.2     1  UNL1       -0.0666
     11 C           3.1896    0.0295   19.4517 C.3     1  UNL1        0.2224
     12 C           2.3294   -0.9919   20.1348 C.3     1  UNL1        0.1951
     13 O           0.8778   -0.7058   20.3815 O.3     1  UNL1       -0.3490
     14 C           0.2864    0.6019   19.9452 C.3     1  UNL1        0.1425
     15 C           1.1466    1.6233   19.2622 C.3     1  UNL1        0.0369
     16 C           2.5982    1.3372   19.0155 C.3     1  UNL1        0.0601
     17 C           3.4585    2.3587   18.3324 C.3     1  UNL1        0.0837
     18 C           4.9101    2.0725   18.0857 C.3     1  UNL1        0.3553
     19 F           4.8109    3.4464   17.4921 F       1  UNL1       -0.1914
     20 F           6.3273    2.2635   17.6328 F       1  UNL1       -0.1914
     21 H           7.3413   -0.3795   18.5615 H       1  UNL1        0.2883
     22 H           7.5178    1.1492   17.8269 H       1  UNL1        0.2883
     23 N           4.7096   -3.1792   23.2457 N.am    1  UNL1       -0.2791
     24 C           6.0708   -3.1123   23.8724 C.2     1  UNL1        0.2688
     25 O           7.2633   -2.7486   23.0384 O.2     1  UNL1       -0.2681
     26 H           3.9269   -3.4179   23.7930 H       1  UNL1        0.1552
     27 C           6.2394   -3.4090   25.3330 C.ar    1  UNL1        0.1541
     28 C           5.8588   -2.3802   26.3561 C.ar    1  UNL1        0.1258
     29 N           6.0274   -2.6770   27.8168 N.ar    1  UNL1       -0.2070
     30 C           6.5766   -4.0024   28.2543 C.ar    1  UNL1        0.2469
     31 C           6.9573   -5.0312   27.2311 C.ar    1  UNL1        0.1566
     32 N           6.7886   -4.7345   25.7705 N.ar    1  UNL1       -0.2328
     33 O           6.7453   -4.2992   29.7150 O.3     1  UNL1       -0.4265
     34 C           7.0605   -5.6948   30.1652 C.3     1  UNL1        0.4044
     35 F           6.7183   -6.1283   31.5599 F       1  UNL1       -0.1809
@<TRIPOS>BOND
     1     8     9    1
     2     9    10    2
     3    10    11    1
     4    11     1    1
     5     1     2   ar
     6     2     3   ar
     7     3    23    1
     8    23    24   am
     9    24    25    2
    10    24    27    1
    11    27    28   ar
    12    28    29   ar
    13    29    30   ar
    14    30    33    1
    15    33    34    1
    16    34    35    1
    17    30    31   ar
    18    31    32   ar
    19     3     4   ar
    20     4     5   ar
    21     5     6   ar
    22     6     7    1
    23    11    12    1
    24    12    13    1
    25    13    14    1
    26    14    15    1
    27    16    15    1
    28    16    17    1
    29    17    18    1
    30    18    19    1
    31    18    20    1
    32    18     9    1
    33    16    11    1
    34     6     1   ar
    35    32    27   ar
    36     8    21    1
    37     8    22    1
    38    23    26    1
