@<TRIPOS>MOLECULE
*****
 24 26 0 0 0
SMALL
GASTEIGER

@<TRIPOS>ATOM
      1 C         -10.7366  -17.3015   21.6549 C.ar    1  UNL1        0.0115
      2 C          -9.3066  -16.9471   21.9369 C.ar    1  UNL1        0.0063
      3 C          -8.7808  -17.0106   23.3403 C.ar    1  UNL1        0.0871
      4 C          -9.6850  -17.4286   24.4617 C.ar    1  UNL1        0.1410
      5 O          -9.1592  -17.4922   25.8651 O.3     1  UNL1       -0.5053
      6 C         -11.1151  -17.7831   24.1798 C.ar    1  UNL1        0.0730
      7 C         -11.6408  -17.7195   22.7765 C.ar    1  UNL1        0.1326
      8 O         -13.0708  -18.0740   22.4945 O.3     1  UNL1       -0.5057
      9 H          -8.2660  -17.2708   26.0413 H       1  UNL1        0.2922
     10 H         -13.6356  -18.3351   23.1950 H       1  UNL1        0.2922
     11 C          -7.3508  -16.6562   23.6222 C.2     1  UNL1        0.2522
     12 O          -7.0280  -15.4996   24.5209 O.2     1  UNL1       -0.2698
     13 N          -6.2436  -17.4586   23.0054 N.am    1  UNL1       -0.2715
     14 C          -6.5664  -18.6153   22.1067 C.3     1  UNL1        0.0992
     15 C          -5.4592  -19.4176   21.4898 C.3     1  UNL1        0.0542
     16 C          -4.0293  -19.0632   21.7718 C.ar    1  UNL1        0.0066
     17 S          -2.7359  -19.6666   21.3101 S.2     1  UNL1       -0.0910
     18 C          -1.6137  -18.8828   21.9236 C.ar    1  UNL1        0.0348
     19 C          -2.2136  -17.7950   22.7644 C.ar    1  UNL1        0.0045
     20 C          -3.7065  -17.9065   22.6705 C.ar    1  UNL1        0.0002
     21 C          -4.8136  -17.1042   23.2873 C.3     1  UNL1        0.1206
     22 C         -11.2031  -18.4521   19.3727 C.3     1  UNL1        0.0048
     23 C         -11.2624  -17.2380   20.2515 C.3     1  UNL1        0.0253
     24 C         -11.8474  -15.9603   19.7270 C.3     1  UNL1        0.0048
@<TRIPOS>BOND
     1    22    23    1
     2    23    24    1
     3    23     1    1
     4     1     2   ar
     5     2     3   ar
     6     3    11    1
     7    11    12    2
     8    11    13   am
     9    13    14    1
    10    14    15    1
    11    15    16    1
    12    16    17   ar
    13    17    18   ar
    14    18    19   ar
    15    19    20   ar
    16    20    21    1
    17     3     4   ar
    18     4     5    1
    19     4     6   ar
    20     6     7   ar
    21     7     8    1
    22     7     1   ar
    23    21    13    1
    24    20    16   ar
    25     5     9    1
    26     8    10    1
@<TRIPOS>MOLECULE
*****
 24 26 0 0 0
SMALL
GASTEIGER

@<TRIPOS>ATOM
      1 C         -10.8528  -18.2355   22.6735 C.ar    1  UNL1        0.0115
      2 C          -9.8260  -18.3445   21.5855 C.ar    1  UNL1        0.0063
      3 C          -8.6767  -19.2973   21.7314 C.ar    1  UNL1        0.0871
      4 C          -8.5542  -20.1412   22.9654 C.ar    1  UNL1        0.1410
      5 O          -7.4050  -21.0940   23.1115 O.3     1  UNL1       -0.5053
      6 C          -9.5811  -20.0322   24.0536 C.ar    1  UNL1        0.0730
      7 C         -10.7303  -19.0795   23.9076 C.ar    1  UNL1        0.1326
      8 O         -11.7570  -18.9705   24.9956 O.3     1  UNL1       -0.5057
      9 H          -6.7636  -21.1621   22.4318 H       1  UNL1        0.2922
     10 H         -11.6805  -19.4976   25.7665 H       1  UNL1        0.2922
     11 C          -7.6499  -19.4063   20.6434 C.2     1  UNL1        0.2522
     12 O          -8.0572  -19.8493   19.2695 O.2     1  UNL1       -0.2698
     13 N          -6.2158  -19.0722   20.9294 N.am    1  UNL1       -0.2715
     14 C          -5.8085  -18.6292   22.3033 C.3     1  UNL1        0.0992
     15 C          -4.3744  -18.2951   22.5893 C.3     1  UNL1        0.0542
     16 C          -3.3476  -18.4041   21.5013 C.ar    1  UNL1        0.0066
     17 S          -1.8705  -18.1436   21.4855 S.2     1  UNL1       -0.0910
     18 C          -1.3649  -18.4256   20.1018 C.ar    1  UNL1        0.0348
     19 C          -2.5295  -18.8604   19.2623 C.ar    1  UNL1        0.0045
     20 C          -3.7549  -18.8471   20.1273 C.ar    1  UNL1        0.0002
     21 C          -5.1890  -19.1812   19.8414 C.3     1  UNL1        0.1206
     22 C         -13.3671  -17.8011   22.1842 C.3     1  UNL1        0.0048
     23 C         -12.0021  -17.2827   22.5275 C.3     1  UNL1        0.0253
     24 C         -11.7862  -15.8115   22.7248 C.3     1  UNL1        0.0048
@<TRIPOS>BOND
     1    22    23    1
     2    23    24    1
     3    23     1    1
     4     1     2   ar
     5     2     3   ar
     6     3    11    1
     7    11    12    2
     8    11    13   am
     9    13    14    1
    10    14    15    1
    11    15    16    1
    12    16    17   ar
    13    17    18   ar
    14    18    19   ar
    15    19    20   ar
    16    20    21    1
    17     3     4   ar
    18     4     5    1
    19     4     6   ar
    20     6     7   ar
    21     7     8    1
    22     7     1   ar
    23    21    13    1
    24    20    16   ar
    25     5     9    1
    26     8    10    1
@<TRIPOS>MOLECULE
*****
 24 26 0 0 0
SMALL
GASTEIGER

@<TRIPOS>ATOM
      1 C          -4.1813  -18.7524   21.7455 C.ar    1  UNL1        0.0115
      2 C          -5.6150  -18.4763   21.4018 C.ar    1  UNL1        0.0063
      3 C          -6.3907  -19.4585   20.5750 C.ar    1  UNL1        0.0871
      4 C          -5.7325  -20.7169   20.0918 C.ar    1  UNL1        0.1410
      5 O          -6.5081  -21.6991   19.2650 O.3     1  UNL1       -0.5053
      6 C          -4.2987  -20.9930   20.4355 C.ar    1  UNL1        0.0730
      7 C          -3.5231  -20.0108   21.2623 C.ar    1  UNL1        0.1326
      8 O          -2.0894  -20.2869   21.6060 O.3     1  UNL1       -0.5057
      9 H          -7.4037  -21.5266   19.0503 H       1  UNL1        0.2922
     10 H          -1.6782  -21.0729   21.3042 H       1  UNL1        0.2922
     11 C          -7.8244  -19.1825   20.2313 C.2     1  UNL1        0.2522
     12 O          -8.2506  -19.1090   18.7951 O.2     1  UNL1       -0.2698
     13 N          -8.8320  -18.9799   21.3240 N.am    1  UNL1       -0.2715
     14 C          -8.4058  -19.0534   22.7602 C.3     1  UNL1        0.0992
     15 C          -9.4133  -18.8508   23.8529 C.3     1  UNL1        0.0542
     16 C         -10.8471  -18.5748   23.5092 C.ar    1  UNL1        0.0066
     17 S         -12.0558  -18.3347   24.3643 S.2     1  UNL1       -0.0910
     18 C         -13.2291  -18.1128   23.4564 C.ar    1  UNL1        0.0348
     19 C         -12.7455  -18.2157   22.0403 C.ar    1  UNL1        0.0045
     20 C         -11.2733  -18.5013   22.0729 C.ar    1  UNL1        0.0002
     21 C         -10.2657  -18.7038   20.9803 C.3     1  UNL1        0.1206
     22 C          -3.6321  -17.6926   24.0532 C.3     1  UNL1        0.0048
     23 C          -3.4057  -17.7702   22.5724 C.3     1  UNL1        0.0253
     24 C          -2.4038  -16.8655   21.9184 C.3     1  UNL1        0.0048
@<TRIPOS>BOND
     1    22    23    1
     2    23    24    1
     3    23     1    1
     4     1     2   ar
     5     2     3   ar
     6     3    11    1
     7    11    12    2
     8    11    13   am
     9    13    14    1
    10    14    15    1
    11    15    16    1
    12    16    17   ar
    13    17    18   ar
    14    18    19   ar
    15    19    20   ar
    16    20    21    1
    17     3     4   ar
    18     4     5    1
    19     4     6   ar
    20     6     7   ar
    21     7     8    1
    22     7     1   ar
    23    21    13    1
    24    20    16   ar
    25     5     9    1
    26     8    10    1
@<TRIPOS>MOLECULE
*****
 24 26 0 0 0
SMALL
GASTEIGER

@<TRIPOS>ATOM
      1 C          -9.5162  -17.8785   23.9726 C.ar    1  UNL1        0.0115
      2 C          -8.5019  -17.9872   22.8729 C.ar    1  UNL1        0.0063
      3 C          -8.7945  -18.8238   21.6626 C.ar    1  UNL1        0.0871
      4 C         -10.1014  -19.5516   21.5522 C.ar    1  UNL1        0.1410
      5 O         -10.3940  -20.3882   20.3420 O.3     1  UNL1       -0.5053
      6 C         -11.1157  -19.4430   22.6520 C.ar    1  UNL1        0.0730
      7 C         -10.8231  -18.6065   23.8621 C.ar    1  UNL1        0.1326
      8 O         -11.8374  -18.4978   24.9618 O.3     1  UNL1       -0.5057
      9 H          -9.7605  -20.4561   19.6550 H       1  UNL1        0.2922
     10 H         -12.6538  -18.9524   24.8928 H       1  UNL1        0.2922
     11 C          -7.7802  -18.9325   20.5629 C.2     1  UNL1        0.2522
     12 O          -8.2292  -19.1284   19.1452 O.2     1  UNL1       -0.2698
     13 N          -6.3169  -18.8453   20.8810 N.am    1  UNL1       -0.2715
     14 C          -5.8679  -18.6494   22.2986 C.3     1  UNL1        0.0992
     15 C          -4.4045  -18.5622   22.6167 C.3     1  UNL1        0.0542
     16 C          -3.3903  -18.6708   21.5170 C.ar    1  UNL1        0.0066
     17 S          -1.8911  -18.6221   21.5259 S.2     1  UNL1       -0.0910
     18 C          -1.4136  -18.7879   20.1137 C.ar    1  UNL1        0.0348
     19 C          -2.6176  -18.9391   19.2319 C.ar    1  UNL1        0.0045
     20 C          -3.8393  -18.8668   20.0993 C.ar    1  UNL1        0.0002
     21 C          -5.3026  -18.9540   19.7812 C.3     1  UNL1        0.1206
     22 C          -8.9929  -15.5670   25.0370 C.3     1  UNL1        0.0048
     23 C          -9.2235  -17.0420   25.1828 C.3     1  UNL1        0.0253
     24 C          -9.1616  -17.6805   26.5387 C.3     1  UNL1        0.0048
@<TRIPOS>BOND
     1    22    23    1
     2    23    24    1
     3    23     1    1
     4     1     2   ar
     5     2     3   ar
     6     3    11    1
     7    11    12    2
     8    11    13   am
     9    13    14    1
    10    14    15    1
    11    15    16    1
    12    16    17   ar
    13    17    18   ar
    14    18    19   ar
    15    19    20   ar
    16    20    21    1
    17     3     4   ar
    18     4     5    1
    19     4     6   ar
    20     6     7   ar
    21     7     8    1
    22     7     1   ar
    23    21    13    1
    24    20    16   ar
    25     5     9    1
    26     8    10    1
@<TRIPOS>MOLECULE
*****
 24 26 0 0 0
SMALL
GASTEIGER

@<TRIPOS>ATOM
      1 C         -11.4505  -18.3904   23.1552 C.ar    1  UNL1        0.0115
      2 C         -10.3349  -19.0201   22.3750 C.ar    1  UNL1        0.0063
      3 C         -10.0608  -18.5781   20.9680 C.ar    1  UNL1        0.0871
      4 C         -10.9024  -17.5062   20.3413 C.ar    1  UNL1        0.1410
      5 O         -10.6284  -17.0641   18.9344 O.3     1  UNL1       -0.5053
      6 C         -12.0181  -16.8764   21.1216 C.ar    1  UNL1        0.0730
      7 C         -12.2921  -17.3185   22.5284 C.ar    1  UNL1        0.1326
      8 O         -13.4077  -16.6887   23.3087 O.3     1  UNL1       -0.5057
      9 H          -9.9315  -17.4575   18.4470 H       1  UNL1        0.2922
     10 H         -13.9335  -16.0191   22.9172 H       1  UNL1        0.2922
     11 C          -8.9452  -19.2078   20.1878 C.2     1  UNL1        0.2522
     12 O          -9.2369  -19.9075   18.8935 O.2     1  UNL1       -0.2698
     13 N          -7.5377  -19.1379   20.7020 N.am    1  UNL1       -0.2715
     14 C          -7.2460  -18.4382   21.9962 C.3     1  UNL1        0.0992
     15 C          -5.8385  -18.3682   22.5104 C.3     1  UNL1        0.0542
     16 C          -4.7229  -18.9980   21.7302 C.ar    1  UNL1        0.0066
     17 S          -3.2474  -19.0891   21.9841 S.2     1  UNL1       -0.0910
     18 C          -2.6272  -19.8452   20.8466 C.ar    1  UNL1        0.0348
     19 C          -3.7195  -20.2213   19.8898 C.ar    1  UNL1        0.0045
     20 C          -5.0147  -19.6977   20.4359 C.ar    1  UNL1        0.0002
     21 C          -6.4221  -19.7676   19.9218 C.3     1  UNL1        0.1206
     22 C         -10.5982  -19.3065   25.4322 C.3     1  UNL1        0.0048
     23 C         -11.7245  -18.8325   24.5622 C.3     1  UNL1        0.0253
     24 C         -13.1247  -18.8005   25.0991 C.3     1  UNL1        0.0048
@<TRIPOS>BOND
     1    22    23    1
     2    23    24    1
     3    23     1    1
     4     1     2   ar
     5     2     3   ar
     6     3    11    1
     7    11    12    2
     8    11    13   am
     9    13    14    1
    10    14    15    1
    11    15    16    1
    12    16    17   ar
    13    17    18   ar
    14    18    19   ar
    15    19    20   ar
    16    20    21    1
    17     3     4   ar
    18     4     5    1
    19     4     6   ar
    20     6     7   ar
    21     7     8    1
    22     7     1   ar
    23    21    13    1
    24    20    16   ar
    25     5     9    1
    26     8    10    1
@<TRIPOS>MOLECULE
*****
 24 26 0 0 0
SMALL
GASTEIGER

@<TRIPOS>ATOM
      1 C          -4.7296  -18.2934   22.3174 C.ar    1  UNL1        0.0115
      2 C          -6.1296  -17.8871   21.9641 C.ar    1  UNL1        0.0063
      3 C          -6.7622  -16.7079   22.6421 C.ar    1  UNL1        0.0871
      4 C          -5.9947  -15.9352   23.6734 C.ar    1  UNL1        0.1410
      5 O          -6.6271  -14.7561   24.3515 O.3     1  UNL1       -0.5053
      6 C          -4.5946  -16.3415   24.0268 C.ar    1  UNL1        0.0730
      7 C          -3.9621  -17.5205   23.3489 C.ar    1  UNL1        0.1326
      8 O          -2.5621  -17.9268   23.7022 O.3     1  UNL1       -0.5057
      9 H          -7.5017  -14.5022   24.1308 H       1  UNL1        0.2922
     10 H          -2.0826  -17.4441   24.3464 H       1  UNL1        0.2922
     11 C          -8.1622  -16.3016   22.2888 C.2     1  UNL1        0.2522
     12 O          -8.3961  -15.2100   21.2871 O.2     1  UNL1       -0.2698
     13 N          -9.3283  -16.9870   22.9373 N.am    1  UNL1       -0.2715
     14 C          -9.0944  -18.0786   23.9390 C.3     1  UNL1        0.0992
     15 C         -10.2605  -18.7640   24.5876 C.3     1  UNL1        0.0542
     16 C         -11.6605  -18.3577   24.2342 C.ar    1  UNL1        0.0066
     17 S         -12.9972  -18.8483   24.7059 S.2     1  UNL1       -0.0910
     18 C         -14.0573  -18.0598   23.9956 C.ar    1  UNL1        0.0348
     19 C         -13.3757  -17.0819   23.0850 C.ar    1  UNL1        0.0045
     20 C         -11.8944  -17.2660   23.2324 C.ar    1  UNL1        0.0002
     21 C         -10.7283  -16.5807   22.5840 C.3     1  UNL1        0.1206
     22 C          -2.6165  -19.6902   21.7400 C.3     1  UNL1        0.0048
     23 C          -4.0971  -19.4725   21.6394 C.3     1  UNL1        0.0253
     24 C          -4.9454  -20.4338   20.8608 C.3     1  UNL1        0.0048
@<TRIPOS>BOND
     1    22    23    1
     2    23    24    1
     3    23     1    1
     4     1     2   ar
     5     2     3   ar
     6     3    11    1
     7    11    12    2
     8    11    13   am
     9    13    14    1
    10    14    15    1
    11    15    16    1
    12    16    17   ar
    13    17    18   ar
    14    18    19   ar
    15    19    20   ar
    16    20    21    1
    17     3     4   ar
    18     4     5    1
    19     4     6   ar
    20     6     7   ar
    21     7     8    1
    22     7     1   ar
    23    21    13    1
    24    20    16   ar
    25     5     9    1
    26     8    10    1
@<TRIPOS>MOLECULE
*****
 24 26 0 0 0
SMALL
GASTEIGER

@<TRIPOS>ATOM
      1 C           3.4039   -2.1073   19.3935 C.ar    1  UNL1        0.0115
      2 C           2.4426   -1.4526   20.3408 C.ar    1  UNL1        0.0063
      3 C           1.8857   -0.0959   20.0258 C.ar    1  UNL1        0.0871
      4 C           2.2902    0.6062   18.7634 C.ar    1  UNL1        0.1410
      5 O           1.7334    1.9629   18.4484 O.3     1  UNL1       -0.5053
      6 C           3.2515   -0.0485   17.8161 C.ar    1  UNL1        0.0730
      7 C           3.8083   -1.4051   18.1311 C.ar    1  UNL1        0.1326
      8 O           4.7696   -2.0598   17.1838 O.3     1  UNL1       -0.5057
      9 H           1.1329    2.3719   19.0401 H       1  UNL1        0.2922
     10 H           5.0223   -1.6212   16.3953 H       1  UNL1        0.2922
     11 C           0.9245    0.5588   20.9731 C.2     1  UNL1        0.2522
     12 O          -0.3939    1.0682   20.4708 O.2     1  UNL1       -0.2698
     13 N           1.2817    0.7041   22.4227 N.am    1  UNL1       -0.2715
     14 C           2.6001    0.1947   22.9250 C.3     1  UNL1        0.0992
     15 C           2.9573    0.3400   24.3746 C.3     1  UNL1        0.0542
     16 C           1.9960    0.9946   25.3219 C.ar    1  UNL1        0.0066
     17 S           2.0718    1.2764   26.7932 S.2     1  UNL1       -0.0910
     18 C           0.8001    1.9600   27.2002 C.ar    1  UNL1        0.0348
     19 C          -0.0615    2.1006   25.9805 C.ar    1  UNL1        0.0045
     20 C           0.6776    1.5040   24.8196 C.ar    1  UNL1        0.0002
     21 C           0.3204    1.3587   23.3700 C.3     1  UNL1        0.1206
     22 C           3.2906   -4.6932   19.1703 C.3     1  UNL1        0.0048
     23 C           3.9607   -3.4640   19.7085 C.3     1  UNL1        0.0253
     24 C           5.1878   -3.5913   20.5618 C.3     1  UNL1        0.0048
@<TRIPOS>BOND
     1    22    23    1
     2    23    24    1
     3    23     1    1
     4     1     2   ar
     5     2     3   ar
     6     3    11    1
     7    11    12    2
     8    11    13   am
     9    13    14    1
    10    14    15    1
    11    15    16    1
    12    16    17   ar
    13    17    18   ar
    14    18    19   ar
    15    19    20   ar
    16    20    21    1
    17     3     4   ar
    18     4     5    1
    19     4     6   ar
    20     6     7   ar
    21     7     8    1
    22     7     1   ar
    23    21    13    1
    24    20    16   ar
    25     5     9    1
    26     8    10    1
@<TRIPOS>MOLECULE
*****
 24 26 0 0 0
SMALL
GASTEIGER

@<TRIPOS>ATOM
      1 C           5.3522   -0.6582   18.3733 C.ar    1  UNL1        0.0115
      2 C           5.9799   -0.9365   19.7069 C.ar    1  UNL1        0.0063
      3 C           5.7266   -2.2441   20.3969 C.ar    1  UNL1        0.0871
      4 C           4.8456   -3.2734   19.7531 C.ar    1  UNL1        0.1410
      5 O           4.5923   -4.5810   20.4430 O.3     1  UNL1       -0.5053
      6 C           4.2179   -2.9951   18.4194 C.ar    1  UNL1        0.0730
      7 C           4.4712   -1.6876   17.7295 C.ar    1  UNL1        0.1326
      8 O           3.8436   -1.4092   16.3959 O.3     1  UNL1       -0.5057
      9 H           4.9843   -4.7549   21.2761 H       1  UNL1        0.2922
     10 H           3.2933   -2.0522   15.9938 H       1  UNL1        0.2922
     11 C           6.3542   -2.5224   21.7305 C.2     1  UNL1        0.2522
     12 O           7.6991   -3.1825   21.8034 O.2     1  UNL1       -0.2698
     13 N           5.6368   -2.1406   22.9913 N.am    1  UNL1       -0.2715
     14 C           4.2919   -1.4805   22.9185 C.3     1  UNL1        0.0992
     15 C           3.5745   -1.0987   24.1793 C.3     1  UNL1        0.0542
     16 C           4.2021   -1.3770   25.5129 C.ar    1  UNL1        0.0066
     17 S           3.7372   -1.1162   26.9150 S.2     1  UNL1       -0.0910
     18 C           4.7949   -1.6151   27.8544 C.ar    1  UNL1        0.0348
     19 C           5.9134   -2.1843   27.0329 C.ar    1  UNL1        0.0045
     20 C           5.5471   -2.0371   25.5858 C.ar    1  UNL1        0.0002
     21 C           6.2644   -2.4189   24.3250 C.3     1  UNL1        0.1206
     22 C           6.6930    0.7570   16.6558 C.3     1  UNL1        0.0048
     23 C           5.6056    0.6495   17.6834 C.3     1  UNL1        0.0253
     24 C           4.7714    1.8495   18.0211 C.3     1  UNL1        0.0048
@<TRIPOS>BOND
     1    22    23    1
     2    23    24    1
     3    23     1    1
     4     1     2   ar
     5     2     3   ar
     6     3    11    1
     7    11    12    2
     8    11    13   am
     9    13    14    1
    10    14    15    1
    11    15    16    1
    12    16    17   ar
    13    17    18   ar
    14    18    19   ar
    15    19    20   ar
    16    20    21    1
    17     3     4   ar
    18     4     5    1
    19     4     6   ar
    20     6     7   ar
    21     7     8    1
    22     7     1   ar
    23    21    13    1
    24    20    16   ar
    25     5     9    1
    26     8    10    1
@<TRIPOS>MOLECULE
*****
 24 26 0 0 0
SMALL
GASTEIGER

@<TRIPOS>ATOM
      1 C           5.2181   -2.3234   20.6333 C.ar    1  UNL1        0.0115
      2 C           4.7527   -0.9398   20.2883 C.ar    1  UNL1        0.0063
      3 C           4.3288   -0.6190   18.8856 C.ar    1  UNL1        0.0871
      4 C           4.3705   -1.6818   17.8280 C.ar    1  UNL1        0.1410
      5 O           3.9467   -1.3610   16.4253 O.3     1  UNL1       -0.5053
      6 C           4.8359   -3.0655   18.1730 C.ar    1  UNL1        0.0730
      7 C           5.2597   -3.3862   19.5756 C.ar    1  UNL1        0.1326
      8 O           5.7251   -4.7698   19.9206 O.3     1  UNL1       -0.5057
      9 H           3.6559   -0.4968   16.2097 H       1  UNL1        0.2922
     10 H           5.7511   -5.4337   19.2599 H       1  UNL1        0.2922
     11 C           3.8634    0.7646   18.5406 C.2     1  UNL1        0.2522
     12 O           4.7269    1.6589   17.7013 O.2     1  UNL1       -0.2698
     13 N           2.5344    1.2539   19.0350 N.am    1  UNL1       -0.2715
     14 C           1.6709    0.3596   19.8743 C.3     1  UNL1        0.0992
     15 C           0.3418    0.8489   20.3687 C.3     1  UNL1        0.0542
     16 C          -0.1236    2.2324   20.0237 C.ar    1  UNL1        0.0066
     17 S          -1.3758    2.9844   20.3651 S.2     1  UNL1       -0.0910
     18 C          -1.2861    4.3435   19.7367 C.ar    1  UNL1        0.0348
     19 C           0.0215    4.4315   19.0069 C.ar    1  UNL1        0.0045
     20 C           0.7399    3.1267   19.1843 C.ar    1  UNL1        0.0002
     21 C           2.0689    2.6374   18.6900 C.3     1  UNL1        0.1206
     22 C           4.6259   -3.1005   23.0407 C.3     1  UNL1        0.0048
     23 C           5.6419   -2.6442   22.0360 C.3     1  UNL1        0.0253
     24 C           7.0818   -2.5085   22.4339 C.3     1  UNL1        0.0048
@<TRIPOS>BOND
     1    22    23    1
     2    23    24    1
     3    23     1    1
     4     1     2   ar
     5     2     3   ar
     6     3    11    1
     7    11    12    2
     8    11    13   am
     9    13    14    1
    10    14    15    1
    11    15    16    1
    12    16    17   ar
    13    17    18   ar
    14    18    19   ar
    15    19    20   ar
    16    20    21    1
    17     3     4   ar
    18     4     5    1
    19     4     6   ar
    20     6     7   ar
    21     7     8    1
    22     7     1   ar
    23    21    13    1
    24    20    16   ar
    25     5     9    1
    26     8    10    1
