@<TRIPOS>MOLECULE
*****
 38 42 0 0 0
SMALL
GASTEIGER

@<TRIPOS>ATOM
      1 C           4.7564   -0.6585   18.1878 C.3     1  UNL1        0.3254
      2 F           4.0231   -1.2461   17.0187 F       1  UNL1       -0.1949
      3 F           5.1727    0.1032   19.4112 F       1  UNL1       -0.1949
      4 C           1.0963    1.7159   19.2902 C.ar    1  UNL1        0.0889
      5 C           2.3002    2.4116   18.7277 C.ar    1  UNL1        0.0207
      6 C           3.5202    1.6201   18.3602 C.ar    1  UNL1        0.0217
      7 C           3.5363    0.1330   18.5553 C.ar    1  UNL1        0.1219
      8 N           2.3324   -0.5627   19.1179 N.ar    1  UNL1       -0.2412
      9 C           1.1124    0.2288   19.4853 C.ar    1  UNL1        0.1163
     10 O          -0.4215    1.6705   22.1789 O.2     1  UNL1       -0.2444
     11 C          -0.8214    2.4865   20.9855 C.ar    1  UNL1        0.3523
     12 N          -0.1238    2.5074   19.6577 N.ar    1  UNL1       -0.2382
     13 C          -0.8605    3.4587   18.7620 C.ar    1  UNL1        0.2073
     14 N          -2.0134    4.0257   19.5362 N.ar    1  UNL1       -0.1442
     15 N          -1.9893    3.4249   20.9104 N.ar    1  UNL1       -0.2024
     16 C          -2.9621    3.7120   22.0154 C.3     1  UNL1        0.1099
     17 C          -2.5105    4.4542   23.2382 C.3     1  UNL1        0.0245
     18 C          -3.4834    4.7413   24.3433 C.3     1  UNL1        0.0020
     19 C          -4.9078    4.2862   24.2255 C.3     1  UNL1        0.0001
     20 C          -5.3594    3.5440   23.0027 C.3     1  UNL1        0.0020
     21 C          -4.3865    3.2569   21.8977 C.3     1  UNL1        0.0245
     22 C           5.9765   -1.4499   17.8204 C.3     1  UNL1        0.1932
     23 O           7.1966   -2.2414   17.4530 O.3     1  UNL1       -0.3755
     24 H           7.0129   -3.1877   17.5615 H       1  UNL1        0.2110
     25 C           6.7090   -0.1777   17.5126 C.ar    1  UNL1        0.0368
     26 C           6.3537    0.6154   16.2900 C.ar    1  UNL1        0.0028
     27 C           7.0863    1.8877   15.9822 C.ar    1  UNL1        0.0295
     28 C           8.1742    2.3668   16.8970 C.ar    1  UNL1        0.1424
     29 F           8.9068    3.6391   16.5892 F       1  UNL1       -0.2041
     30 C           8.5295    1.5737   18.1196 C.ar    1  UNL1        0.0590
     31 C           7.7970    0.3015   18.4274 C.ar    1  UNL1        0.1408
     32 F           8.1523   -0.4916   19.6500 F       1  UNL1       -0.2043
     33 C           5.2439   -2.7221   18.1282 C.3     1  UNL1        0.1679
     34 N           5.3437   -3.3333   19.4944 N.ar    1  UNL1       -0.2078
     35 C           4.1915   -3.7107   20.3778 C.ar    1  UNL1        0.2216
     36 N           4.7489   -4.2850   21.6465 N.ar    1  UNL1       -0.1048
     37 N           6.2455   -4.2626   21.5472 N.ar    1  UNL1       -0.0226
     38 N           6.6130   -3.6744   20.2172 N.ar    1  UNL1       -0.0428
@<TRIPOS>BOND
     1    10    11    2
     2    11    12   ar
     3    12     4    1
     4     4     5   ar
     5     5     6   ar
     6     6     7   ar
     7     7     1    1
     8     1     2    1
     9     1     3    1
    10     1    22    1
    11    22    23    1
    12    22    33    1
    13    33    34    1
    14    34    35   ar
    15    35    36   ar
    16    36    37   ar
    17    37    38   ar
    18    22    25    1
    19    25    26   ar
    20    26    27   ar
    21    27    28   ar
    22    28    29    1
    23    28    30   ar
    24    30    31   ar
    25    31    32    1
    26     7     8   ar
    27     8     9   ar
    28    12    13   ar
    29    13    14   ar
    30    14    15   ar
    31    15    16    1
    32    16    17    1
    33    17    18    1
    34    18    19    1
    35    19    20    1
    36    20    21    1
    37    15    11   ar
    38    21    16    1
    39     9     4   ar
    40    38    34   ar
    41    31    25   ar
    42    23    24    1
@<TRIPOS>MOLECULE
*****
 38 42 0 0 0
SMALL
GASTEIGER

@<TRIPOS>ATOM
      1 C           4.4859    0.0256   17.9735 C.3     1  UNL1        0.3254
      2 F           3.8531   -0.5284   16.7315 F       1  UNL1       -0.1949
      3 F           4.8035    0.7632   19.2404 F       1  UNL1       -0.1949
      4 C           0.8110    2.5072   18.7392 C.ar    1  UNL1        0.0889
      5 C           0.7044    1.0130   18.6628 C.ar    1  UNL1        0.0207
      6 C           1.9293    0.1858   18.4076 C.ar    1  UNL1        0.0217
      7 C           3.2609    0.8528   18.2287 C.ar    1  UNL1        0.1219
      8 N           3.3675    2.3471   18.3051 N.ar    1  UNL1       -0.2412
      9 C           2.1426    3.1743   18.5603 C.ar    1  UNL1        0.1163
     10 O          -1.1391    2.2931   21.3470 O.2     1  UNL1       -0.2444
     11 C          -1.3103    3.2361   20.1931 C.ar    1  UNL1        0.3523
     12 N          -0.4140    3.3345   18.9944 N.ar    1  UNL1       -0.2382
     13 C          -0.9577    4.4054   18.0958 C.ar    1  UNL1        0.2073
     14 N          -2.1900    4.9688   18.7391 N.ar    1  UNL1       -0.1442
     15 N          -2.4080    4.2461   20.0354 N.ar    1  UNL1       -0.2024
     16 C          -3.5271    4.4906   21.0038 C.3     1  UNL1        0.1099
     17 C          -3.8525    5.8896   21.4363 C.3     1  UNL1        0.0245
     18 C          -4.9716    6.1340   22.4047 C.3     1  UNL1        0.0020
     19 C          -5.7653    4.9795   22.9406 C.3     1  UNL1        0.0001
     20 C          -5.4399    3.5806   22.5080 C.3     1  UNL1        0.0020
     21 C          -4.3208    3.3361   21.5396 C.3     1  UNL1        0.0245
     22 C           5.7109   -0.8017   17.7183 C.3     1  UNL1        0.1932
     23 O           6.9359   -1.6289   17.4631 O.3     1  UNL1       -0.3755
     24 H           7.4673   -1.2132   16.7662 H       1  UNL1        0.2110
     25 C           5.2722   -1.7759   18.7711 C.ar    1  UNL1        0.0368
     26 C           4.1856   -2.7655   18.4711 C.ar    1  UNL1        0.0028
     27 C           3.7470   -3.7398   19.5240 C.ar    1  UNL1        0.0295
     28 C           4.3950   -3.7245   20.8767 C.ar    1  UNL1        0.1424
     29 F           3.9564   -4.6988   21.9296 F       1  UNL1       -0.2041
     30 C           5.4816   -2.7349   21.1766 C.ar    1  UNL1        0.0590
     31 C           5.9202   -1.7606   20.1238 C.ar    1  UNL1        0.1408
     32 F           7.0069   -0.7710   20.4238 F       1  UNL1       -0.2043
     33 C           6.1495    0.1726   16.6655 C.3     1  UNL1        0.1679
     34 N           7.3739    1.0113   16.8832 N.ar    1  UNL1       -0.2078
     35 C           7.8648    2.1054   15.9820 C.ar    1  UNL1        0.2216
     36 N           9.1167    2.6734   16.5822 N.ar    1  UNL1       -0.1048
     37 N           9.3995    1.9304   17.8542 N.ar    1  UNL1       -0.0226
     38 N           8.3224    0.9032   18.0402 N.ar    1  UNL1       -0.0428
@<TRIPOS>BOND
     1    10    11    2
     2    11    12   ar
     3    12     4    1
     4     4     5   ar
     5     5     6   ar
     6     6     7   ar
     7     7     1    1
     8     1     2    1
     9     1     3    1
    10     1    22    1
    11    22    23    1
    12    22    33    1
    13    33    34    1
    14    34    35   ar
    15    35    36   ar
    16    36    37   ar
    17    37    38   ar
    18    22    25    1
    19    25    26   ar
    20    26    27   ar
    21    27    28   ar
    22    28    29    1
    23    28    30   ar
    24    30    31   ar
    25    31    32    1
    26     7     8   ar
    27     8     9   ar
    28    12    13   ar
    29    13    14   ar
    30    14    15   ar
    31    15    16    1
    32    16    17    1
    33    17    18    1
    34    18    19    1
    35    19    20    1
    36    20    21    1
    37    15    11   ar
    38    21    16    1
    39     9     4   ar
    40    38    34   ar
    41    31    25   ar
    42    23    24    1
@<TRIPOS>MOLECULE
*****
 38 42 0 0 0
SMALL
GASTEIGER

@<TRIPOS>ATOM
      1 C           4.6687   -0.8383   18.6675 C.3     1  UNL1        0.3254
      2 F           3.7151   -1.4051   17.6580 F       1  UNL1       -0.1949
      3 F           5.3229   -0.0995   19.7973 F       1  UNL1       -0.1949
      4 C           1.3062    1.5012   20.5304 C.ar    1  UNL1        0.0889
      5 C           1.1846    0.0154   20.3653 C.ar    1  UNL1        0.0207
      6 C           2.3054   -0.7645   19.7443 C.ar    1  UNL1        0.0217
      7 C           3.5478   -0.0584   19.2885 C.ar    1  UNL1        0.1219
      8 N           3.6695    1.4275   19.4535 N.ar    1  UNL1       -0.2412
      9 C           2.5487    2.2073   20.0745 C.ar    1  UNL1        0.1163
     10 O           0.4552    1.4593   23.6805 O.2     1  UNL1       -0.2444
     11 C          -0.2058    2.2619   22.5993 C.ar    1  UNL1        0.3523
     12 N           0.1854    2.2811   21.1513 N.ar    1  UNL1       -0.2382
     13 C          -0.7411    3.2172   20.4334 C.ar    1  UNL1        0.2073
     14 N          -1.7048    3.7764   21.4376 N.ar    1  UNL1       -0.1442
     15 N          -1.3740    3.1860   22.7763 N.ar    1  UNL1       -0.2024
     16 C          -2.0863    3.4698   24.0655 C.3     1  UNL1        0.1099
     17 C          -1.3007    3.6792   25.3261 C.3     1  UNL1        0.0245
     18 C          -2.0130    3.9631   26.6152 C.3     1  UNL1        0.0020
     19 C          -3.5108    4.0376   26.6438 C.3     1  UNL1        0.0001
     20 C          -4.2964    3.8282   25.3833 C.3     1  UNL1        0.0020
     21 C          -3.5841    3.5443   24.0941 C.3     1  UNL1        0.0245
     22 C           5.7895   -1.6181   18.0466 C.3     1  UNL1        0.1932
     23 O           6.9104   -2.3980   17.4257 O.3     1  UNL1       -0.3755
     24 H           6.7347   -3.3473   17.5198 H       1  UNL1        0.2110
     25 C           6.4739   -0.3368   17.6726 C.ar    1  UNL1        0.0368
     26 C           5.9122    0.5218   16.5785 C.ar    1  UNL1        0.0028
     27 C           6.5966    1.8032   16.2045 C.ar    1  UNL1        0.0295
     28 C           7.8426    2.2259   16.9247 C.ar    1  UNL1        0.1424
     29 F           8.5270    3.5072   16.5508 F       1  UNL1       -0.2041
     30 C           8.4043    1.3672   18.0189 C.ar    1  UNL1        0.0590
     31 C           7.7199    0.0859   18.3929 C.ar    1  UNL1        0.1408
     32 F           8.2816   -0.7727   19.4871 F       1  UNL1       -0.2043
     33 C           5.1052   -2.8994   18.4206 C.3     1  UNL1        0.1679
     34 N           5.2416   -3.4443   19.8114 N.ar    1  UNL1       -0.2078
     35 C           6.5298   -3.7582   20.5130 C.ar    1  UNL1        0.2216
     36 N           6.1980   -4.2789   21.8801 N.ar    1  UNL1       -0.1048
     37 N           4.7049   -4.2869   22.0234 N.ar    1  UNL1       -0.0226
     38 N           4.1138   -3.7711   20.7449 N.ar    1  UNL1       -0.0428
@<TRIPOS>BOND
     1    10    11    2
     2    11    12   ar
     3    12     4    1
     4     4     5   ar
     5     5     6   ar
     6     6     7   ar
     7     7     1    1
     8     1     2    1
     9     1     3    1
    10     1    22    1
    11    22    23    1
    12    22    33    1
    13    33    34    1
    14    34    35   ar
    15    35    36   ar
    16    36    37   ar
    17    37    38   ar
    18    22    25    1
    19    25    26   ar
    20    26    27   ar
    21    27    28   ar
    22    28    29    1
    23    28    30   ar
    24    30    31   ar
    25    31    32    1
    26     7     8   ar
    27     8     9   ar
    28    12    13   ar
    29    13    14   ar
    30    14    15   ar
    31    15    16    1
    32    16    17    1
    33    17    18    1
    34    18    19    1
    35    19    20    1
    36    20    21    1
    37    15    11   ar
    38    21    16    1
    39     9     4   ar
    40    38    34   ar
    41    31    25   ar
    42    23    24    1
@<TRIPOS>MOLECULE
*****
 38 42 0 0 0
SMALL
GASTEIGER

@<TRIPOS>ATOM
      1 C           3.4096   -0.7542   20.0931 C.3     1  UNL1        0.3254
      2 F           2.2703   -1.7298   20.0879 F       1  UNL1       -0.1949
      3 F           4.5023    0.2056   20.4606 F       1  UNL1       -0.1949
      4 C           3.2501   -0.5916   24.5873 C.ar    1  UNL1        0.0889
      5 C           2.2856    0.2186   23.7728 C.ar    1  UNL1        0.0207
      6 C           2.3388    0.1644   22.2748 C.ar    1  UNL1        0.0217
      7 C           3.3565   -0.7000   21.5912 C.ar    1  UNL1        0.1219
      8 N           4.3209   -1.5102   22.4057 N.ar    1  UNL1       -0.2412
      9 C           4.2677   -1.4560   23.9037 C.ar    1  UNL1        0.1163
     10 O           1.9659    1.8176   26.3752 O.2     1  UNL1       -0.2444
     11 C           2.6066    0.5700   26.9072 C.ar    1  UNL1        0.3523
     12 N           3.1969   -0.5374   26.0854 N.ar    1  UNL1       -0.2382
     13 C           3.7246   -1.5810   27.0247 C.ar    1  UNL1        0.2073
     14 N           3.4606   -1.1187   28.4270 N.ar    1  UNL1       -0.1442
     15 N           2.7696    0.2108   28.3544 N.ar    1  UNL1       -0.2024
     16 C           2.3204    1.0360   29.5237 C.3     1  UNL1        0.1099
     17 C           0.8565    1.2353   29.7828 C.3     1  UNL1        0.0245
     18 C           0.4073    2.0605   30.9521 C.3     1  UNL1        0.0020
     19 C           1.4221    2.6865   31.8622 C.3     1  UNL1        0.0001
     20 C           2.8861    2.4872   31.6031 C.3     1  UNL1        0.0020
     21 C           3.3352    1.6620   30.4338 C.3     1  UNL1        0.0245
     22 C           3.4628   -0.8083   18.5950 C.3     1  UNL1        0.1932
     23 O           3.5160   -0.8625   17.0969 O.3     1  UNL1       -0.3755
     24 H           3.9166   -1.7007   16.8177 H       1  UNL1        0.2110
     25 C           2.8247    0.5472   18.5234 C.ar    1  UNL1        0.0368
     26 C           1.3386    0.6854   18.6729 C.ar    1  UNL1        0.0028
     27 C           0.7004    2.0411   18.6013 C.ar    1  UNL1        0.0295
     28 C           1.5484    3.2584   18.3800 C.ar    1  UNL1        0.1424
     29 F           0.9102    4.6141   18.3084 F       1  UNL1       -0.2041
     30 C           3.0345    3.1202   18.2305 C.ar    1  UNL1        0.0590
     31 C           3.6726    1.7647   18.3021 C.ar    1  UNL1        0.1408
     32 F           5.1587    1.6265   18.1525 F       1  UNL1       -0.2043
     33 C           4.1010   -2.1639   18.6667 C.3     1  UNL1        0.1679
     34 N           5.5951   -2.2879   18.7141 N.ar    1  UNL1       -0.2078
     35 C           6.3984   -2.8382   19.8552 C.ar    1  UNL1        0.2216
     36 N           7.8480   -2.7738   19.4751 N.ar    1  UNL1       -0.1048
     37 N           7.9406   -2.1838   18.0991 N.ar    1  UNL1       -0.0226
     38 N           6.5483   -1.8835   17.6288 N.ar    1  UNL1       -0.0428
@<TRIPOS>BOND
     1    10    11    2
     2    11    12   ar
     3    12     4    1
     4     4     5   ar
     5     5     6   ar
     6     6     7   ar
     7     7     1    1
     8     1     2    1
     9     1     3    1
    10     1    22    1
    11    22    23    1
    12    22    33    1
    13    33    34    1
    14    34    35   ar
    15    35    36   ar
    16    36    37   ar
    17    37    38   ar
    18    22    25    1
    19    25    26   ar
    20    26    27   ar
    21    27    28   ar
    22    28    29    1
    23    28    30   ar
    24    30    31   ar
    25    31    32    1
    26     7     8   ar
    27     8     9   ar
    28    12    13   ar
    29    13    14   ar
    30    14    15   ar
    31    15    16    1
    32    16    17    1
    33    17    18    1
    34    18    19    1
    35    19    20    1
    36    20    21    1
    37    15    11   ar
    38    21    16    1
    39     9     4   ar
    40    38    34   ar
    41    31    25   ar
    42    23    24    1
@<TRIPOS>MOLECULE
*****
 38 42 0 0 0
SMALL
GASTEIGER

@<TRIPOS>ATOM
      1 C           4.0964   -0.1141   22.2444 C.3     1  UNL1        0.3254
      2 F           4.8342    1.1736   22.4618 F       1  UNL1       -0.1949
      3 F           3.2993   -1.3768   22.3869 F       1  UNL1       -0.1949
      4 C           3.0907   -0.2782   26.6275 C.ar    1  UNL1        0.0889
      5 C           3.8732   -1.3909   25.9954 C.ar    1  UNL1        0.0207
      6 C           4.2084   -1.3362   24.5344 C.ar    1  UNL1        0.0217
      7 C           3.7611   -0.1688   23.7055 C.ar    1  UNL1        0.1219
      8 N           2.9787    0.9439   24.3376 N.ar    1  UNL1       -0.2412
      9 C           2.6435    0.8892   25.7986 C.ar    1  UNL1        0.1163
     10 O           5.2266   -0.5885   29.0753 O.2     1  UNL1       -0.2444
     11 C           3.7373   -0.4755   29.2137 C.ar    1  UNL1        0.3523
     12 N           2.7555   -0.3328   28.0886 N.ar    1  UNL1       -0.2382
     13 C           1.3797   -0.2545   28.6811 C.ar    1  UNL1        0.2073
     14 N           1.5112   -0.3487   30.1723 N.ar    1  UNL1       -0.1442
     15 N           2.9682   -0.4853   30.5015 N.ar    1  UNL1       -0.2024
     16 C           3.5535   -0.6098   31.8770 C.3     1  UNL1        0.1099
     17 C           4.2614   -1.8695   32.2797 C.3     1  UNL1        0.0245
     18 C           4.8466   -1.9940   33.6551 C.3     1  UNL1        0.0020
     19 C           4.7240   -0.8588   34.6279 C.3     1  UNL1        0.0001
     20 C           4.0161    0.4008   34.2253 C.3     1  UNL1        0.0020
     21 C           3.4308    0.5254   32.8498 C.3     1  UNL1        0.0245
     22 C           4.4316   -0.0595   20.7834 C.3     1  UNL1        0.1932
     23 O           4.7668   -0.0048   19.3223 O.3     1  UNL1       -0.3755
     24 H           4.3230    0.7566   18.9170 H       1  UNL1        0.2110
     25 C           5.2779   -1.2890   20.9316 C.ar    1  UNL1        0.0368
     26 C           6.6119   -1.2036   21.6122 C.ar    1  UNL1        0.0028
     27 C           7.4583   -2.4332   21.7603 C.ar    1  UNL1        0.0295
     28 C           6.9706   -3.7480   21.2280 C.ar    1  UNL1        0.1424
     29 F           7.8170   -4.9776   21.3762 F       1  UNL1       -0.2041
     30 C           5.6366   -3.8333   20.5474 C.ar    1  UNL1        0.0590
     31 C           4.7903   -2.6038   20.3992 C.ar    1  UNL1        0.1408
     32 F           3.4563   -2.6892   19.7187 F       1  UNL1       -0.2043
     33 C           3.5852    1.1700   20.6352 C.3     1  UNL1        0.1679
     34 N           2.0927    1.0711   20.7467 N.ar    1  UNL1       -0.2078
     35 C           1.1873    2.0823   21.3853 C.ar    1  UNL1        0.2216
     36 N          -0.2215    1.5796   21.2726 N.ar    1  UNL1       -0.1048
     37 N          -0.1868    0.2578   20.5643 N.ar    1  UNL1       -0.0226
     38 N           1.2434   -0.0565   20.2393 N.ar    1  UNL1       -0.0428
@<TRIPOS>BOND
     1    10    11    2
     2    11    12   ar
     3    12     4    1
     4     4     5   ar
     5     5     6   ar
     6     6     7   ar
     7     7     1    1
     8     1     2    1
     9     1     3    1
    10     1    22    1
    11    22    23    1
    12    22    33    1
    13    33    34    1
    14    34    35   ar
    15    35    36   ar
    16    36    37   ar
    17    37    38   ar
    18    22    25    1
    19    25    26   ar
    20    26    27   ar
    21    27    28   ar
    22    28    29    1
    23    28    30   ar
    24    30    31   ar
    25    31    32    1
    26     7     8   ar
    27     8     9   ar
    28    12    13   ar
    29    13    14   ar
    30    14    15   ar
    31    15    16    1
    32    16    17    1
    33    17    18    1
    34    18    19    1
    35    19    20    1
    36    20    21    1
    37    15    11   ar
    38    21    16    1
    39     9     4   ar
    40    38    34   ar
    41    31    25   ar
    42    23    24    1
@<TRIPOS>MOLECULE
*****
 38 42 0 0 0
SMALL
GASTEIGER

@<TRIPOS>ATOM
      1 C           3.9668   -0.1881   22.3273 C.3     1  UNL1        0.3254
      2 F           5.0945    0.7648   22.5924 F       1  UNL1       -0.1949
      3 F           2.7968   -1.1218   22.4249 F       1  UNL1       -0.1949
      4 C           3.0280   -0.3016   26.7268 C.ar    1  UNL1        0.0889
      5 C           2.4345    0.7697   25.8607 C.ar    1  UNL1        0.0207
      6 C           2.7474    0.8075   24.3942 C.ar    1  UNL1        0.0217
      7 C           3.6539   -0.2259   23.7938 C.ar    1  UNL1        0.1219
      8 N           4.2474   -1.2972   24.6599 N.ar    1  UNL1       -0.2412
      9 C           3.9344   -1.3350   26.1264 C.ar    1  UNL1        0.1163
     10 O           5.1992   -0.6054   29.1442 O.2     1  UNL1       -0.2444
     11 C           3.7131   -0.4791   29.3045 C.ar    1  UNL1        0.3523
     12 N           2.7151   -0.3395   28.1934 N.ar    1  UNL1       -0.2382
     13 C           1.3494   -0.2443   28.8063 C.ar    1  UNL1        0.2073
     14 N           1.5033   -0.3252   30.2961 N.ar    1  UNL1       -0.1442
     15 N           2.9642   -0.4703   30.6041 N.ar    1  UNL1       -0.2024
     16 C           3.5697   -0.5862   31.9715 C.3     1  UNL1        0.1099
     17 C           3.4526    0.5511   32.9425 C.3     1  UNL1        0.0245
     18 C           4.0582    0.4352   34.3099 C.3     1  UNL1        0.0020
     19 C           4.7809   -0.8180   34.7063 C.3     1  UNL1        0.0001
     20 C           4.8980   -1.9553   33.7353 C.3     1  UNL1        0.0020
     21 C           4.2924   -1.8394   32.3679 C.3     1  UNL1        0.0245
     22 C           4.2796   -0.1502   20.8608 C.3     1  UNL1        0.1932
     23 O           4.5925   -0.1124   19.3942 O.3     1  UNL1       -0.3755
     24 H           5.4528   -0.5317   19.2363 H       1  UNL1        0.2110
     25 C           2.9791    0.5508   20.6015 C.ar    1  UNL1        0.0368
     26 C           2.8512    2.0199   20.8760 C.ar    1  UNL1        0.0028
     27 C           1.5507    2.7209   20.6166 C.ar    1  UNL1        0.0295
     28 C           0.3781    1.9528   20.0827 C.ar    1  UNL1        0.1424
     29 F          -0.9225    2.6538   19.8234 F       1  UNL1       -0.2041
     30 C           0.5060    0.4837   19.8082 C.ar    1  UNL1        0.0590
     31 C           1.8065   -0.2173   20.0675 C.ar    1  UNL1        0.1408
     32 F           1.9344   -1.6864   19.7930 F       1  UNL1       -0.2043
     33 C           5.5801   -0.8512   21.1201 C.3     1  UNL1        0.1679
     34 N           5.6972   -2.3274   20.8806 N.ar    1  UNL1       -0.2078
     35 C           4.5624   -3.2684   20.6031 C.ar    1  UNL1        0.2216
     36 N           5.1336   -4.6442   20.4275 N.ar    1  UNL1       -0.1048
     37 N           6.6213   -4.5536   20.5965 N.ar    1  UNL1       -0.0226
     38 N           6.9696   -3.1217   20.8765 N.ar    1  UNL1       -0.0428
@<TRIPOS>BOND
     1    10    11    2
     2    11    12   ar
     3    12     4    1
     4     4     5   ar
     5     5     6   ar
     6     6     7   ar
     7     7     1    1
     8     1     2    1
     9     1     3    1
    10     1    22    1
    11    22    23    1
    12    22    33    1
    13    33    34    1
    14    34    35   ar
    15    35    36   ar
    16    36    37   ar
    17    37    38   ar
    18    22    25    1
    19    25    26   ar
    20    26    27   ar
    21    27    28   ar
    22    28    29    1
    23    28    30   ar
    24    30    31   ar
    25    31    32    1
    26     7     8   ar
    27     8     9   ar
    28    12    13   ar
    29    13    14   ar
    30    14    15   ar
    31    15    16    1
    32    16    17    1
    33    17    18    1
    34    18    19    1
    35    19    20    1
    36    20    21    1
    37    15    11   ar
    38    21    16    1
    39     9     4   ar
    40    38    34   ar
    41    31    25   ar
    42    23    24    1
@<TRIPOS>MOLECULE
*****
 38 42 0 0 0
SMALL
GASTEIGER

@<TRIPOS>ATOM
      1 C           4.0223   -0.3411   20.9881 C.3     1  UNL1        0.3254
      2 F           5.3255    0.3017   20.6162 F       1  UNL1       -0.1949
      3 F           2.8762   -1.0082   21.6893 F       1  UNL1       -0.1949
      4 C           5.4914   -0.8787   25.2074 C.ar    1  UNL1        0.0889
      5 C           5.3959   -2.0616   24.2901 C.ar    1  UNL1        0.0207
      6 C           4.9062   -1.8824   22.8837 C.ar    1  UNL1        0.0217
      7 C           4.5120   -0.5203   22.3946 C.ar    1  UNL1        0.1219
      8 N           4.6076    0.6626   23.3119 N.ar    1  UNL1       -0.2412
      9 C           5.0972    0.4834   24.7183 C.ar    1  UNL1        0.1163
     10 O           3.6547   -1.6372   27.7961 O.2     1  UNL1       -0.2444
     11 C           5.1368   -1.4065   27.8038 C.ar    1  UNL1        0.3523
     12 N           5.9811   -1.0579   26.6139 N.ar    1  UNL1       -0.2382
     13 C           7.4010   -0.9199   27.0775 C.ar    1  UNL1        0.2073
     14 N           7.4343   -1.1832   28.5538 N.ar    1  UNL1       -0.1442
     15 N           6.0349   -1.4840   29.0027 N.ar    1  UNL1       -0.2024
     16 C           5.6086   -1.8058   30.4044 C.3     1  UNL1        0.1099
     17 C           6.2699   -2.9261   31.1510 C.3     1  UNL1        0.0245
     18 C           5.8436   -3.2479   32.5527 C.3     1  UNL1        0.0020
     19 C           4.7559   -2.4493   33.2077 C.3     1  UNL1        0.0001
     20 C           4.0945   -1.3289   32.4611 C.3     1  UNL1        0.0020
     21 C           4.5209   -1.0071   31.0594 C.3     1  UNL1        0.0245
     22 C           3.5326   -0.1620   19.5817 C.3     1  UNL1        0.1932
     23 O           3.0428    0.0172   18.1752 O.3     1  UNL1       -0.3755
     24 H           2.7139    0.9225   18.0603 H       1  UNL1        0.2110
     25 C           3.8989   -1.5834   19.2731 C.ar    1  UNL1        0.0368
     26 C           2.9859   -2.6997   19.6856 C.ar    1  UNL1        0.0028
     27 C           3.3522   -4.1212   19.3769 C.ar    1  UNL1        0.0295
     28 C           4.6316   -4.4263   18.6558 C.ar    1  UNL1        0.1424
     29 F           4.9980   -5.8478   18.3472 F       1  UNL1       -0.2041
     30 C           5.5447   -3.3100   18.2434 C.ar    1  UNL1        0.0590
     31 C           5.1784   -1.8886   18.5520 C.ar    1  UNL1        0.1408
     32 F           6.0915   -0.7722   18.1395 F       1  UNL1       -0.2043
     33 C           3.1663    1.2595   19.8903 C.3     1  UNL1        0.1679
     34 N           1.7589    1.6040   20.2783 N.ar    1  UNL1       -0.2078
     35 C           1.2992    2.9067   20.8630 C.ar    1  UNL1        0.2216
     36 N          -0.1797    2.8141   21.0957 N.ar    1  UNL1       -0.1048
     37 N          -0.6342    1.4543   20.6548 N.ar    1  UNL1       -0.0226
     38 N           0.5640    0.7064   20.1496 N.ar    1  UNL1       -0.0428
@<TRIPOS>BOND
     1    10    11    2
     2    11    12   ar
     3    12     4    1
     4     4     5   ar
     5     5     6   ar
     6     6     7   ar
     7     7     1    1
     8     1     2    1
     9     1     3    1
    10     1    22    1
    11    22    23    1
    12    22    33    1
    13    33    34    1
    14    34    35   ar
    15    35    36   ar
    16    36    37   ar
    17    37    38   ar
    18    22    25    1
    19    25    26   ar
    20    26    27   ar
    21    27    28   ar
    22    28    29    1
    23    28    30   ar
    24    30    31   ar
    25    31    32    1
    26     7     8   ar
    27     8     9   ar
    28    12    13   ar
    29    13    14   ar
    30    14    15   ar
    31    15    16    1
    32    16    17    1
    33    17    18    1
    34    18    19    1
    35    19    20    1
    36    20    21    1
    37    15    11   ar
    38    21    16    1
    39     9     4   ar
    40    38    34   ar
    41    31    25   ar
    42    23    24    1
@<TRIPOS>MOLECULE
*****
 38 42 0 0 0
SMALL
GASTEIGER

@<TRIPOS>ATOM
      1 C           3.4422   -0.8396   20.3204 C.3     1  UNL1        0.3254
      2 F           2.5474   -2.0411   20.2471 F       1  UNL1       -0.1949
      3 F           4.4933    0.1736   20.6653 F       1  UNL1       -0.1949
      4 C           5.7080   -2.7337   23.7157 C.ar    1  UNL1        0.0889
      5 C           5.7508   -1.2468   23.5227 C.ar    1  UNL1        0.0207
      6 C           4.9955   -0.6155   22.3909 C.ar    1  UNL1        0.0217
      7 C           4.1975   -1.4710   21.4522 C.ar    1  UNL1        0.1219
      8 N           4.1547   -2.9579   21.6452 N.ar    1  UNL1       -0.2412
      9 C           4.9100   -3.5892   22.7770 C.ar    1  UNL1        0.1163
     10 O           5.2145   -2.1834   26.8943 O.2     1  UNL1       -0.2444
     11 C           6.2364   -3.1121   26.3086 C.ar    1  UNL1        0.3523
     12 N           6.4633   -3.3651   24.8475 N.ar    1  UNL1       -0.2382
     13 C           7.5779   -4.3603   24.7170 C.ar    1  UNL1        0.2073
     14 N           8.0400   -4.7224   26.0974 N.ar    1  UNL1       -0.1442
     15 N           7.2109   -3.9510   27.0811 N.ar    1  UNL1       -0.2024
     16 C           7.3346   -4.0084   28.5748 C.3     1  UNL1        0.1099
     17 C           7.9659   -2.8695   29.3194 C.3     1  UNL1        0.0245
     18 C           8.0896   -2.9269   30.8132 C.3     1  UNL1        0.0020
     19 C           7.5819   -4.1231   31.5624 C.3     1  UNL1        0.0001
     20 C           6.9505   -5.2620   30.8178 C.3     1  UNL1        0.0020
     21 C           6.8269   -5.2046   29.3240 C.3     1  UNL1        0.0245
     22 C           2.6870   -0.2081   19.1886 C.3     1  UNL1        0.1932
     23 O           1.9318    0.4233   18.0568 O.3     1  UNL1       -0.3755
     24 H           2.0766   -0.0890   17.2459 H       1  UNL1        0.2110
     25 C           2.1826    0.8553   20.1185 C.ar    1  UNL1        0.0368
     26 C           1.1243    0.5271   21.1296 C.ar    1  UNL1        0.0028
     27 C           0.6199    1.5906   22.0595 C.ar    1  UNL1        0.0295
     28 C           1.1738    2.9821   21.9783 C.ar    1  UNL1        0.1424
     29 F           0.6694    4.0456   22.9082 F       1  UNL1       -0.2041
     30 C           2.2321    3.3103   20.9672 C.ar    1  UNL1        0.0590
     31 C           2.7365    2.2469   20.0373 C.ar    1  UNL1        0.1408
     32 F           3.7948    2.5751   19.0262 F       1  UNL1       -0.2043
     33 C           3.1914   -1.2715   18.2587 C.3     1  UNL1        0.1679
     34 N           4.6307   -1.2775   17.8365 N.ar    1  UNL1       -0.2078
     35 C           5.3996   -0.1026   17.3084 C.ar    1  UNL1        0.2216
     36 N           6.7980   -0.5584   17.0137 N.ar    1  UNL1       -0.1048
     37 N           6.8934   -2.0149   17.3596 N.ar    1  UNL1       -0.0226
     38 N           5.5540   -2.4593   17.8681 N.ar    1  UNL1       -0.0428
@<TRIPOS>BOND
     1    10    11    2
     2    11    12   ar
     3    12     4    1
     4     4     5   ar
     5     5     6   ar
     6     6     7   ar
     7     7     1    1
     8     1     2    1
     9     1     3    1
    10     1    22    1
    11    22    23    1
    12    22    33    1
    13    33    34    1
    14    34    35   ar
    15    35    36   ar
    16    36    37   ar
    17    37    38   ar
    18    22    25    1
    19    25    26   ar
    20    26    27   ar
    21    27    28   ar
    22    28    29    1
    23    28    30   ar
    24    30    31   ar
    25    31    32    1
    26     7     8   ar
    27     8     9   ar
    28    12    13   ar
    29    13    14   ar
    30    14    15   ar
    31    15    16    1
    32    16    17    1
    33    17    18    1
    34    18    19    1
    35    19    20    1
    36    20    21    1
    37    15    11   ar
    38    21    16    1
    39     9     4   ar
    40    38    34   ar
    41    31    25   ar
    42    23    24    1
@<TRIPOS>MOLECULE
*****
 38 42 0 0 0
SMALL
GASTEIGER

@<TRIPOS>ATOM
      1 C           4.2643   -2.2433   21.1216 C.3     1  UNL1        0.3254
      2 F           3.5798   -3.5313   21.4712 F       1  UNL1       -0.1949
      3 F           4.9198   -0.8940   21.1314 F       1  UNL1       -0.1949
      4 C           4.1553   -1.0108   25.4482 C.ar    1  UNL1        0.0889
      5 C           3.1167   -0.4971   24.4956 C.ar    1  UNL1        0.0207
      6 C           3.1530   -0.9079   23.0535 C.ar    1  UNL1        0.0217
      7 C           4.2280   -1.8324   22.5639 C.ar    1  UNL1        0.1219
      8 N           5.2666   -2.3461   23.5164 N.ar    1  UNL1       -0.2412
      9 C           5.2303   -1.9353   24.9586 C.ar    1  UNL1        0.1163
     10 O           5.3989   -2.6920   27.9535 O.2     1  UNL1       -0.2444
     11 C           4.6906   -1.3727   28.0420 C.ar    1  UNL1        0.3523
     12 N           4.1190   -0.5999   26.8904 N.ar    1  UNL1       -0.2382
     13 C           3.5047    0.6558   27.4343 C.ar    1  UNL1        0.2073
     14 N           3.6966    0.6590   28.9219 N.ar    1  UNL1       -0.1442
     15 N           4.4296   -0.5947   29.2975 N.ar    1  UNL1       -0.2024
     16 C           4.8311   -0.9992   30.6850 C.3     1  UNL1        0.1099
     17 C           6.2575   -1.3590   30.9782 C.3     1  UNL1        0.0245
     18 C           6.6590   -1.7635   32.3657 C.3     1  UNL1        0.0020
     19 C           5.6340   -1.8084   33.4600 C.3     1  UNL1        0.0001
     20 C           4.2076   -1.4486   33.1668 C.3     1  UNL1        0.0020
     21 C           3.8061   -1.0441   31.7793 C.3     1  UNL1        0.0245
     22 C           4.3007   -2.6540   19.6795 C.3     1  UNL1        0.1932
     23 O           4.3370   -3.0648   18.2372 O.3     1  UNL1       -0.3755
     24 H           4.8369   -3.8914   18.1490 H       1  UNL1        0.2110
     25 C           3.4936   -1.4435   19.3144 C.ar    1  UNL1        0.0368
     26 C           2.0639   -1.3345   19.7549 C.ar    1  UNL1        0.0028
     27 C           1.2569   -0.1239   19.3898 C.ar    1  UNL1        0.0295
     28 C           1.8795    0.9775   18.5841 C.ar    1  UNL1        0.1424
     29 F           1.0725    2.1881   18.2189 F       1  UNL1       -0.2041
     30 C           3.3092    0.8685   18.1435 C.ar    1  UNL1        0.0590
     31 C           4.1163   -0.3420   18.5086 C.ar    1  UNL1        0.1408
     32 F           5.5459   -0.4511   18.0681 F       1  UNL1       -0.2043
     33 C           5.1077   -3.8645   20.0446 C.3     1  UNL1        0.1679
     34 N           6.5679   -3.7257   20.3585 N.ar    1  UNL1       -0.2078
     35 C           7.5173   -2.7523   19.7250 C.ar    1  UNL1        0.2216
     36 N           8.8712   -2.9609   20.3362 N.ar    1  UNL1       -0.1048
     37 N           8.7586   -4.0631   21.3473 N.ar    1  UNL1       -0.0226
     38 N           7.3351   -4.5357   21.3611 N.ar    1  UNL1       -0.0428
@<TRIPOS>BOND
     1    10    11    2
     2    11    12   ar
     3    12     4    1
     4     4     5   ar
     5     5     6   ar
     6     6     7   ar
     7     7     1    1
     8     1     2    1
     9     1     3    1
    10     1    22    1
    11    22    23    1
    12    22    33    1
    13    33    34    1
    14    34    35   ar
    15    35    36   ar
    16    36    37   ar
    17    37    38   ar
    18    22    25    1
    19    25    26   ar
    20    26    27   ar
    21    27    28   ar
    22    28    29    1
    23    28    30   ar
    24    30    31   ar
    25    31    32    1
    26     7     8   ar
    27     8     9   ar
    28    12    13   ar
    29    13    14   ar
    30    14    15   ar
    31    15    16    1
    32    16    17    1
    33    17    18    1
    34    18    19    1
    35    19    20    1
    36    20    21    1
    37    15    11   ar
    38    21    16    1
    39     9     4   ar
    40    38    34   ar
    41    31    25   ar
    42    23    24    1
