@<TRIPOS>MOLECULE
*****
 26 29 0 0 0
SMALL
GASTEIGER

@<TRIPOS>ATOM
      1 C          -6.5508  -20.7796   21.6634 C.3     1  UNL1        0.1822
      2 C          -5.3101  -19.9785   21.4009 C.ar    1  UNL1        0.0017
      3 C          -4.8111  -19.0093   22.4313 C.ar    1  UNL1       -0.0029
      4 C          -3.5704  -18.2082   22.1687 C.ar    1  UNL1       -0.0045
      5 C          -2.8287  -18.3763   20.8758 C.ar    1  UNL1       -0.0215
      6 C          -3.3277  -19.3455   19.8454 C.ar    1  UNL1       -0.0045
      7 C          -4.5684  -20.1466   20.1080 C.ar    1  UNL1       -0.0029
      8 C          -1.5880  -17.5752   20.6133 C.3     1  UNL1        0.0347
      9 C          -0.9642  -18.5580   19.6672 C.3     1  UNL1        0.0726
     10 N           0.3527  -17.9973   19.2183 N.3     1  UNL1       -0.2972
     11 C           0.5428  -16.6681   19.8869 C.3     1  UNL1        0.0689
     12 C          -0.6567  -16.4073   20.7491 C.3     1  UNL1        0.0211
     13 C          -1.9525  -16.4250   21.5044 C.3     1  UNL1        0.0072
     14 H           0.3509  -17.8781   18.2053 H       1  UNL1        0.1233
     15 S          -7.8430  -20.0822   21.9700 S.O2    1  UNL1        0.0129
     16 O          -7.8173  -19.4390   20.6152 O.2     1  UNL1       -0.1683
     17 O          -7.8687  -20.7254   23.3248 O.2     1  UNL1       -0.1683
     18 C         -11.7195  -17.9902   22.8897 C.ar    1  UNL1       -0.0224
     19 C         -10.5468  -17.8359   23.8121 C.ar    1  UNL1       -0.0030
     20 C          -9.2546  -18.5333   23.5056 C.ar    1  UNL1        0.0180
     21 C          -9.1352  -19.3849   22.2766 C.ar    1  UNL1        0.1060
     22 C         -10.3079  -19.5391   21.3542 C.ar    1  UNL1        0.0180
     23 C         -11.6001  -18.8418   21.6607 C.ar    1  UNL1       -0.0030
     24 C         -14.0509  -17.9744   24.0361 C.3     1  UNL1        0.0047
     25 C         -13.0117  -17.2928   23.1963 C.3     1  UNL1        0.0224
     26 C         -13.2646  -15.9138   22.6630 C.3     1  UNL1        0.0047
@<TRIPOS>BOND
     1    24    25    1
     2    25    26    1
     3    25    18    1
     4    18    19   ar
     5    19    20   ar
     6    20    21   ar
     7    21    15    1
     8    15    16    2
     9    15    17    2
    10    15     1    1
    11     1     2    1
    12     2     3   ar
    13     3     4   ar
    14     4     5   ar
    15     8     5    1
    16     8     9    1
    17     9    10    1
    18    10    11    1
    19    12    11    1
    20    12    13    1
    21     5     6   ar
    22     6     7   ar
    23    21    22   ar
    24    22    23   ar
    25    23    18   ar
    26     7     2   ar
    27    12     8    1
    28    13     8    1
    29    10    14    1
@<TRIPOS>MOLECULE
*****
 26 29 0 0 0
SMALL
GASTEIGER

@<TRIPOS>ATOM
      1 C          -6.1906  -15.7806   24.5520 C.3     1  UNL1        0.1822
      2 C          -5.0714  -16.3029   23.7008 C.ar    1  UNL1        0.0017
      3 C          -4.0978  -15.3494   23.0741 C.ar    1  UNL1       -0.0029
      4 C          -2.9785  -15.8718   22.2229 C.ar    1  UNL1       -0.0045
      5 C          -2.8330  -17.3477   21.9985 C.ar    1  UNL1       -0.0215
      6 C          -3.8066  -18.3013   22.6252 C.ar    1  UNL1       -0.0045
      7 C          -4.9258  -17.7789   23.4764 C.ar    1  UNL1       -0.0029
      8 C          -1.7137  -17.8702   21.1473 C.3     1  UNL1        0.0347
      9 C          -1.1004  -16.5325   20.8567 C.3     1  UNL1        0.0726
     10 N           0.0982  -16.7525   19.9819 N.3     1  UNL1       -0.2972
     11 C           0.2255  -18.2260   19.7319 C.3     1  UNL1        0.0689
     12 C          -0.8944  -18.9167   20.4522 C.3     1  UNL1        0.0211
     13 C          -2.0932  -19.3169   21.2600 C.3     1  UNL1        0.0072
     14 H           0.9362  -16.4071   20.4497 H       1  UNL1        0.1233
     15 S          -7.6015  -16.2139   24.2845 S.O2    1  UNL1        0.0129
     16 O          -7.3480  -16.1279   22.8086 O.2     1  UNL1       -0.1683
     17 O          -7.8549  -16.2999   25.7604 O.2     1  UNL1       -0.1683
     18 C         -11.8342  -17.5140   23.4820 C.ar    1  UNL1       -0.0224
     19 C         -11.0035  -18.2467   24.4934 C.ar    1  UNL1       -0.0030
     20 C          -9.5926  -17.8134   24.7609 C.ar    1  UNL1        0.0180
     21 C          -9.0124  -16.6473   24.0170 C.ar    1  UNL1        0.1060
     22 C          -9.8430  -15.9145   23.0056 C.ar    1  UNL1        0.0180
     23 C         -11.2539  -16.3479   22.7381 C.ar    1  UNL1       -0.0030
     24 C         -13.7086  -18.1640   21.8045 C.3     1  UNL1        0.0047
     25 C         -13.2451  -17.9474   23.2145 C.3     1  UNL1        0.0224
     26 C         -14.1925  -18.1641   24.3570 C.3     1  UNL1        0.0047
@<TRIPOS>BOND
     1    24    25    1
     2    25    26    1
     3    25    18    1
     4    18    19   ar
     5    19    20   ar
     6    20    21   ar
     7    21    15    1
     8    15    16    2
     9    15    17    2
    10    15     1    1
    11     1     2    1
    12     2     3   ar
    13     3     4   ar
    14     4     5   ar
    15     8     5    1
    16     8     9    1
    17     9    10    1
    18    10    11    1
    19    12    11    1
    20    12    13    1
    21     5     6   ar
    22     6     7   ar
    23    21    22   ar
    24    22    23   ar
    25    23    18   ar
    26     7     2   ar
    27    12     8    1
    28    13     8    1
    29    10    14    1
@<TRIPOS>MOLECULE
*****
 26 29 0 0 0
SMALL
GASTEIGER

@<TRIPOS>ATOM
      1 C           7.7847   -3.8480   20.6545 C.3     1  UNL1        0.1822
      2 C           7.9484   -4.6844   21.8888 C.ar    1  UNL1        0.0017
      3 C           8.7951   -5.9220   21.8493 C.ar    1  UNL1       -0.0029
      4 C           8.9588   -6.7584   23.0838 C.ar    1  UNL1       -0.0045
      5 C           8.2759   -6.3572   24.3576 C.ar    1  UNL1       -0.0215
      6 C           7.4292   -5.1196   24.3970 C.ar    1  UNL1       -0.0045
      7 C           7.2655   -4.2832   23.1627 C.ar    1  UNL1       -0.0029
      8 C           8.4396   -7.1936   25.5920 C.3     1  UNL1        0.0347
      9 C           7.3802   -6.4978   26.3943 C.3     1  UNL1        0.0726
     10 N           7.3153   -7.1522   27.7425 N.3     1  UNL1       -0.2972
     11 C           8.3345   -8.2523   27.7734 C.3     1  UNL1        0.0689
     12 C           9.0293   -8.2778   26.4442 C.3     1  UNL1        0.0211
     13 C           9.5331   -8.0641   25.0477 C.3     1  UNL1        0.0072
     14 H           6.3838   -7.5389   27.8951 H       1  UNL1        0.1233
     15 S           6.5147   -3.0820   20.4306 S.O2    1  UNL1        0.0129
     16 O           7.2309   -1.8023   20.7461 O.2     1  UNL1       -0.1683
     17 O           5.7984   -4.3616   20.1151 O.2     1  UNL1       -0.1683
     18 C           2.7046   -0.7837   19.7590 C.ar    1  UNL1       -0.0224
     19 C           3.0564   -1.2670   21.1347 C.ar    1  UNL1       -0.0030
     20 C           4.3264   -2.0331   21.3586 C.ar    1  UNL1        0.0180
     21 C           5.2446   -2.3159   20.2067 C.ar    1  UNL1        0.1060
     22 C           4.8929   -1.8326   18.8310 C.ar    1  UNL1        0.0180
     23 C           3.6228   -1.0665   18.6071 C.ar    1  UNL1       -0.0030
     24 C           1.2735    0.8241   18.3040 C.3     1  UNL1        0.0047
     25 C           1.4345   -0.0176   19.5351 C.3     1  UNL1        0.0224
     26 C           0.3256   -0.0933   20.5423 C.3     1  UNL1        0.0047
@<TRIPOS>BOND
     1    24    25    1
     2    25    26    1
     3    25    18    1
     4    18    19   ar
     5    19    20   ar
     6    20    21   ar
     7    21    15    1
     8    15    16    2
     9    15    17    2
    10    15     1    1
    11     1     2    1
    12     2     3   ar
    13     3     4   ar
    14     4     5   ar
    15     8     5    1
    16     8     9    1
    17     9    10    1
    18    10    11    1
    19    12    11    1
    20    12    13    1
    21     5     6   ar
    22     6     7   ar
    23    21    22   ar
    24    22    23   ar
    25    23    18   ar
    26     7     2   ar
    27    12     8    1
    28    13     8    1
    29    10    14    1
@<TRIPOS>MOLECULE
*****
 26 29 0 0 0
SMALL
GASTEIGER

@<TRIPOS>ATOM
      1 C          -0.3363    3.0341   19.3934 C.3     1  UNL1        0.1822
      2 C           0.6275    1.8857   19.3433 C.ar    1  UNL1        0.0017
      3 C           0.3331    0.6259   20.1023 C.ar    1  UNL1       -0.0029
      4 C           1.2969   -0.5225   20.0521 C.ar    1  UNL1       -0.0045
      5 C           2.5550   -0.4109   19.2429 C.ar    1  UNL1       -0.0215
      6 C           2.8493    0.8489   18.4839 C.ar    1  UNL1       -0.0045
      7 C           1.8856    1.9973   18.5341 C.ar    1  UNL1       -0.0029
      8 C           3.5188   -1.5593   19.1927 C.3     1  UNL1        0.0347
      9 C           3.9424   -1.3462   17.7696 C.3     1  UNL1        0.0726
     10 N           4.9527   -2.3998   17.4241 N.3     1  UNL1       -0.2972
     11 C           5.1533   -3.2640   18.6336 C.3     1  UNL1        0.0689
     12 C           4.2671   -2.7445   19.7266 C.3     1  UNL1        0.0211
     13 C           3.2966   -2.0123   20.6052 C.3     1  UNL1        0.0072
     14 H           5.8352   -1.9606   17.1623 H       1  UNL1        0.1233
     15 S          -1.1714    3.2594   20.6189 S.O2    1  UNL1        0.0129
     16 O          -2.4036    2.8911   19.8469 O.2     1  UNL1       -0.1683
     17 O           0.0608    3.6277   21.3909 O.2     1  UNL1       -0.1683
     18 C          -3.6767    3.9353   24.2954 C.ar    1  UNL1       -0.0224
     19 C          -4.3274    3.8736   22.9453 C.ar    1  UNL1       -0.0030
     20 C          -3.4923    3.6483   21.7198 C.ar    1  UNL1        0.0180
     21 C          -2.0065    3.4847   21.8444 C.ar    1  UNL1        0.1060
     22 C          -1.3558    3.5463   23.1945 C.ar    1  UNL1        0.0180
     23 C          -2.1909    3.7716   24.4200 C.ar    1  UNL1       -0.0030
     24 C          -5.9172    4.6677   25.3880 C.3     1  UNL1        0.0047
     25 C          -4.5118    4.1606   25.5209 C.3     1  UNL1        0.0224
     26 C          -3.9416    3.8787   26.8793 C.3     1  UNL1        0.0047
@<TRIPOS>BOND
     1    24    25    1
     2    25    26    1
     3    25    18    1
     4    18    19   ar
     5    19    20   ar
     6    20    21   ar
     7    21    15    1
     8    15    16    2
     9    15    17    2
    10    15     1    1
    11     1     2    1
    12     2     3   ar
    13     3     4   ar
    14     4     5   ar
    15     8     5    1
    16     8     9    1
    17     9    10    1
    18    10    11    1
    19    12    11    1
    20    12    13    1
    21     5     6   ar
    22     6     7   ar
    23    21    22   ar
    24    22    23   ar
    25    23    18   ar
    26     7     2   ar
    27    12     8    1
    28    13     8    1
    29    10    14    1
@<TRIPOS>MOLECULE
*****
 26 29 0 0 0
SMALL
GASTEIGER

@<TRIPOS>ATOM
      1 C          -0.4231    2.8287   20.2184 C.3     1  UNL1        0.1822
      2 C          -1.6864    3.1416   20.9640 C.ar    1  UNL1        0.0017
      3 C          -1.6355    3.4436   22.4324 C.ar    1  UNL1       -0.0029
      4 C          -2.8990    3.7566   23.1780 C.ar    1  UNL1       -0.0045
      5 C          -4.2132    3.7676   22.4552 C.ar    1  UNL1       -0.0215
      6 C          -4.2641    3.4656   20.9868 C.ar    1  UNL1       -0.0045
      7 C          -3.0008    3.1526   20.2412 C.ar    1  UNL1       -0.0029
      8 C          -5.4767    4.0805   23.2008 C.3     1  UNL1        0.0347
      9 C          -6.3348    4.2649   21.9844 C.3     1  UNL1        0.0726
     10 N          -7.7225    4.6028   22.4431 N.3     1  UNL1       -0.2972
     11 C          -7.7219    4.6271   23.9429 C.3     1  UNL1        0.0689
     12 C          -6.3339    4.3044   24.4111 C.3     1  UNL1        0.0211
     13 C          -4.8826    3.9615   24.5729 C.3     1  UNL1        0.0072
     14 H          -8.3790    3.8974   22.1086 H       1  UNL1        0.1233
     15 S           0.5116    1.7755   20.7353 S.O2    1  UNL1        0.0129
     16 O           1.5633    2.8205   20.9630 O.2     1  UNL1       -0.1683
     17 O          -0.5401    0.7304   20.5076 O.2     1  UNL1       -0.1683
     18 C           3.3156   -1.3841   22.2860 C.ar    1  UNL1       -0.0224
     19 C           2.8499   -0.2840   23.1931 C.ar    1  UNL1       -0.0030
     20 C           1.9153    0.7692   22.6762 C.ar    1  UNL1        0.0180
     21 C           1.4462    0.7223   21.2522 C.ar    1  UNL1        0.1060
     22 C           1.9119   -0.3779   20.3452 C.ar    1  UNL1        0.0180
     23 C           2.8465   -1.4311   20.8621 C.ar    1  UNL1       -0.0030
     24 C           4.5835   -3.6271   21.9525 C.3     1  UNL1        0.0047
     25 C           4.2502   -2.4373   22.8029 C.3     1  UNL1        0.0224
     26 C           4.8516   -2.3007   24.1703 C.3     1  UNL1        0.0047
@<TRIPOS>BOND
     1    24    25    1
     2    25    26    1
     3    25    18    1
     4    18    19   ar
     5    19    20   ar
     6    20    21   ar
     7    21    15    1
     8    15    16    2
     9    15    17    2
    10    15     1    1
    11     1     2    1
    12     2     3   ar
    13     3     4   ar
    14     4     5   ar
    15     8     5    1
    16     8     9    1
    17     9    10    1
    18    10    11    1
    19    12    11    1
    20    12    13    1
    21     5     6   ar
    22     6     7   ar
    23    21    22   ar
    24    22    23   ar
    25    23    18   ar
    26     7     2   ar
    27    12     8    1
    28    13     8    1
    29    10    14    1
@<TRIPOS>MOLECULE
*****
 26 29 0 0 0
SMALL
GASTEIGER

@<TRIPOS>ATOM
      1 C           8.0003   -3.8829   20.7287 C.3     1  UNL1        0.1822
      2 C           6.8008   -3.0732   20.3347 C.ar    1  UNL1        0.0017
      3 C           6.9645   -1.6380   19.9303 C.ar    1  UNL1       -0.0029
      4 C           5.7648   -0.8283   19.5362 C.ar    1  UNL1       -0.0045
      5 C           4.4015   -1.4537   19.5465 C.ar    1  UNL1       -0.0215
      6 C           4.2378   -2.8889   19.9509 C.ar    1  UNL1       -0.0045
      7 C           5.4374   -3.6986   20.3449 C.ar    1  UNL1       -0.0029
      8 C           3.2019   -0.6440   19.1524 C.3     1  UNL1        0.0347
      9 C           2.2734   -1.2326   20.1730 C.3     1  UNL1        0.0726
     10 N           0.9321   -0.5813   20.0095 N.3     1  UNL1       -0.2972
     11 C           1.0316    0.4097   18.8879 C.3     1  UNL1        0.0689
     12 C           2.4344    0.3709   18.3583 C.3     1  UNL1        0.0211
     13 C           3.8796    0.1138   18.0495 C.3     1  UNL1        0.0072
     14 H           0.6721   -0.1029   20.8720 H       1  UNL1        0.1233
     15 S           8.0170   -4.6088   22.0413 S.O2    1  UNL1        0.0129
     16 O           8.1501   -5.9155   21.3169 O.2     1  UNL1       -0.1683
     17 O           7.8838   -3.3021   22.7657 O.2     1  UNL1       -0.1683
     18 C           8.0669   -6.7866   25.9789 C.ar    1  UNL1       -0.0224
     19 C           7.5340   -5.3866   25.9028 C.ar    1  UNL1       -0.0030
     20 C           7.5173   -4.6606   24.5903 C.ar    1  UNL1        0.0180
     21 C           8.0336   -5.3347   23.3538 C.ar    1  UNL1        0.1060
     22 C           8.5666   -6.7348   23.4298 C.ar    1  UNL1        0.0180
     23 C           8.5832   -7.4607   24.7424 C.ar    1  UNL1       -0.0030
     24 C           8.1363   -9.0113   27.3189 C.3     1  UNL1        0.0047
     25 C           8.0836   -7.5125   27.2914 C.3     1  UNL1        0.0224
     26 C           8.0475   -6.7397   28.5764 C.3     1  UNL1        0.0047
@<TRIPOS>BOND
     1    24    25    1
     2    25    26    1
     3    25    18    1
     4    18    19   ar
     5    19    20   ar
     6    20    21   ar
     7    21    15    1
     8    15    16    2
     9    15    17    2
    10    15     1    1
    11     1     2    1
    12     2     3   ar
    13     3     4   ar
    14     4     5   ar
    15     8     5    1
    16     8     9    1
    17     9    10    1
    18    10    11    1
    19    12    11    1
    20    12    13    1
    21     5     6   ar
    22     6     7   ar
    23    21    22   ar
    24    22    23   ar
    25    23    18   ar
    26     7     2   ar
    27    12     8    1
    28    13     8    1
    29    10    14    1
@<TRIPOS>MOLECULE
*****
 26 29 0 0 0
SMALL
GASTEIGER

@<TRIPOS>ATOM
      1 C          -0.1552    2.7570   19.6564 C.3     1  UNL1        0.1822
      2 C          -0.7919    2.9990   20.9928 C.ar    1  UNL1        0.0017
      3 C           0.0264    2.8861   22.2449 C.ar    1  UNL1       -0.0029
      4 C          -0.6104    3.1281   23.5814 C.ar    1  UNL1       -0.0045
      5 C          -2.0653    3.4831   23.6657 C.ar    1  UNL1       -0.0215
      6 C          -2.8835    3.5961   22.4136 C.ar    1  UNL1       -0.0045
      7 C          -2.2469    3.3541   21.0772 C.ar    1  UNL1       -0.0029
      8 C          -2.7020    3.7252   25.0022 C.3     1  UNL1        0.0347
      9 C          -4.1185    3.5884   24.5279 C.3     1  UNL1        0.0726
     10 N          -5.0235    3.7912   25.7069 N.3     1  UNL1       -0.2972
     11 C          -4.1664    4.0534   26.9096 C.3     1  UNL1        0.0689
     12 C          -2.7316    4.0126   26.4740 C.3     1  UNL1        0.0211
     13 C          -1.4187    3.9126   25.7556 C.3     1  UNL1        0.0072
     14 H          -5.5867    2.9545   25.8590 H       1  UNL1        0.1233
     15 S           0.7872    1.6046   19.4723 S.O2    1  UNL1        0.0129
     16 O           1.8078    2.5333   18.8840 O.2     1  UNL1       -0.1683
     17 O          -0.2334    0.6760   20.0605 O.2     1  UNL1       -0.1683
     18 C           3.6145   -1.8524   18.9199 C.ar    1  UNL1       -0.0224
     19 C           3.5575   -0.7589   17.8947 C.ar    1  UNL1       -0.0030
     20 C           2.6151    0.3934   18.0788 C.ar    1  UNL1        0.0180
     21 C           1.7296    0.4523   19.2881 C.ar    1  UNL1        0.1060
     22 C           1.7866   -0.6412   20.3133 C.ar    1  UNL1        0.0180
     23 C           2.7290   -1.7935   20.1292 C.ar    1  UNL1       -0.0030
     24 C           5.9659   -2.7567   18.2849 C.3     1  UNL1        0.0047
     25 C           4.5569   -3.0048   18.7357 C.3     1  UNL1        0.0224
     26 C           4.0904   -4.4052   19.0024 C.3     1  UNL1        0.0047
@<TRIPOS>BOND
     1    24    25    1
     2    25    26    1
     3    25    18    1
     4    18    19   ar
     5    19    20   ar
     6    20    21   ar
     7    21    15    1
     8    15    16    2
     9    15    17    2
    10    15     1    1
    11     1     2    1
    12     2     3   ar
    13     3     4   ar
    14     4     5   ar
    15     8     5    1
    16     8     9    1
    17     9    10    1
    18    10    11    1
    19    12    11    1
    20    12    13    1
    21     5     6   ar
    22     6     7   ar
    23    21    22   ar
    24    22    23   ar
    25    23    18   ar
    26     7     2   ar
    27    12     8    1
    28    13     8    1
    29    10    14    1
@<TRIPOS>MOLECULE
*****
 26 29 0 0 0
SMALL
GASTEIGER

@<TRIPOS>ATOM
      1 C           0.8511    3.2004   18.6858 C.3     1  UNL1        0.1822
      2 C          -0.5132    3.3958   19.2778 C.ar    1  UNL1        0.0017
      3 C          -0.7660    3.0401   20.7129 C.ar    1  UNL1       -0.0029
      4 C          -2.1304    3.2355   21.3049 C.ar    1  UNL1       -0.0045
      5 C          -3.2419    3.7866   20.4618 C.ar    1  UNL1       -0.0215
      6 C          -2.9891    4.1423   19.0267 C.ar    1  UNL1       -0.0045
      7 C          -1.6248    3.9469   18.4347 C.ar    1  UNL1       -0.0029
      8 C          -4.6063    3.9820   21.0537 C.3     1  UNL1        0.0347
      9 C          -4.3237    3.2629   22.3395 C.3     1  UNL1        0.0726
     10 N          -5.5694    3.2994   23.1744 N.3     1  UNL1       -0.2972
     11 C          -6.6217    4.0411   22.4046 C.3     1  UNL1        0.0689
     12 C          -6.0264    4.4629   21.0940 C.3     1  UNL1        0.0211
     13 C          -5.1739    4.7419   19.8918 C.3     1  UNL1        0.0072
     14 H          -5.3820    3.7791   24.0548 H       1  UNL1        0.1233
     15 S           1.5475    1.8793   18.8263 S.O2    1  UNL1        0.0129
     16 O           2.6350    2.5373   19.6227 O.2     1  UNL1       -0.1683
     17 O           0.4599    1.2213   18.0300 O.2     1  UNL1       -0.1683
     18 C           3.6366   -2.0840   19.2478 C.ar    1  UNL1       -0.0224
     19 C           3.8481   -1.2518   18.0180 C.ar    1  UNL1       -0.0030
     20 C           3.1517    0.0694   17.8775 C.ar    1  UNL1        0.0180
     21 C           2.2438    0.5582   18.9668 C.ar    1  UNL1        0.1060
     22 C           2.0323   -0.2740   20.1967 C.ar    1  UNL1        0.0180
     23 C           2.7287   -1.5951   20.3372 C.ar    1  UNL1       -0.0030
     24 C           5.7987   -3.4505   19.7035 C.3     1  UNL1        0.0047
     25 C           4.3330   -3.4051   19.3883 C.3     1  UNL1        0.0224
     26 C           3.5636   -4.6808   19.2136 C.3     1  UNL1        0.0047
@<TRIPOS>BOND
     1    24    25    1
     2    25    26    1
     3    25    18    1
     4    18    19   ar
     5    19    20   ar
     6    20    21   ar
     7    21    15    1
     8    15    16    2
     9    15    17    2
    10    15     1    1
    11     1     2    1
    12     2     3   ar
    13     3     4   ar
    14     4     5   ar
    15     8     5    1
    16     8     9    1
    17     9    10    1
    18    10    11    1
    19    12    11    1
    20    12    13    1
    21     5     6   ar
    22     6     7   ar
    23    21    22   ar
    24    22    23   ar
    25    23    18   ar
    26     7     2   ar
    27    12     8    1
    28    13     8    1
    29    10    14    1
@<TRIPOS>MOLECULE
*****
 26 29 0 0 0
SMALL
GASTEIGER

@<TRIPOS>ATOM
      1 C           0.5227    3.4788   19.1428 C.3     1  UNL1        0.1822
      2 C          -0.8009    3.5745   19.8419 C.ar    1  UNL1        0.0017
      3 C          -0.8920    3.3074   21.3151 C.ar    1  UNL1       -0.0029
      4 C          -2.2157    3.4031   22.0142 C.ar    1  UNL1       -0.0045
      5 C          -3.4482    3.7660   21.2402 C.ar    1  UNL1       -0.0215
      6 C          -3.3571    4.0331   19.7670 C.ar    1  UNL1       -0.0045
      7 C          -2.0335    3.9374   19.0678 C.ar    1  UNL1       -0.0029
      8 C          -4.7719    3.8617   21.9393 C.3     1  UNL1        0.0347
      9 C          -5.5555    4.2881   20.7334 C.3     1  UNL1        0.0726
     10 N          -6.9852    4.4688   21.1500 N.3     1  UNL1       -0.2972
     11 C          -7.0851    4.1540   22.6131 C.3     1  UNL1        0.0689
     12 C          -5.7172    3.7788   23.1009 C.3     1  UNL1        0.0211
     13 C          -4.2649    3.4552   23.2912 C.3     1  UNL1        0.0072
     14 H          -7.5832    3.8364   20.6182 H       1  UNL1        0.1233
     15 S           1.2624    2.1743   19.1126 S.O2    1  UNL1        0.0129
     16 O           2.2339    2.7017   20.1266 O.2     1  UNL1       -0.1683
     17 O           0.2910    1.6468   18.0987 O.2     1  UNL1       -0.1683
     18 C           3.4816   -1.7395   19.0222 C.ar    1  UNL1       -0.0224
     19 C           2.4454   -1.4890   20.0775 C.ar    1  UNL1       -0.0030
     20 C           1.7057   -0.1844   20.1076 C.ar    1  UNL1        0.0180
     21 C           2.0021    0.8697   19.0825 C.ar    1  UNL1        0.1060
     22 C           3.0383    0.6192   18.0273 C.ar    1  UNL1        0.0180
     23 C           3.7780   -0.6853   17.9971 C.ar    1  UNL1       -0.0030
     24 C           5.6830   -3.0698   18.6565 C.3     1  UNL1        0.0047
     25 C           4.2213   -3.0441   18.9921 C.3     1  UNL1        0.0224
     26 C           3.4993   -4.3228   19.2976 C.3     1  UNL1        0.0047
@<TRIPOS>BOND
     1    24    25    1
     2    25    26    1
     3    25    18    1
     4    18    19   ar
     5    19    20   ar
     6    20    21   ar
     7    21    15    1
     8    15    16    2
     9    15    17    2
    10    15     1    1
    11     1     2    1
    12     2     3   ar
    13     3     4   ar
    14     4     5   ar
    15     8     5    1
    16     8     9    1
    17     9    10    1
    18    10    11    1
    19    12    11    1
    20    12    13    1
    21     5     6   ar
    22     6     7   ar
    23    21    22   ar
    24    22    23   ar
    25    23    18   ar
    26     7     2   ar
    27    12     8    1
    28    13     8    1
    29    10    14    1
