@<TRIPOS>MOLECULE
*****
 14 15 0 0 0
SMALL
GASTEIGER

@<TRIPOS>ATOM
      1 C         -10.2796  -16.9714   21.5736 C.ar    1  UNL1        0.0751
      2 C         -11.0313  -17.6313   22.6915 C.ar    1  UNL1        0.0215
      3 C         -10.2867  -17.3715   23.9675 C.ar    1  UNL1        0.0084
      4 C          -9.0749  -16.5510   23.6382 C.ar    1  UNL1        0.0322
      5 S          -9.0705  -16.3037   22.1587 S.2     1  UNL1       -0.0725
      6 C          -8.0478  -16.0633   24.6167 C.ar    1  UNL1        0.0252
      7 C          -8.3210  -16.1366   26.0897 C.ar    1  UNL1        0.0036
      8 C          -7.2939  -15.6490   27.0681 C.ar    1  UNL1        0.0207
      9 C          -5.9936  -15.0881   26.5734 C.ar    1  UNL1        0.0989
     10 N          -5.7204  -15.0149   25.1004 N.ar    1  UNL1       -0.2423
     11 C          -6.7475  -15.5025   24.1220 C.ar    1  UNL1        0.0993
     12 C         -11.6247  -15.9479   19.6005 C.3     1  UNL1        0.1089
     13 N         -10.6688  -16.9780   20.1250 N.pl3   1  UNL1       -0.3263
     14 H         -10.2968  -17.6585   19.5185 H       1  UNL1        0.1473
@<TRIPOS>BOND
     1    12    13    1
     2    13     1    1
     3     1     2   ar
     4     2     3   ar
     5     3     4   ar
     6     4     6    1
     7     6     7   ar
     8     7     8   ar
     9     8     9   ar
    10     9    10   ar
    11    10    11   ar
    12     4     5   ar
    13     5     1   ar
    14    11     6   ar
    15    13    14    1
@<TRIPOS>MOLECULE
*****
 14 15 0 0 0
SMALL
GASTEIGER

@<TRIPOS>ATOM
      1 C          -6.6904  -15.8795   23.7930 C.ar    1  UNL1        0.0751
      2 C          -7.4257  -15.4678   25.0340 C.ar    1  UNL1        0.0215
      3 C          -8.8823  -15.7615   24.8286 C.ar    1  UNL1        0.0084
      4 C          -9.0472  -16.3546   23.4607 C.ar    1  UNL1        0.0322
      5 S          -7.6925  -16.4276   22.8207 S.2     1  UNL1       -0.0725
      6 C         -10.3398  -16.7972   22.8416 C.ar    1  UNL1        0.0252
      7 C         -11.2881  -17.6595   23.6207 C.ar    1  UNL1        0.0036
      8 C         -12.5807  -18.1020   23.0016 C.ar    1  UNL1        0.0207
      9 C         -12.9250  -17.6822   21.6033 C.ar    1  UNL1        0.0989
     10 N         -11.9767  -16.8199   20.8241 N.ar    1  UNL1       -0.2423
     11 C         -10.6841  -16.3774   21.4433 C.ar    1  UNL1        0.0993
     12 C          -4.3497  -16.9900   23.5982 C.3     1  UNL1        0.1089
     13 N          -5.2124  -15.7634   23.5645 N.pl3   1  UNL1       -0.3263
     14 H          -4.8086  -14.8822   23.3925 H       1  UNL1        0.1473
@<TRIPOS>BOND
     1    12    13    1
     2    13     1    1
     3     1     2   ar
     4     2     3   ar
     5     3     4   ar
     6     4     6    1
     7     6     7   ar
     8     7     8   ar
     9     8     9   ar
    10     9    10   ar
    11    10    11   ar
    12     4     5   ar
    13     5     1   ar
    14    11     6   ar
    15    13    14    1
@<TRIPOS>MOLECULE
*****
 14 15 0 0 0
SMALL
GASTEIGER

@<TRIPOS>ATOM
      1 C          -9.1751  -17.5570   22.9719 C.ar    1  UNL1        0.0751
      2 C          -9.5215  -19.0071   23.1370 C.ar    1  UNL1        0.0215
      3 C          -8.3305  -19.8184   22.7208 C.ar    1  UNL1        0.0084
      4 C          -7.2480  -18.8697   22.2984 C.ar    1  UNL1        0.0322
      5 S          -7.7701  -17.4721   22.4537 S.2     1  UNL1       -0.0725
      6 C          -5.8832  -19.2516   21.8071 C.ar    1  UNL1        0.0252
      7 C          -5.7373  -20.0680   20.5573 C.ar    1  UNL1        0.0036
      8 C          -4.3725  -20.4499   20.0660 C.ar    1  UNL1        0.0207
      9 C          -3.1535  -20.0154   20.8246 C.ar    1  UNL1        0.0989
     10 N          -3.2994  -19.1990   22.0744 N.ar    1  UNL1       -0.2423
     11 C          -4.6643  -18.8171   22.5657 C.ar    1  UNL1        0.0993
     12 C         -11.4057  -16.2813   22.5882 C.3     1  UNL1        0.1089
     13 N         -10.0757  -16.3956   23.2724 N.pl3   1  UNL1       -0.3263
     14 H          -9.7939  -15.7085   23.9186 H       1  UNL1        0.1473
@<TRIPOS>BOND
     1    12    13    1
     2    13     1    1
     3     1     2   ar
     4     2     3   ar
     5     3     4   ar
     6     4     6    1
     7     6     7   ar
     8     7     8   ar
     9     8     9   ar
    10     9    10   ar
    11    10    11   ar
    12     4     5   ar
    13     5     1   ar
    14    11     6   ar
    15    13    14    1
@<TRIPOS>MOLECULE
*****
 14 15 0 0 0
SMALL
GASTEIGER

@<TRIPOS>ATOM
      1 C          -8.2707  -16.0409   25.9165 C.ar    1  UNL1        0.0751
      2 C          -8.9203  -17.3260   26.3367 C.ar    1  UNL1        0.0215
      3 C          -9.7460  -17.8251   25.1881 C.ar    1  UNL1        0.0084
      4 C          -9.6067  -16.8485   24.0582 C.ar    1  UNL1        0.0322
      5 S          -8.6949  -15.7458   24.5083 S.2     1  UNL1       -0.0725
      6 C         -10.2638  -16.9558   22.7140 C.ar    1  UNL1        0.0252
      7 C         -11.6368  -16.3899   22.5031 C.ar    1  UNL1        0.0036
      8 C         -12.2939  -16.4972   21.1590 C.ar    1  UNL1        0.0207
      9 C         -11.5780  -17.1705   20.0258 C.ar    1  UNL1        0.0989
     10 N         -10.2050  -17.7364   20.2367 N.ar    1  UNL1       -0.2423
     11 C          -9.5479  -17.6291   21.5808 C.ar    1  UNL1        0.0993
     12 C          -5.8824  -15.1897   26.4835 C.3     1  UNL1        0.1089
     13 N          -7.3572  -15.1987   26.7569 N.pl3   1  UNL1       -0.3263
     14 H          -7.7256  -14.6519   27.4880 H       1  UNL1        0.1473
@<TRIPOS>BOND
     1    12    13    1
     2    13     1    1
     3     1     2   ar
     4     2     3   ar
     5     3     4   ar
     6     4     6    1
     7     6     7   ar
     8     7     8   ar
     9     8     9   ar
    10     9    10   ar
    11    10    11   ar
    12     4     5   ar
    13     5     1   ar
    14    11     6   ar
    15    13    14    1
@<TRIPOS>MOLECULE
*****
 14 15 0 0 0
SMALL
GASTEIGER

@<TRIPOS>ATOM
      1 C         -11.3958  -17.0462   21.7547 C.ar    1  UNL1        0.0751
      2 C         -11.7243  -17.9536   22.9031 C.ar    1  UNL1        0.0215
      3 C         -10.6631  -17.7802   23.9490 C.ar    1  UNL1        0.0084
      4 C          -9.6788  -16.7657   23.4471 C.ar    1  UNL1        0.0322
      5 S         -10.1316  -16.3121   22.0909 S.2     1  UNL1       -0.0725
      6 C          -8.4563  -16.2886   24.1737 C.ar    1  UNL1        0.0252
      7 C          -7.1691  -16.0941   23.4287 C.ar    1  UNL1        0.0036
      8 C          -5.9467  -15.6170   24.1553 C.ar    1  UNL1        0.0207
      9 C          -6.0115  -15.3345   25.6271 C.ar    1  UNL1        0.0989
     10 N          -7.2988  -15.5291   26.3721 N.ar    1  UNL1       -0.2423
     11 C          -8.5212  -16.0062   25.6455 C.ar    1  UNL1        0.0993
     12 C         -11.8048  -15.8632   19.4780 C.3     1  UNL1        0.1089
     13 N         -12.1917  -16.8988   20.4919 N.pl3   1  UNL1       -0.3263
     14 H         -12.9680  -17.4818   20.3284 H       1  UNL1        0.1473
@<TRIPOS>BOND
     1    12    13    1
     2    13     1    1
     3     1     2   ar
     4     2     3   ar
     5     3     4   ar
     6     4     6    1
     7     6     7   ar
     8     7     8   ar
     9     8     9   ar
    10     9    10   ar
    11    10    11   ar
    12     4     5   ar
    13     5     1   ar
    14    11     6   ar
    15    13    14    1
@<TRIPOS>MOLECULE
*****
 14 15 0 0 0
SMALL
GASTEIGER

@<TRIPOS>ATOM
      1 C          -9.6163  -18.5711   21.2768 C.ar    1  UNL1        0.0751
      2 C          -9.5010  -19.2133   19.9260 C.ar    1  UNL1        0.0215
      3 C          -8.0630  -19.5808   19.7089 C.ar    1  UNL1        0.0084
      4 C          -7.2897  -19.1658   20.9253 C.ar    1  UNL1        0.0322
      5 S          -8.2497  -18.5418   21.8943 S.2     1  UNL1       -0.0725
      6 C          -5.8151  -19.3436   21.1357 C.ar    1  UNL1        0.0252
      7 C          -5.0002  -20.1020   20.1305 C.ar    1  UNL1        0.0036
      8 C          -3.5257  -20.2798   20.3410 C.ar    1  UNL1        0.0207
      9 C          -2.8662  -19.6992   21.5567 C.ar    1  UNL1        0.0989
     10 N          -3.6812  -18.9407   22.5619 N.ar    1  UNL1       -0.2423
     11 C          -5.1557  -18.7629   22.3514 C.ar    1  UNL1        0.0993
     12 C         -12.1090  -17.8703   21.0638 C.3     1  UNL1        0.1089
     13 N         -10.8770  -18.0498   21.9004 N.pl3   1  UNL1       -0.3263
     14 H         -10.8958  -17.8255   22.8588 H       1  UNL1        0.1473
@<TRIPOS>BOND
     1    12    13    1
     2    13     1    1
     3     1     2   ar
     4     2     3   ar
     5     3     4   ar
     6     4     6    1
     7     6     7   ar
     8     7     8   ar
     9     8     9   ar
    10     9    10   ar
    11    10    11   ar
    12     4     5   ar
    13     5     1   ar
    14    11     6   ar
    15    13    14    1
@<TRIPOS>MOLECULE
*****
 14 15 0 0 0
SMALL
GASTEIGER

@<TRIPOS>ATOM
      1 C         -11.1112  -18.1961   21.1397 C.ar    1  UNL1        0.0751
      2 C         -11.0098  -19.0169   19.8883 C.ar    1  UNL1        0.0215
      3 C          -9.5802  -19.4412   19.7268 C.ar    1  UNL1        0.0084
      4 C          -8.7980  -18.8827   20.8785 C.ar    1  UNL1        0.0322
      5 S          -9.7442  -18.1132   21.7517 S.2     1  UNL1       -0.0725
      6 C          -7.3277  -19.0622   21.1153 C.ar    1  UNL1        0.0252
      7 C          -6.5523  -20.0543   20.3001 C.ar    1  UNL1        0.0036
      8 C          -5.0821  -20.2337   20.5369 C.ar    1  UNL1        0.0207
      9 C          -4.3872  -19.4211   21.5890 C.ar    1  UNL1        0.0989
     10 N          -5.1625  -18.4291   22.4042 N.ar    1  UNL1       -0.2423
     11 C          -6.6328  -18.2496   22.1673 C.ar    1  UNL1        0.0993
     12 C         -12.2908  -16.2422   22.3809 C.3     1  UNL1        0.1089
     13 N         -12.3603  -17.5685   21.6837 N.pl3   1  UNL1       -0.3263
     14 H         -13.2256  -18.0271   21.5832 H       1  UNL1        0.1473
@<TRIPOS>BOND
     1    12    13    1
     2    13     1    1
     3     1     2   ar
     4     2     3   ar
     5     3     4   ar
     6     4     6    1
     7     6     7   ar
     8     7     8   ar
     9     8     9   ar
    10     9    10   ar
    11    10    11   ar
    12     4     5   ar
    13     5     1   ar
    14    11     6   ar
    15    13    14    1
@<TRIPOS>MOLECULE
*****
 14 15 0 0 0
SMALL
GASTEIGER

@<TRIPOS>ATOM
      1 C         -11.2305  -18.2007   21.5186 C.ar    1  UNL1        0.0751
      2 C         -11.2139  -19.5264   22.2203 C.ar    1  UNL1        0.0215
      3 C          -9.7970  -19.8266   22.6105 C.ar    1  UNL1        0.0084
      4 C          -8.9379  -18.6865   22.1498 C.ar    1  UNL1        0.0322
      5 S          -9.8238  -17.6817   21.4750 S.2     1  UNL1       -0.0725
      6 C          -7.4534  -18.5715   22.3321 C.ar    1  UNL1        0.0252
      7 C          -6.5671  -19.7417   22.0238 C.ar    1  UNL1        0.0036
      8 C          -5.0827  -19.6266   22.2060 C.ar    1  UNL1        0.0207
      9 C          -4.4846  -18.3414   22.6965 C.ar    1  UNL1        0.0989
     10 N          -5.3709  -17.1713   23.0048 N.ar    1  UNL1       -0.2423
     11 C          -6.8553  -17.2863   22.8226 C.ar    1  UNL1        0.0993
     12 C         -12.2923  -16.2238   20.2091 C.3     1  UNL1        0.1089
     13 N         -12.4412  -17.5146   20.9587 N.pl3   1  UNL1       -0.3263
     14 H         -13.3335  -17.9114   21.0831 H       1  UNL1        0.1473
@<TRIPOS>BOND
     1    12    13    1
     2    13     1    1
     3     1     2   ar
     4     2     3   ar
     5     3     4   ar
     6     4     6    1
     7     6     7   ar
     8     7     8   ar
     9     8     9   ar
    10     9    10   ar
    11    10    11   ar
    12     4     5   ar
    13     5     1   ar
    14    11     6   ar
    15    13    14    1
@<TRIPOS>MOLECULE
*****
 14 15 0 0 0
SMALL
GASTEIGER

@<TRIPOS>ATOM
      1 C         -11.7758  -18.4302   23.4232 C.ar    1  UNL1        0.0751
      2 C         -11.2015  -19.1894   24.5824 C.ar    1  UNL1        0.0215
      3 C          -9.7933  -19.5712   24.2345 C.ar    1  UNL1        0.0084
      4 C          -9.4972  -19.0480   22.8602 C.ar    1  UNL1        0.0322
      5 S         -10.7225  -18.3428   22.3588 S.2     1  UNL1       -0.0725
      6 C          -8.2030  -19.2028   22.1177 C.ar    1  UNL1        0.0252
      7 C          -7.2903  -20.3507   22.4328 C.ar    1  UNL1        0.0036
      8 C          -5.9962  -20.5054   21.6903 C.ar    1  UNL1        0.0207
      9 C          -5.6149  -19.5124   20.6327 C.ar    1  UNL1        0.0989
     10 N          -6.5276  -18.3645   20.3177 N.ar    1  UNL1       -0.2423
     11 C          -7.8217  -18.2098   21.0602 C.ar    1  UNL1        0.0993
     12 C         -14.1478  -18.1278   24.4390 C.3     1  UNL1        0.1089
     13 N         -13.1603  -17.8587   23.3425 N.pl3   1  UNL1       -0.3263
     14 H         -13.4209  -17.3071   22.5698 H       1  UNL1        0.1473
@<TRIPOS>BOND
     1    12    13    1
     2    13     1    1
     3     1     2   ar
     4     2     3   ar
     5     3     4   ar
     6     4     6    1
     7     6     7   ar
     8     7     8   ar
     9     8     9   ar
    10     9    10   ar
    11    10    11   ar
    12     4     5   ar
    13     5     1   ar
    14    11     6   ar
    15    13    14    1
