@<TRIPOS>MOLECULE
*****
 44 49 0 0 0
SMALL
GASTEIGER

@<TRIPOS>ATOM
      1 N           2.8951    0.9508   31.4744 N.am    1  UNL1       -0.2187
      2 C           2.3304    0.9327   30.0848 C.2     1  UNL1        0.3221
      3 O           2.7216   -0.0108   28.9863 O.2     1  UNL1       -0.2512
      4 N           1.3058    2.0239   29.9866 N.am    1  UNL1       -0.1907
      5 C           1.2372    2.7163   31.3154 C.2     1  UNL1        0.2529
      6 O           0.3434    3.8695   31.6637 O.2     1  UNL1       -0.2724
      7 C           2.2195    2.0531   32.2350 C.3     1  UNL1        0.1392
      8 C           3.2372    1.2950   33.0346 C.3     1  UNL1        0.0449
      9 C           3.4980    1.6685   34.4637 C.3     1  UNL1        0.0746
     10 N           2.7411    2.8003   35.0932 N.3     1  UNL1       -0.2676
     11 C           1.7234    3.5584   34.2936 C.3     1  UNL1        0.0746
     12 C           1.4626    3.1849   32.8645 C.3     1  UNL1        0.0449
     13 C           5.4001    0.3278   31.7686 C.ar    1  UNL1        0.2582
     14 N           6.4552   -0.5945   32.3036 N.ar    1  UNL1       -0.2061
     15 C           6.0602   -1.8161   33.0794 C.ar    1  UNL1        0.1228
     16 C           4.6101   -2.1153   33.3202 C.ar    1  UNL1        0.1212
     17 N           3.5552   -1.1930   32.7852 N.ar    1  UNL1       -0.2227
     18 C           3.9501    0.0285   32.0094 C.ar    1  UNL1        0.1930
     19 C           6.0331    1.4546   29.5149 C.3     1  UNL1        0.2543
     20 O           5.7951    1.5493   30.9928 O.3     1  UNL1       -0.4542
     21 C           0.4926    2.3630   28.7728 C.ar    1  UNL1        0.0622
     22 C           0.4651    3.7716   28.2579 C.ar    1  UNL1        0.0154
     23 C          -0.3482    4.1108   27.0440 C.ar    1  UNL1        0.0013
     24 C          -1.1340    3.0413   26.3449 C.ar    1  UNL1       -0.0002
     25 C          -1.1066    1.6327   26.8597 C.ar    1  UNL1        0.0013
     26 C          -0.2933    1.2936   28.0736 C.ar    1  UNL1        0.0154
     27 C          -1.9473    3.3805   25.1310 C.ar    1  UNL1       -0.0040
     28 C          -1.3280    3.3011   23.7671 C.ar    1  UNL1       -0.0003
     29 C          -2.1412    3.6402   22.5532 C.ar    1  UNL1        0.0011
     30 C          -3.5738    4.0588   22.7033 C.ar    1  UNL1        0.0137
     31 C          -4.1931    4.1382   24.0671 C.ar    1  UNL1       -0.0031
     32 C          -3.3799    3.7991   25.2810 C.ar    1  UNL1       -0.0218
     33 C          -3.9992    3.8785   26.6448 C.3     1  UNL1        0.0310
     34 C          -4.3871    4.3979   21.4894 C.2     1  UNL1        0.0729
     35 O          -4.7233    3.3313   20.4898 O.co2   1  UNL1       -0.5446
     36 O          -4.8642    5.8039   21.2750 O.co2   1  UNL1       -0.5446
     37 C           3.0020    3.1738   36.5224 C.3     1  UNL1        0.1183
     38 C           2.2475    2.4925   37.6253 C.ar    1  UNL1        0.0712
     39 N           0.9578    3.0748   38.1229 N.ar    1  UNL1       -0.2471
     40 C           0.2034    2.3934   39.2259 C.ar    1  UNL1        0.0985
     41 C           0.7386    1.1298   39.8313 C.ar    1  UNL1        0.0203
     42 C           2.0283    0.5474   39.3338 C.ar    1  UNL1       -0.0015
     43 C           2.7828    1.2287   38.2308 C.ar    1  UNL1       -0.0069
     44 C           4.0725    0.6464   37.7333 C.3     1  UNL1        0.0323
@<TRIPOS>UNITY_ATOM_ATTR
35 1
charge -1
@<TRIPOS>BOND
     1    19    20    1
     2    20    13    1
     3    13    14   ar
     4    14    15   ar
     5    15    16   ar
     6    16    17   ar
     7    17    18   ar
     8    18     1    1
     9     1     2   am
    10     2     3    2
    11     2     4   am
    12     4    21    1
    13    21    22   ar
    14    22    23   ar
    15    23    24   ar
    16    24    27    1
    17    27    28   ar
    18    28    29   ar
    19    29    30   ar
    20    30    34    1
    21    34    35   ar
    22    34    36   ar
    23    30    31   ar
    24    31    32   ar
    25    32    33    1
    26    24    25   ar
    27    25    26   ar
    28     4     5   am
    29     5     6    2
    30     5     7    1
    31     7     8    1
    32     8     9    1
    33     9    10    1
    34    10    37    1
    35    37    38    1
    36    38    39   ar
    37    39    40   ar
    38    40    41   ar
    39    41    42   ar
    40    42    43   ar
    41    43    44    1
    42    10    11    1
    43    11    12    1
    44    18    13   ar
    45     7     1    1
    46    43    38   ar
    47    26    21   ar
    48    12     7    1
    49    32    27   ar
@<TRIPOS>MOLECULE
*****
 44 49 0 0 0
SMALL
GASTEIGER

@<TRIPOS>ATOM
      1 N           3.1284    0.3205   31.4782 N.am    1  UNL1       -0.2187
      2 C           2.4472    0.4325   30.1464 C.2     1  UNL1        0.3221
      3 O           2.7418   -0.3985   28.9328 O.2     1  UNL1       -0.2512
      4 N           1.4197    1.5213   30.2413 N.am    1  UNL1       -0.1907
      5 C           1.4659    2.0822   31.6317 C.2     1  UNL1        0.2529
      6 O           0.6070    3.1906   32.1642 O.2     1  UNL1       -0.2724
      7 C           2.5219    1.3401   32.3962 C.3     1  UNL1        0.1392
      8 C           3.6028    0.5153   33.0295 C.3     1  UNL1        0.0449
      9 C           3.9852    0.7514   34.4606 C.3     1  UNL1        0.0746
     10 N           3.2866    1.8123   35.2583 N.3     1  UNL1       -0.2676
     11 C           2.2057    2.6372   34.6250 C.3     1  UNL1        0.0746
     12 C           1.8233    2.4011   33.1939 C.3     1  UNL1        0.0449
     13 C           5.6427   -0.3332   31.4548 C.ar    1  UNL1        0.2582
     14 N           6.7380   -1.2957   31.8068 N.ar    1  UNL1       -0.2061
     15 C           6.4142   -2.5670   32.5341 C.ar    1  UNL1        0.1228
     16 C           4.9950   -2.8758   32.9094 C.ar    1  UNL1        0.1212
     17 N           3.8999   -1.9133   32.5574 N.ar    1  UNL1       -0.2227
     18 C           4.2236   -0.6420   31.8301 C.ar    1  UNL1        0.1930
     19 C           6.0746    0.9395   29.2314 C.3     1  UNL1        0.2543
     20 O           5.9665    0.9381   30.7275 O.3     1  UNL1       -0.4542
     21 C           0.5066    1.9702   29.1394 C.ar    1  UNL1        0.0622
     22 C          -0.4629    1.0028   28.5278 C.ar    1  UNL1        0.0154
     23 C          -1.3762    1.4518   27.4257 C.ar    1  UNL1        0.0013
     24 C          -1.3199    2.8682   26.9353 C.ar    1  UNL1       -0.0002
     25 C          -0.3504    3.8357   27.5469 C.ar    1  UNL1        0.0013
     26 C           0.5628    3.3867   28.6489 C.ar    1  UNL1        0.0154
     27 C          -2.2332    3.3172   25.8333 C.ar    1  UNL1       -0.0040
     28 C          -3.6261    3.7732   26.1525 C.ar    1  UNL1       -0.0003
     29 C          -4.5393    4.2222   25.0505 C.ar    1  UNL1        0.0011
     30 C          -4.0596    4.2152   23.6293 C.ar    1  UNL1        0.0137
     31 C          -2.6667    3.7591   23.3101 C.ar    1  UNL1       -0.0031
     32 C          -1.7535    3.3102   24.4120 C.ar    1  UNL1       -0.0218
     33 C          -0.3606    2.8541   24.0928 C.3     1  UNL1        0.0310
     34 C          -4.9728    4.6641   22.5273 C.2     1  UNL1        0.0729
     35 O          -4.4772    5.6242   21.4868 O.co2   1  UNL1       -0.5446
     36 O          -6.3818    4.1530   22.4658 O.co2   1  UNL1       -0.5446
     37 C           3.6690    2.0484   36.6895 C.3     1  UNL1        0.1183
     38 C           2.6595    1.8415   37.7794 C.ar    1  UNL1        0.0712
     39 N           2.5461    0.5060   38.4530 N.ar    1  UNL1       -0.2471
     40 C           1.5365    0.2992   39.5431 C.ar    1  UNL1        0.0985
     41 C           0.6404    1.4277   39.9594 C.ar    1  UNL1        0.0203
     42 C           0.7538    2.7631   39.2858 C.ar    1  UNL1       -0.0015
     43 C           1.7633    2.9700   38.1958 C.ar    1  UNL1       -0.0069
     44 C           1.8767    4.3055   37.5222 C.3     1  UNL1        0.0323
@<TRIPOS>UNITY_ATOM_ATTR
35 1
charge -1
@<TRIPOS>BOND
     1    19    20    1
     2    20    13    1
     3    13    14   ar
     4    14    15   ar
     5    15    16   ar
     6    16    17   ar
     7    17    18   ar
     8    18     1    1
     9     1     2   am
    10     2     3    2
    11     2     4   am
    12     4    21    1
    13    21    22   ar
    14    22    23   ar
    15    23    24   ar
    16    24    27    1
    17    27    28   ar
    18    28    29   ar
    19    29    30   ar
    20    30    34    1
    21    34    35   ar
    22    34    36   ar
    23    30    31   ar
    24    31    32   ar
    25    32    33    1
    26    24    25   ar
    27    25    26   ar
    28     4     5   am
    29     5     6    2
    30     5     7    1
    31     7     8    1
    32     8     9    1
    33     9    10    1
    34    10    37    1
    35    37    38    1
    36    38    39   ar
    37    39    40   ar
    38    40    41   ar
    39    41    42   ar
    40    42    43   ar
    41    43    44    1
    42    10    11    1
    43    11    12    1
    44    18    13   ar
    45     7     1    1
    46    43    38   ar
    47    26    21   ar
    48    12     7    1
    49    32    27   ar
@<TRIPOS>MOLECULE
*****
 44 49 0 0 0
SMALL
GASTEIGER

@<TRIPOS>ATOM
      1 N           3.4664   -0.9434   21.9694 N.am    1  UNL1       -0.2187
      2 C           2.2329   -0.0952   22.0663 C.2     1  UNL1        0.3221
      3 O           1.3434    0.3009   20.9253 O.2     1  UNL1       -0.2512
      4 N           2.0452    0.2872   23.5046 N.am    1  UNL1       -0.1907
      5 C           3.1627   -0.3245   24.2965 C.2     1  UNL1        0.2529
      6 O           3.3661   -0.1980   25.7772 O.2     1  UNL1       -0.2724
      7 C           4.0410   -1.0851   23.3477 C.3     1  UNL1        0.1392
      8 C           4.8215   -1.8000   22.2849 C.3     1  UNL1        0.0449
      9 C           6.0574   -2.5675   22.6502 C.3     1  UNL1        0.0746
     10 N           6.5128   -2.6200   24.0785 N.3     1  UNL1       -0.2676
     11 C           5.7323   -1.9051   25.1413 C.3     1  UNL1        0.0746
     12 C           4.4964   -1.1376   24.7759 C.3     1  UNL1        0.0449
     13 C           4.8748   -0.7125   19.7984 C.ar    1  UNL1        0.2582
     14 N           5.4352   -1.3134   18.5435 N.ar    1  UNL1       -0.2061
     15 C           5.1477   -2.7460   18.2046 C.ar    1  UNL1        0.1228
     16 C           4.2996   -3.5778   19.1207 C.ar    1  UNL1        0.1212
     17 N           3.7392   -2.9769   20.3755 N.ar    1  UNL1       -0.2227
     18 C           4.0268   -1.5443   20.7144 C.ar    1  UNL1        0.1930
     19 C           4.4212    1.8199   19.4366 C.3     1  UNL1        0.2543
     20 O           5.1624    0.7201   20.1374 O.3     1  UNL1       -0.4542
     21 C           0.9351    1.1329   24.0543 C.ar    1  UNL1        0.0622
     22 C           0.3830    0.8505   25.4201 C.ar    1  UNL1        0.0154
     23 C          -0.7272    1.6962   25.9699 C.ar    1  UNL1        0.0013
     24 C          -1.2853    2.8243   25.1539 C.ar    1  UNL1       -0.0002
     25 C          -0.7332    3.1068   23.7880 C.ar    1  UNL1        0.0013
     26 C           0.3770    2.2610   23.2383 C.ar    1  UNL1        0.0154
     27 C          -2.3955    3.6700   25.7037 C.ar    1  UNL1       -0.0040
     28 C          -3.8098    3.4277   25.2667 C.ar    1  UNL1       -0.0003
     29 C          -4.9200    4.2734   25.8165 C.ar    1  UNL1        0.0011
     30 C          -4.6158    5.3614   26.8032 C.ar    1  UNL1        0.0137
     31 C          -3.2015    5.6038   27.2402 C.ar    1  UNL1       -0.0031
     32 C          -2.0913    4.7581   26.6905 C.ar    1  UNL1       -0.0218
     33 C          -0.6770    5.0005   27.1274 C.3     1  UNL1        0.0310
     34 C          -5.7260    6.2072   27.3530 C.2     1  UNL1        0.0729
     35 O          -7.0104    6.3467   26.5910 O.co2   1  UNL1       -0.5446
     36 O          -5.5517    6.9134   28.6649 O.co2   1  UNL1       -0.5446
     37 C           7.7488   -3.3875   24.4438 C.3     1  UNL1        0.1183
     38 C           7.6403   -4.8153   24.8904 C.ar    1  UNL1        0.0712
     39 N           6.9923   -5.1436   26.2027 N.ar    1  UNL1       -0.2471
     40 C           6.8839   -6.5716   26.6493 C.ar    1  UNL1        0.0985
     41 C           7.4235   -7.6711   25.7834 C.ar    1  UNL1        0.0203
     42 C           8.0715   -7.3429   24.4711 C.ar    1  UNL1       -0.0015
     43 C           8.1799   -5.9150   24.0245 C.ar    1  UNL1       -0.0069
     44 C           8.8280   -5.5867   22.7122 C.3     1  UNL1        0.0323
@<TRIPOS>UNITY_ATOM_ATTR
35 1
charge -1
@<TRIPOS>BOND
     1    19    20    1
     2    20    13    1
     3    13    14   ar
     4    14    15   ar
     5    15    16   ar
     6    16    17   ar
     7    17    18   ar
     8    18     1    1
     9     1     2   am
    10     2     3    2
    11     2     4   am
    12     4    21    1
    13    21    22   ar
    14    22    23   ar
    15    23    24   ar
    16    24    27    1
    17    27    28   ar
    18    28    29   ar
    19    29    30   ar
    20    30    34    1
    21    34    35   ar
    22    34    36   ar
    23    30    31   ar
    24    31    32   ar
    25    32    33    1
    26    24    25   ar
    27    25    26   ar
    28     4     5   am
    29     5     6    2
    30     5     7    1
    31     7     8    1
    32     8     9    1
    33     9    10    1
    34    10    37    1
    35    37    38    1
    36    38    39   ar
    37    39    40   ar
    38    40    41   ar
    39    41    42   ar
    40    42    43   ar
    41    43    44    1
    42    10    11    1
    43    11    12    1
    44    18    13   ar
    45     7     1    1
    46    43    38   ar
    47    26    21   ar
    48    12     7    1
    49    32    27   ar
@<TRIPOS>MOLECULE
*****
 44 49 0 0 0
SMALL
GASTEIGER

@<TRIPOS>ATOM
      1 N           3.6130    2.7083   31.2028 N.am    1  UNL1       -0.2187
      2 C           2.9515    2.7004   29.8564 C.2     1  UNL1        0.3221
      3 O           3.6113    2.3651   28.5518 O.2     1  UNL1       -0.2512
      4 N           1.5142    3.0868   30.0440 N.am    1  UNL1       -0.1907
      5 C           1.2875    3.3334   31.5061 C.2     1  UNL1        0.2529
      6 O          -0.0087    3.7421   32.1407 O.2     1  UNL1       -0.2724
      7 C           2.5846    3.0995   32.2223 C.3     1  UNL1        0.1392
      8 C           3.9435    2.8318   32.7981 C.3     1  UNL1        0.0449
      9 C           4.1721    2.9656   34.2745 C.3     1  UNL1        0.0746
     10 N           3.0417    3.3671   35.1751 N.3     1  UNL1       -0.2676
     11 C           1.6828    3.6348   34.5993 C.3     1  UNL1        0.0746
     12 C           1.4542    3.5010   33.1229 C.3     1  UNL1        0.0449
     13 C           5.4713    0.9562   31.6787 C.ar    1  UNL1        0.2582
     14 N           6.9088    0.6301   31.9567 N.ar    1  UNL1       -0.2061
     15 C           7.9255    1.7301   32.0365 C.ar    1  UNL1        0.1228
     16 C           7.5047    3.1562   31.8384 C.ar    1  UNL1        0.1212
     17 N           6.0672    3.4822   31.5605 N.ar    1  UNL1       -0.2227
     18 C           5.0505    2.3822   31.4807 C.ar    1  UNL1        0.1930
     19 C           4.1960   -1.0141   32.7929 C.3     1  UNL1        0.2543
     20 O           4.4546   -0.1438   31.5989 O.3     1  UNL1       -0.4542
     21 C           0.4846    3.2056   28.9598 C.ar    1  UNL1        0.0622
     22 C          -0.1499    1.9718   28.3895 C.ar    1  UNL1        0.0154
     23 C          -1.1796    2.0907   27.3053 C.ar    1  UNL1        0.0013
     24 C          -1.5749    3.4433   26.7913 C.ar    1  UNL1       -0.0002
     25 C          -0.9404    4.6771   27.3615 C.ar    1  UNL1        0.0013
     26 C           0.0893    4.5582   28.4458 C.ar    1  UNL1        0.0154
     27 C          -2.6046    3.5621   25.7070 C.ar    1  UNL1       -0.0040
     28 C          -4.0514    3.7357   26.0625 C.ar    1  UNL1       -0.0003
     29 C          -5.0812    3.8546   24.9783 C.ar    1  UNL1        0.0011
     30 C          -4.6639    3.7998   23.5385 C.ar    1  UNL1        0.0137
     31 C          -3.2170    3.6262   23.1830 C.ar    1  UNL1       -0.0031
     32 C          -2.1874    3.5074   24.2672 C.ar    1  UNL1       -0.0218
     33 C          -0.7405    3.3338   23.9116 C.3     1  UNL1        0.0310
     34 C          -5.6936    3.9186   22.4543 C.2     1  UNL1        0.0729
     35 O          -7.1119    4.2623   22.8012 O.co2   1  UNL1       -0.5446
     36 O          -5.3050    3.6938   21.0229 O.co2   1  UNL1       -0.5446
     37 C           3.2703    3.5009   36.6516 C.3     1  UNL1        0.1183
     38 C           2.4511    2.6927   37.6136 C.ar    1  UNL1        0.0712
     39 N           1.1629    3.2439   38.1492 N.ar    1  UNL1       -0.2471
     40 C           0.3437    2.4357   39.1113 C.ar    1  UNL1        0.0985
     41 C           0.8126    1.0762   39.5378 C.ar    1  UNL1        0.0203
     42 C           2.1007    0.5249   39.0022 C.ar    1  UNL1       -0.0015
     43 C           2.9199    1.3331   38.0402 C.ar    1  UNL1       -0.0069
     44 C           4.2081    0.7819   37.5046 C.3     1  UNL1        0.0323
@<TRIPOS>UNITY_ATOM_ATTR
35 1
charge -1
@<TRIPOS>BOND
     1    19    20    1
     2    20    13    1
     3    13    14   ar
     4    14    15   ar
     5    15    16   ar
     6    16    17   ar
     7    17    18   ar
     8    18     1    1
     9     1     2   am
    10     2     3    2
    11     2     4   am
    12     4    21    1
    13    21    22   ar
    14    22    23   ar
    15    23    24   ar
    16    24    27    1
    17    27    28   ar
    18    28    29   ar
    19    29    30   ar
    20    30    34    1
    21    34    35   ar
    22    34    36   ar
    23    30    31   ar
    24    31    32   ar
    25    32    33    1
    26    24    25   ar
    27    25    26   ar
    28     4     5   am
    29     5     6    2
    30     5     7    1
    31     7     8    1
    32     8     9    1
    33     9    10    1
    34    10    37    1
    35    37    38    1
    36    38    39   ar
    37    39    40   ar
    38    40    41   ar
    39    41    42   ar
    40    42    43   ar
    41    43    44    1
    42    10    11    1
    43    11    12    1
    44    18    13   ar
    45     7     1    1
    46    43    38   ar
    47    26    21   ar
    48    12     7    1
    49    32    27   ar
@<TRIPOS>MOLECULE
*****
 44 49 0 0 0
SMALL
GASTEIGER

@<TRIPOS>ATOM
      1 N           6.0365   -2.3607   26.2145 N.am    1  UNL1       -0.2187
      2 C           6.0976   -2.0611   27.6831 C.2     1  UNL1        0.3221
      3 O           7.1330   -2.5662   28.6437 O.2     1  UNL1       -0.2512
      4 N           4.9414   -1.1676   28.0223 N.am    1  UNL1       -0.1907
      5 C           4.1658   -0.9151   26.7634 C.2     1  UNL1        0.2529
      6 O           2.9303   -0.0731   26.6429 O.2     1  UNL1       -0.2724
      7 C           4.8426   -1.6525   25.6461 C.3     1  UNL1        0.1392
      8 C           5.6240   -2.4386   24.6355 C.3     1  UNL1        0.0449
      9 C           5.1842   -2.4634   23.2016 C.3     1  UNL1        0.0746
     10 N           3.9630   -1.7020   22.7785 N.3     1  UNL1       -0.2676
     11 C           3.1816   -0.9159   23.7891 C.3     1  UNL1        0.0746
     12 C           3.6215   -0.8911   25.2229 C.3     1  UNL1        0.0449
     13 C           8.2876   -2.6347   24.9466 C.ar    1  UNL1        0.2582
     14 N           9.2512   -3.4920   24.1809 N.ar    1  UNL1       -0.2061
     15 C           8.9275   -4.9328   23.9175 C.ar    1  UNL1        0.1228
     16 C           7.6401   -5.5162   24.4198 C.ar    1  UNL1        0.1212
     17 N           6.6765   -4.6589   25.1854 N.ar    1  UNL1       -0.2227
     18 C           7.0002   -3.2181   25.4488 C.ar    1  UNL1        0.1930
     19 C           9.4480   -0.8181   26.3968 C.3     1  UNL1        0.2543
     20 O           8.6113   -1.1939   25.2100 O.3     1  UNL1       -0.4542
     21 C           4.6176   -0.6224   29.3816 C.ar    1  UNL1        0.0622
     22 C           5.6247    0.2142   30.1135 C.ar    1  UNL1        0.0154
     23 C           5.3009    0.7594   31.4729 C.ar    1  UNL1        0.0013
     24 C           3.9701    0.4680   32.1004 C.ar    1  UNL1       -0.0002
     25 C           2.9629   -0.3688   31.3685 C.ar    1  UNL1        0.0013
     26 C           3.2867   -0.9139   30.0091 C.ar    1  UNL1        0.0154
     27 C           3.6463    1.0132   33.4598 C.ar    1  UNL1       -0.0040
     28 C           2.7349    2.1967   33.5956 C.ar    1  UNL1       -0.0003
     29 C           2.4111    2.7419   34.9550 C.ar    1  UNL1        0.0011
     30 C           2.9988    2.1034   36.1785 C.ar    1  UNL1        0.0137
     31 C           3.9102    0.9199   36.0427 C.ar    1  UNL1       -0.0031
     32 C           4.2339    0.3747   34.6834 C.ar    1  UNL1       -0.0218
     33 C           5.1453   -0.8089   34.5476 C.3     1  UNL1        0.0310
     34 C           2.6750    2.6486   37.5379 C.2     1  UNL1        0.0729
     35 O           3.7375    2.7071   38.5952 O.co2   1  UNL1       -0.5446
     36 O           1.2887    3.1354   37.8401 O.co2   1  UNL1       -0.5446
     37 C           3.5232   -1.7268   21.3446 C.3     1  UNL1        0.1183
     38 C           4.5452   -1.7521   20.2469 C.ar    1  UNL1        0.0712
     39 N           5.5610   -0.6534   20.1425 N.ar    1  UNL1       -0.2471
     40 C           6.5830   -0.6787   19.0448 C.ar    1  UNL1        0.0985
     41 C           6.5892   -1.8027   18.0516 C.ar    1  UNL1        0.0203
     42 C           5.5734   -2.9014   18.1560 C.ar    1  UNL1       -0.0015
     43 C           4.5514   -2.8761   19.2536 C.ar    1  UNL1       -0.0069
     44 C           3.5355   -3.9748   19.3580 C.3     1  UNL1        0.0323
@<TRIPOS>UNITY_ATOM_ATTR
35 1
charge -1
@<TRIPOS>BOND
     1    19    20    1
     2    20    13    1
     3    13    14   ar
     4    14    15   ar
     5    15    16   ar
     6    16    17   ar
     7    17    18   ar
     8    18     1    1
     9     1     2   am
    10     2     3    2
    11     2     4   am
    12     4    21    1
    13    21    22   ar
    14    22    23   ar
    15    23    24   ar
    16    24    27    1
    17    27    28   ar
    18    28    29   ar
    19    29    30   ar
    20    30    34    1
    21    34    35   ar
    22    34    36   ar
    23    30    31   ar
    24    31    32   ar
    25    32    33    1
    26    24    25   ar
    27    25    26   ar
    28     4     5   am
    29     5     6    2
    30     5     7    1
    31     7     8    1
    32     8     9    1
    33     9    10    1
    34    10    37    1
    35    37    38    1
    36    38    39   ar
    37    39    40   ar
    38    40    41   ar
    39    41    42   ar
    40    42    43   ar
    41    43    44    1
    42    10    11    1
    43    11    12    1
    44    18    13   ar
    45     7     1    1
    46    43    38   ar
    47    26    21   ar
    48    12     7    1
    49    32    27   ar
@<TRIPOS>MOLECULE
*****
 44 49 0 0 0
SMALL
GASTEIGER

@<TRIPOS>ATOM
      1 N           3.3400   -0.0318   30.7205 N.am    1  UNL1       -0.2187
      2 C           2.0912    0.7566   30.4576 C.2     1  UNL1        0.3221
      3 O           1.2131    1.3896   31.4961 O.2     1  UNL1       -0.2512
      4 N           1.8746    0.8009   28.9739 N.am    1  UNL1       -0.1907
      5 C           2.9896    0.0399   28.3199 C.2     1  UNL1        0.2529
      6 O           3.1677   -0.1697   26.8453 O.2     1  UNL1       -0.2724
      7 C           3.8952   -0.4747   29.3993 C.3     1  UNL1        0.1392
      8 C           4.7041   -0.9204   30.5813 C.3     1  UNL1        0.0449
      9 C           5.9467   -1.7349   30.3756 C.3     1  UNL1        0.0746
     10 N           6.3805   -2.1038   28.9879 N.3     1  UNL1       -0.2676
     11 C           5.5717   -1.6582   27.8059 C.3     1  UNL1        0.0746
     12 C           4.3290   -0.8437   28.0116 C.3     1  UNL1        0.0449
     13 C           4.7535    0.7138   32.7689 C.ar    1  UNL1        0.2582
     14 N           5.3434    0.4200   34.1163 N.ar    1  UNL1       -0.2061
     15 C           5.1098   -0.9132   34.7628 C.ar    1  UNL1        0.1228
     16 C           4.2862   -1.9527   34.0618 C.ar    1  UNL1        0.1212
     17 N           3.6963   -1.6588   32.7144 N.ar    1  UNL1       -0.2227
     18 C           3.9299   -0.3256   32.0679 C.ar    1  UNL1        0.1930
     19 C           4.1193    3.2168   32.4811 C.3     1  UNL1        0.2543
     20 O           4.9871    2.0471   32.1224 O.3     1  UNL1       -0.4542
     21 C           0.7421    1.4859   28.2683 C.ar    1  UNL1        0.0622
     22 C           0.9201    2.8785   27.7402 C.ar    1  UNL1        0.0154
     23 C          -0.2125    3.5635   27.0345 C.ar    1  UNL1        0.0013
     24 C          -1.5232    2.8559   26.8570 C.ar    1  UNL1       -0.0002
     25 C          -1.7012    1.4632   27.3851 C.ar    1  UNL1        0.0013
     26 C          -0.5685    0.7783   28.0907 C.ar    1  UNL1        0.0154
     27 C          -2.6558    3.5409   26.1513 C.ar    1  UNL1       -0.0040
     28 C          -3.8301    4.0484   26.9345 C.ar    1  UNL1       -0.0003
     29 C          -4.9627    4.7334   26.2288 C.ar    1  UNL1        0.0011
     30 C          -4.9209    4.9109   24.7399 C.ar    1  UNL1        0.0137
     31 C          -3.7466    4.4034   23.9567 C.ar    1  UNL1       -0.0031
     32 C          -2.6140    3.7184   24.6623 C.ar    1  UNL1       -0.0218
     33 C          -1.4397    3.2109   23.8791 C.3     1  UNL1        0.0310
     34 C          -6.0535    5.5959   24.0342 C.2     1  UNL1        0.0729
     35 O          -5.8305    6.9217   23.3690 O.co2   1  UNL1       -0.5446
     36 O          -7.4092    4.9550   23.9938 O.co2   1  UNL1       -0.5446
     37 C           7.6232   -2.9184   28.7822 C.3     1  UNL1        0.1183
     38 C           7.6318   -4.0330   27.7784 C.ar    1  UNL1        0.0712
     39 N           7.9965   -3.7536   26.3505 N.ar    1  UNL1       -0.2471
     40 C           8.0051   -4.8682   25.3467 C.ar    1  UNL1        0.0985
     41 C           7.6490   -6.2622   25.7709 C.ar    1  UNL1        0.0203
     42 C           7.2843   -6.5416   27.1988 C.ar    1  UNL1       -0.0015
     43 C           7.2757   -5.4271   28.2025 C.ar    1  UNL1       -0.0069
     44 C           6.9110   -5.7065   29.6305 C.3     1  UNL1        0.0323
@<TRIPOS>UNITY_ATOM_ATTR
35 1
charge -1
@<TRIPOS>BOND
     1    19    20    1
     2    20    13    1
     3    13    14   ar
     4    14    15   ar
     5    15    16   ar
     6    16    17   ar
     7    17    18   ar
     8    18     1    1
     9     1     2   am
    10     2     3    2
    11     2     4   am
    12     4    21    1
    13    21    22   ar
    14    22    23   ar
    15    23    24   ar
    16    24    27    1
    17    27    28   ar
    18    28    29   ar
    19    29    30   ar
    20    30    34    1
    21    34    35   ar
    22    34    36   ar
    23    30    31   ar
    24    31    32   ar
    25    32    33    1
    26    24    25   ar
    27    25    26   ar
    28     4     5   am
    29     5     6    2
    30     5     7    1
    31     7     8    1
    32     8     9    1
    33     9    10    1
    34    10    37    1
    35    37    38    1
    36    38    39   ar
    37    39    40   ar
    38    40    41   ar
    39    41    42   ar
    40    42    43   ar
    41    43    44    1
    42    10    11    1
    43    11    12    1
    44    18    13   ar
    45     7     1    1
    46    43    38   ar
    47    26    21   ar
    48    12     7    1
    49    32    27   ar
@<TRIPOS>MOLECULE
*****
 44 49 0 0 0
SMALL
GASTEIGER

@<TRIPOS>ATOM
      1 N           2.1829    1.0109   24.0364 N.am    1  UNL1       -0.2187
      2 C           1.7998    1.8192   25.2406 C.2     1  UNL1        0.3221
      3 O           0.9673    3.0670   25.2364 O.2     1  UNL1       -0.2512
      4 N           2.3954    1.1606   26.4495 N.am    1  UNL1       -0.1907
      5 C           3.1465   -0.0547   25.9926 C.2     1  UNL1        0.2529
      6 O           3.8972   -1.0097   26.8725 O.2     1  UNL1       -0.2724
      7 C           3.0152   -0.1472   24.5011 C.3     1  UNL1        0.1392
      8 C           2.7976   -0.1088   23.0176 C.3     1  UNL1        0.0449
      9 C           3.3939   -1.1727   22.1443 C.3     1  UNL1        0.0746
     10 N           4.2078   -2.2749   22.7547 N.3     1  UNL1       -0.2676
     11 C           4.4254   -2.3133   24.2383 C.3     1  UNL1        0.0746
     12 C           3.8291   -1.2495   25.1115 C.3     1  UNL1        0.0449
     13 C           2.6042    2.2876   21.8133 C.ar    1  UNL1        0.2582
     14 N           2.2220    2.5852   20.3936 N.ar    1  UNL1       -0.2061
     15 C           1.0364    1.9036   19.7775 C.ar    1  UNL1        0.1228
     16 C           0.2328    0.9244   20.5810 C.ar    1  UNL1        0.1212
     17 N           0.6150    0.6269   22.0006 N.ar    1  UNL1       -0.2227
     18 C           1.8007    1.3085   22.6167 C.ar    1  UNL1        0.1930
     19 C           5.1781    2.5714   22.0237 C.3     1  UNL1        0.2543
     20 O           3.7899    2.9692   22.4294 O.3     1  UNL1       -0.4542
     21 C           2.2631    1.6342   27.8666 C.ar    1  UNL1        0.0622
     22 C           3.3495    2.4633   28.4848 C.ar    1  UNL1        0.0154
     23 C           3.2171    2.9369   29.9020 C.ar    1  UNL1        0.0013
     24 C           1.9984    2.5814   30.7008 C.ar    1  UNL1       -0.0002
     25 C           0.9119    1.7522   30.0826 C.ar    1  UNL1        0.0013
     26 C           1.0443    1.2787   28.6655 C.ar    1  UNL1        0.0154
     27 C           1.8660    3.0550   32.1180 C.ar    1  UNL1       -0.0040
     28 C           2.4534    2.2468   33.2368 C.ar    1  UNL1       -0.0003
     29 C           2.3211    2.7204   34.6539 C.ar    1  UNL1        0.0011
     30 C           1.6013    4.0022   34.9521 C.ar    1  UNL1        0.0137
     31 C           1.0139    4.8104   33.8333 C.ar    1  UNL1       -0.0031
     32 C           1.1462    4.3368   32.4162 C.ar    1  UNL1       -0.0218
     33 C           0.5588    5.1450   31.2974 C.3     1  UNL1        0.0310
     34 C           1.4690    4.4758   36.3692 C.2     1  UNL1        0.0729
     35 O           1.5203    5.9428   36.6776 O.co2   1  UNL1       -0.5446
     36 O           1.2852    3.4822   37.4780 O.co2   1  UNL1       -0.5446
     37 C           4.8041   -3.3388   21.8813 C.3     1  UNL1        0.1183
     38 C           5.4956   -2.9610   20.6050 C.ar    1  UNL1        0.0712
     39 N           6.8458   -2.3090   20.6481 N.ar    1  UNL1       -0.2471
     40 C           7.5373   -1.9312   19.3717 C.ar    1  UNL1        0.0985
     41 C           6.8786   -2.2054   18.0523 C.ar    1  UNL1        0.0203
     42 C           5.5284   -2.8573   18.0092 C.ar    1  UNL1       -0.0015
     43 C           4.8369   -3.2352   19.2855 C.ar    1  UNL1       -0.0069
     44 C           3.4867   -3.8871   19.2424 C.3     1  UNL1        0.0323
@<TRIPOS>UNITY_ATOM_ATTR
35 1
charge -1
@<TRIPOS>BOND
     1    19    20    1
     2    20    13    1
     3    13    14   ar
     4    14    15   ar
     5    15    16   ar
     6    16    17   ar
     7    17    18   ar
     8    18     1    1
     9     1     2   am
    10     2     3    2
    11     2     4   am
    12     4    21    1
    13    21    22   ar
    14    22    23   ar
    15    23    24   ar
    16    24    27    1
    17    27    28   ar
    18    28    29   ar
    19    29    30   ar
    20    30    34    1
    21    34    35   ar
    22    34    36   ar
    23    30    31   ar
    24    31    32   ar
    25    32    33    1
    26    24    25   ar
    27    25    26   ar
    28     4     5   am
    29     5     6    2
    30     5     7    1
    31     7     8    1
    32     8     9    1
    33     9    10    1
    34    10    37    1
    35    37    38    1
    36    38    39   ar
    37    39    40   ar
    38    40    41   ar
    39    41    42   ar
    40    42    43   ar
    41    43    44    1
    42    10    11    1
    43    11    12    1
    44    18    13   ar
    45     7     1    1
    46    43    38   ar
    47    26    21   ar
    48    12     7    1
    49    32    27   ar
@<TRIPOS>MOLECULE
*****
 44 49 0 0 0
SMALL
GASTEIGER

@<TRIPOS>ATOM
      1 N           6.2117   -2.1578   26.2660 N.am    1  UNL1       -0.2187
      2 C           6.2664   -1.8211   27.7268 C.2     1  UNL1        0.3221
      3 O           7.3515   -2.2185   28.6832 O.2     1  UNL1       -0.2512
      4 N           5.0454   -1.0173   28.0632 N.am    1  UNL1       -0.1907
      5 C           4.2362   -0.8571   26.8105 C.2     1  UNL1        0.2529
      6 O           2.9347   -0.1213   26.6896 O.2     1  UNL1       -0.2724
      7 C           4.9569   -1.5620   25.6997 C.3     1  UNL1        0.1392
      8 C           5.7872   -2.3045   24.6951 C.3     1  UNL1        0.0449
      9 C           5.3330   -2.3973   23.2685 C.3     1  UNL1        0.0746
     10 N           4.0485   -1.7476   22.8466 N.3     1  UNL1       -0.2676
     11 C           3.2183   -1.0050   23.8513 C.3     1  UNL1        0.0746
     12 C           3.6725   -0.9123   25.2778 C.3     1  UNL1        0.0449
     13 C           7.2589   -4.4462   25.6209 C.ar    1  UNL1        0.2582
     14 N           8.2797   -5.2394   24.8601 N.ar    1  UNL1       -0.2061
     15 C           9.2741   -4.5373   23.9836 C.ar    1  UNL1        0.1228
     16 C           9.2477   -3.0419   23.8680 C.ar    1  UNL1        0.1212
     17 N           8.2269   -2.2488   24.6288 N.ar    1  UNL1       -0.2227
     18 C           7.2325   -2.9509   25.5052 C.ar    1  UNL1        0.1930
     19 C           6.6529   -5.5707   27.8832 C.3     1  UNL1        0.2543
     20 O           6.2644   -5.1484   26.4973 O.3     1  UNL1       -0.4542
     21 C           4.6952   -0.4697   29.4150 C.ar    1  UNL1        0.0622
     22 C           3.4359   -0.9113   30.0999 C.ar    1  UNL1        0.0154
     23 C           3.0857   -0.3637   31.4517 C.ar    1  UNL1        0.0013
     24 C           3.9949    0.6254   32.1188 C.ar    1  UNL1       -0.0002
     25 C           5.2543    1.0670   31.4340 C.ar    1  UNL1        0.0013
     26 C           5.6044    0.5194   30.0821 C.ar    1  UNL1        0.0154
     27 C           3.6447    1.1730   33.4707 C.ar    1  UNL1       -0.0040
     28 C           2.6700    2.3067   33.5912 C.ar    1  UNL1       -0.0003
     29 C           2.3198    2.8543   34.9431 C.ar    1  UNL1        0.0011
     30 C           2.9444    2.2680   36.1744 C.ar    1  UNL1        0.0137
     31 C           3.9191    1.1343   36.0539 C.ar    1  UNL1       -0.0031
     32 C           4.2693    0.5867   34.7021 C.ar    1  UNL1       -0.0218
     33 C           5.2440   -0.5470   34.5816 C.3     1  UNL1        0.0310
     34 C           2.5942    2.8156   37.5263 C.2     1  UNL1        0.0729
     35 O           3.6407    2.8933   38.5981 O.co2   1  UNL1       -0.5446
     36 O           1.1974    3.2855   37.8063 O.co2   1  UNL1       -0.5446
     37 C           3.5943   -1.8404   21.4200 C.3     1  UNL1        0.1183
     38 C           4.6035   -1.8436   20.3103 C.ar    1  UNL1        0.0712
     39 N           5.5944   -0.7235   20.1944 N.ar    1  UNL1       -0.2471
     40 C           6.6036   -0.7267   19.0846 C.ar    1  UNL1        0.0985
     41 C           6.6219   -1.8501   18.0909 C.ar    1  UNL1        0.0203
     42 C           5.6311   -2.9702   18.2068 C.ar    1  UNL1       -0.0015
     43 C           4.6219   -2.9670   19.3165 C.ar    1  UNL1       -0.0069
     44 C           3.6310   -4.0871   19.4324 C.3     1  UNL1        0.0323
@<TRIPOS>UNITY_ATOM_ATTR
35 1
charge -1
@<TRIPOS>BOND
     1    19    20    1
     2    20    13    1
     3    13    14   ar
     4    14    15   ar
     5    15    16   ar
     6    16    17   ar
     7    17    18   ar
     8    18     1    1
     9     1     2   am
    10     2     3    2
    11     2     4   am
    12     4    21    1
    13    21    22   ar
    14    22    23   ar
    15    23    24   ar
    16    24    27    1
    17    27    28   ar
    18    28    29   ar
    19    29    30   ar
    20    30    34    1
    21    34    35   ar
    22    34    36   ar
    23    30    31   ar
    24    31    32   ar
    25    32    33    1
    26    24    25   ar
    27    25    26   ar
    28     4     5   am
    29     5     6    2
    30     5     7    1
    31     7     8    1
    32     8     9    1
    33     9    10    1
    34    10    37    1
    35    37    38    1
    36    38    39   ar
    37    39    40   ar
    38    40    41   ar
    39    41    42   ar
    40    42    43   ar
    41    43    44    1
    42    10    11    1
    43    11    12    1
    44    18    13   ar
    45     7     1    1
    46    43    38   ar
    47    26    21   ar
    48    12     7    1
    49    32    27   ar
@<TRIPOS>MOLECULE
*****
 44 49 0 0 0
SMALL
GASTEIGER

@<TRIPOS>ATOM
      1 N           1.5720    1.9480   24.2711 N.am    1  UNL1       -0.2187
      2 C           1.7006    2.1988   25.7445 C.2     1  UNL1        0.3221
      3 O           1.1542    3.3810   26.4886 O.2     1  UNL1       -0.2512
      4 N           2.4717    1.0597   26.3430 N.am    1  UNL1       -0.1907
      5 C           2.8196    0.1050   25.2396 C.2     1  UNL1        0.2529
      6 O           3.5884   -1.1741   25.3901 O.2     1  UNL1       -0.2724
      7 C           2.2636    0.6540   23.9591 C.3     1  UNL1        0.1392
      8 C           1.6535    1.3236   22.7635 C.3     1  UNL1        0.0449
      9 C           1.7688    0.6898   21.4088 C.3     1  UNL1        0.0746
     10 N           2.4942   -0.6134   21.2498 N.3     1  UNL1       -0.2676
     11 C           3.1042   -1.2830   22.4454 C.3     1  UNL1        0.0746
     12 C           2.9889   -0.6493   23.8000 C.3     1  UNL1        0.0449
     13 C           1.5993    4.0023   22.6808 C.ar    1  UNL1        0.2582
     14 N           0.9017    4.8897   21.6930 N.ar    1  UNL1       -0.2061
     15 C          -0.5208    4.6104   21.3078 C.ar    1  UNL1        0.1228
     16 C          -1.2458    3.4435   21.9104 C.ar    1  UNL1        0.1212
     17 N          -0.5481    2.5561   22.8981 N.ar    1  UNL1       -0.2227
     18 C           0.8744    2.8355   23.2833 C.ar    1  UNL1        0.1930
     19 C           3.3226    5.2355   24.1838 C.3     1  UNL1        0.2543
     20 O           3.0218    4.2816   23.0660 O.3     1  UNL1       -0.4542
     21 C           2.8315    0.9029   27.7906 C.ar    1  UNL1        0.0622
     22 C           4.0326    1.6095   28.3456 C.ar    1  UNL1        0.0154
     23 C           4.3925    1.4527   29.7934 C.ar    1  UNL1        0.0013
     24 C           3.5513    0.5893   30.6861 C.ar    1  UNL1       -0.0002
     25 C           2.3502   -0.1174   30.1310 C.ar    1  UNL1        0.0013
     26 C           1.9903    0.0395   28.6833 C.ar    1  UNL1        0.0154
     27 C           3.9112    0.4325   32.1338 C.ar    1  UNL1       -0.0040
     28 C           3.4124    1.4244   33.1424 C.ar    1  UNL1       -0.0003
     29 C           3.7723    1.2676   34.5901 C.ar    1  UNL1        0.0011
     30 C           4.6311    0.1188   35.0292 C.ar    1  UNL1        0.0137
     31 C           5.1299   -0.8732   34.0206 C.ar    1  UNL1       -0.0031
     32 C           4.7700   -0.7164   32.5730 C.ar    1  UNL1       -0.0218
     33 C           5.2689   -1.7083   31.5644 C.3     1  UNL1        0.0310
     34 C           4.9910   -0.0381   36.4769 C.2     1  UNL1        0.0729
     35 O           4.0311    0.4057   37.5407 O.co2   1  UNL1       -0.5446
     36 O           6.3108   -0.6387   36.8608 O.co2   1  UNL1       -0.5446
     37 C           2.6095   -1.2472   19.8951 C.3     1  UNL1        0.1183
     38 C           3.9619   -1.4919   19.2942 C.ar    1  UNL1        0.0712
     39 N           4.8947   -0.3422   19.0532 N.ar    1  UNL1       -0.2471
     40 C           6.2471   -0.5869   18.4522 C.ar    1  UNL1        0.0985
     41 C           6.6667   -1.9813   18.0924 C.ar    1  UNL1        0.0203
     42 C           5.7340   -3.1310   18.3335 C.ar    1  UNL1       -0.0015
     43 C           4.3816   -2.8863   18.9343 C.ar    1  UNL1       -0.0069
     44 C           3.4488   -4.0360   19.1754 C.3     1  UNL1        0.0323
@<TRIPOS>UNITY_ATOM_ATTR
35 1
charge -1
@<TRIPOS>BOND
     1    19    20    1
     2    20    13    1
     3    13    14   ar
     4    14    15   ar
     5    15    16   ar
     6    16    17   ar
     7    17    18   ar
     8    18     1    1
     9     1     2   am
    10     2     3    2
    11     2     4   am
    12     4    21    1
    13    21    22   ar
    14    22    23   ar
    15    23    24   ar
    16    24    27    1
    17    27    28   ar
    18    28    29   ar
    19    29    30   ar
    20    30    34    1
    21    34    35   ar
    22    34    36   ar
    23    30    31   ar
    24    31    32   ar
    25    32    33    1
    26    24    25   ar
    27    25    26   ar
    28     4     5   am
    29     5     6    2
    30     5     7    1
    31     7     8    1
    32     8     9    1
    33     9    10    1
    34    10    37    1
    35    37    38    1
    36    38    39   ar
    37    39    40   ar
    38    40    41   ar
    39    41    42   ar
    40    42    43   ar
    41    43    44    1
    42    10    11    1
    43    11    12    1
    44    18    13   ar
    45     7     1    1
    46    43    38   ar
    47    26    21   ar
    48    12     7    1
    49    32    27   ar
