@<TRIPOS>MOLECULE
*****
 21 23 0 0 0
SMALL
GASTEIGER

@<TRIPOS>ATOM
      1 C          -8.9957  -18.6793   21.6229 C.ar    1  UNL1        0.0428
      2 C          -9.6292  -19.3734   20.4537 C.ar    1  UNL1        0.0077
      3 C         -10.6945  -18.6803   19.6571 C.ar    1  UNL1        0.0006
      4 C         -11.1264  -17.2929   20.0297 C.ar    1  UNL1        0.0013
      5 C         -10.4929  -16.5988   21.1988 C.ar    1  UNL1        0.0150
      6 C          -9.4276  -17.2920   21.9954 C.ar    1  UNL1        0.0540
      7 N          -8.7941  -16.5978   23.1645 N.pl3   1  UNL1       -0.3043
      8 C          -9.2819  -16.8751   24.5557 C.3     1  UNL1        0.1079
      9 C          -8.6484  -16.1809   25.7248 C.3     1  UNL1        0.0903
     10 N          -7.5272  -15.2095   25.5028 N.3     1  UNL1       -0.2946
     11 C          -7.0395  -14.9322   24.1117 C.3     1  UNL1        0.0903
     12 C          -7.6730  -15.6264   22.9425 C.3     1  UNL1        0.1079
     13 H          -6.7272  -15.5573   26.0315 H       1  UNL1        0.1233
     14 S          -7.9303  -19.3725   22.4194 S.3     1  UNL1       -0.0857
     15 C          -2.2810  -19.4998   20.4024 C.3     1  UNL1        0.0310
     16 C          -3.6933  -19.4679   20.9067 C.ar    1  UNL1       -0.0218
     17 C          -4.0569  -18.5852   22.0635 C.ar    1  UNL1       -0.0037
     18 C          -5.4693  -18.5533   22.5678 C.ar    1  UNL1        0.0062
     19 C          -6.5180  -19.4043   21.9152 C.ar    1  UNL1        0.0295
     20 C          -6.1544  -20.2871   20.7583 C.ar    1  UNL1        0.0062
     21 C          -4.7420  -20.3189   20.2540 C.ar    1  UNL1       -0.0037
@<TRIPOS>BOND
     1    15    16    1
     2    16    17   ar
     3    17    18   ar
     4    18    19   ar
     5    19    14    1
     6    14     1    1
     7     1     2   ar
     8     2     3   ar
     9     3     4   ar
    10     4     5   ar
    11     5     6   ar
    12     6     7    1
    13     7     8    1
    14     8     9    1
    15     9    10    1
    16    10    11    1
    17    11    12    1
    18    19    20   ar
    19    20    21   ar
    20    21    16   ar
    21     6     1   ar
    22    12     7    1
    23    10    13    1
@<TRIPOS>MOLECULE
*****
 21 23 0 0 0
SMALL
GASTEIGER

@<TRIPOS>ATOM
      1 C          -9.2498  -19.3025   22.3811 C.ar    1  UNL1        0.0428
      2 C          -9.1085  -20.3710   23.4244 C.ar    1  UNL1        0.0077
      3 C          -9.9391  -20.3155   24.6722 C.ar    1  UNL1        0.0006
      4 C         -10.9110  -19.1915   24.8768 C.ar    1  UNL1        0.0013
      5 C         -11.0524  -18.1230   23.8336 C.ar    1  UNL1        0.0150
      6 C         -10.2217  -18.1784   22.5858 C.ar    1  UNL1        0.0540
      7 N         -10.3631  -17.1099   21.5426 N.pl3   1  UNL1       -0.3043
      8 C          -9.4550  -15.9162   21.5638 C.3     1  UNL1        0.1079
      9 C          -9.5963  -14.8477   20.5206 C.3     1  UNL1        0.0903
     10 N         -10.6458  -14.9728   19.4562 N.3     1  UNL1       -0.2946
     11 C         -11.5540  -16.1665   19.4350 C.3     1  UNL1        0.0903
     12 C         -11.4126  -17.2351   20.4783 C.3     1  UNL1        0.1079
     13 H         -10.1594  -14.9569   18.5598 H       1  UNL1        0.1233
     14 S          -8.4192  -19.3580   21.1334 S.3     1  UNL1       -0.0857
     15 C          -2.4392  -19.6570   21.5209 C.3     1  UNL1        0.0310
     16 C          -3.9342  -19.5822   21.4240 C.ar    1  UNL1       -0.0218
     17 C          -4.6606  -20.3955   20.3941 C.ar    1  UNL1       -0.0037
     18 C          -6.1556  -20.3208   20.2972 C.ar    1  UNL1        0.0062
     19 C          -6.9242  -19.4327   21.2302 C.ar    1  UNL1        0.0295
     20 C          -6.1978  -18.6194   22.2602 C.ar    1  UNL1        0.0062
     21 C          -4.7028  -18.6942   22.3570 C.ar    1  UNL1       -0.0037
@<TRIPOS>BOND
     1    15    16    1
     2    16    17   ar
     3    17    18   ar
     4    18    19   ar
     5    19    14    1
     6    14     1    1
     7     1     2   ar
     8     2     3   ar
     9     3     4   ar
    10     4     5   ar
    11     5     6   ar
    12     6     7    1
    13     7     8    1
    14     8     9    1
    15     9    10    1
    16    10    11    1
    17    11    12    1
    18    19    20   ar
    19    20    21   ar
    20    21    16   ar
    21     6     1   ar
    22    12     7    1
    23    10    13    1
@<TRIPOS>MOLECULE
*****
 21 23 0 0 0
SMALL
GASTEIGER

@<TRIPOS>ATOM
      1 C          -9.9853  -16.8212   21.8178 C.ar    1  UNL1        0.0428
      2 C         -11.2572  -16.0404   21.9688 C.ar    1  UNL1        0.0077
      3 C         -12.5803  -16.7128   21.7516 C.ar    1  UNL1        0.0006
      4 C         -12.6316  -18.1660   21.3833 C.ar    1  UNL1        0.0013
      5 C         -11.3598  -18.9468   21.2323 C.ar    1  UNL1        0.0150
      6 C         -10.0366  -18.2744   21.4495 C.ar    1  UNL1        0.0540
      7 N          -8.7648  -19.0552   21.2985 N.pl3   1  UNL1       -0.3043
      8 C          -8.0890  -19.6294   22.5083 C.3     1  UNL1        0.1079
      9 C          -6.8173  -20.4102   22.3573 C.3     1  UNL1        0.0903
     10 N          -6.2212  -20.6169   20.9964 N.3     1  UNL1       -0.2946
     11 C          -6.8970  -20.0428   19.7866 C.3     1  UNL1        0.0903
     12 C          -8.1688  -19.2619   19.9376 C.3     1  UNL1        0.1079
     13 H          -6.1627  -21.6247   20.8505 H       1  UNL1        0.1233
     14 S          -8.6622  -16.1489   22.0350 S.3     1  UNL1       -0.0857
     15 C          -6.5889  -15.3360   27.6065 C.3     1  UNL1        0.0310
     16 C          -7.1072  -15.5392   26.2136 C.ar    1  UNL1       -0.0218
     17 C          -6.2581  -15.1644   25.0353 C.ar    1  UNL1       -0.0037
     18 C          -6.7764  -15.3676   23.6424 C.ar    1  UNL1        0.0062
     19 C          -8.1438  -15.9456   23.4279 C.ar    1  UNL1        0.0295
     20 C          -8.9929  -16.3204   24.6062 C.ar    1  UNL1        0.0062
     21 C          -8.4746  -16.1172   25.9991 C.ar    1  UNL1       -0.0037
@<TRIPOS>BOND
     1    15    16    1
     2    16    17   ar
     3    17    18   ar
     4    18    19   ar
     5    19    14    1
     6    14     1    1
     7     1     2   ar
     8     2     3   ar
     9     3     4   ar
    10     4     5   ar
    11     5     6   ar
    12     6     7    1
    13     7     8    1
    14     8     9    1
    15     9    10    1
    16    10    11    1
    17    11    12    1
    18    19    20   ar
    19    20    21   ar
    20    21    16   ar
    21     6     1   ar
    22    12     7    1
    23    10    13    1
@<TRIPOS>MOLECULE
*****
 21 23 0 0 0
SMALL
GASTEIGER

@<TRIPOS>ATOM
      1 C          -7.3862  -16.0604   24.5275 C.ar    1  UNL1        0.0428
      2 C          -6.2514  -15.3864   25.2403 C.ar    1  UNL1        0.0077
      3 C          -6.2661  -15.2742   26.7360 C.ar    1  UNL1        0.0006
      4 C          -7.4155  -15.8362   27.5190 C.ar    1  UNL1        0.0013
      5 C          -8.5503  -16.5102   26.8063 C.ar    1  UNL1        0.0150
      6 C          -8.5356  -16.6224   25.3105 C.ar    1  UNL1        0.0540
      7 N          -9.6703  -17.2964   24.5978 N.pl3   1  UNL1       -0.3043
      8 C          -9.9612  -18.7456   24.8530 C.3     1  UNL1        0.1079
      9 C         -11.0959  -19.4197   24.1403 C.3     1  UNL1        0.0903
     10 N         -11.9399  -18.6445   23.1723 N.3     1  UNL1       -0.2946
     11 C         -11.6490  -17.1952   22.9171 C.3     1  UNL1        0.0903
     12 C         -10.5142  -16.5212   23.6299 C.3     1  UNL1        0.1079
     13 H         -12.9004  -18.6967   23.5116 H       1  UNL1        0.1233
     14 S          -7.3715  -16.1726   23.0318 S.3     1  UNL1       -0.0857
     15 C          -5.8557  -21.3607   20.4270 C.3     1  UNL1        0.0310
     16 C          -6.2346  -20.0637   21.0782 C.ar    1  UNL1       -0.0218
     17 C          -5.2617  -19.3656   21.9816 C.ar    1  UNL1       -0.0037
     18 C          -5.6407  -18.0686   22.6328 C.ar    1  UNL1        0.0062
     19 C          -6.9925  -17.4696   22.3806 C.ar    1  UNL1        0.0295
     20 C          -7.9654  -18.1677   21.4773 C.ar    1  UNL1        0.0062
     21 C          -7.5865  -19.4647   20.8261 C.ar    1  UNL1       -0.0037
@<TRIPOS>BOND
     1    15    16    1
     2    16    17   ar
     3    17    18   ar
     4    18    19   ar
     5    19    14    1
     6    14     1    1
     7     1     2   ar
     8     2     3   ar
     9     3     4   ar
    10     4     5   ar
    11     5     6   ar
    12     6     7    1
    13     7     8    1
    14     8     9    1
    15     9    10    1
    16    10    11    1
    17    11    12    1
    18    19    20   ar
    19    20    21   ar
    20    21    16   ar
    21     6     1   ar
    22    12     7    1
    23    10    13    1
@<TRIPOS>MOLECULE
*****
 21 23 0 0 0
SMALL
GASTEIGER

@<TRIPOS>ATOM
      1 C          -7.6861  -19.4803   21.0433 C.ar    1  UNL1        0.0428
      2 C          -7.7305  -20.1873   19.7211 C.ar    1  UNL1        0.0077
      3 C          -8.9234  -20.0290   18.8257 C.ar    1  UNL1        0.0006
      4 C         -10.0720  -19.1637   19.2524 C.ar    1  UNL1        0.0013
      5 C         -10.0276  -18.4568   20.5746 C.ar    1  UNL1        0.0150
      6 C          -8.8346  -18.6150   21.4701 C.ar    1  UNL1        0.0540
      7 N          -8.7903  -17.9081   22.7923 N.pl3   1  UNL1       -0.3043
      8 C          -8.0429  -16.6145   22.9264 C.3     1  UNL1        0.1079
      9 C          -7.9985  -15.9075   24.2485 C.3     1  UNL1        0.0903
     10 N          -8.7015  -16.4941   25.4367 N.3     1  UNL1       -0.2946
     11 C          -9.4489  -17.7877   25.3026 C.3     1  UNL1        0.0903
     12 C          -9.4933  -18.4947   23.9803 C.3     1  UNL1        0.1079
     13 H          -9.3746  -15.7968   25.7545 H       1  UNL1        0.1233
     14 S          -6.4931  -19.6386   21.9387 S.3     1  UNL1       -0.0857
     15 C          -1.1361  -17.5770   20.1917 C.3     1  UNL1        0.0310
     16 C          -2.4753  -18.0924   20.6285 C.ar    1  UNL1       -0.0218
     17 C          -2.9017  -17.9544   22.0599 C.ar    1  UNL1       -0.0037
     18 C          -4.2409  -18.4698   22.4967 C.ar    1  UNL1        0.0062
     19 C          -5.1539  -19.1232   21.5020 C.ar    1  UNL1        0.0295
     20 C          -4.7276  -19.2613   20.0705 C.ar    1  UNL1        0.0062
     21 C          -3.3883  -18.7459   19.6337 C.ar    1  UNL1       -0.0037
@<TRIPOS>BOND
     1    15    16    1
     2    16    17   ar
     3    17    18   ar
     4    18    19   ar
     5    19    14    1
     6    14     1    1
     7     1     2   ar
     8     2     3   ar
     9     3     4   ar
    10     4     5   ar
    11     5     6   ar
    12     6     7    1
    13     7     8    1
    14     8     9    1
    15     9    10    1
    16    10    11    1
    17    11    12    1
    18    19    20   ar
    19    20    21   ar
    20    21    16   ar
    21     6     1   ar
    22    12     7    1
    23    10    13    1
@<TRIPOS>MOLECULE
*****
 21 23 0 0 0
SMALL
GASTEIGER

@<TRIPOS>ATOM
      1 C          -7.2966  -16.8881   23.0578 C.ar    1  UNL1        0.0428
      2 C          -7.6493  -15.7628   23.9849 C.ar    1  UNL1        0.0077
      3 C          -6.6009  -15.1718   24.8800 C.ar    1  UNL1        0.0006
      4 C          -5.1996  -15.7061   24.8482 C.ar    1  UNL1        0.0013
      5 C          -4.8468  -16.8313   23.9212 C.ar    1  UNL1        0.0150
      6 C          -5.8953  -17.4224   23.0260 C.ar    1  UNL1        0.0540
      7 N          -5.5425  -18.5476   22.0990 N.pl3   1  UNL1       -0.3043
      8 C          -6.5151  -19.6673   21.8744 C.3     1  UNL1        0.1079
      9 C          -6.1623  -20.7925   20.9474 C.3     1  UNL1        0.0903
     10 N          -4.8369  -20.7981   20.2450 N.3     1  UNL1       -0.2946
     11 C          -3.8643  -19.6785   20.4696 C.3     1  UNL1        0.0903
     12 C          -4.2171  -18.5532   21.3967 C.3     1  UNL1        0.1079
     13 H          -5.0339  -20.8207   19.2445 H       1  UNL1        0.1233
     14 S          -8.3451  -17.4791   22.1626 S.3     1  UNL1       -0.0857
     15 C         -13.9811  -18.0769   24.1317 C.3     1  UNL1        0.0310
     16 C         -12.5721  -17.9275   23.6395 C.ar    1  UNL1       -0.0218
     17 C         -11.4891  -18.8096   24.1862 C.ar    1  UNL1       -0.0037
     18 C         -10.0801  -18.6601   23.6939 C.ar    1  UNL1        0.0062
     19 C          -9.7541  -17.6286   22.6549 C.ar    1  UNL1        0.0295
     20 C         -10.8371  -16.7464   22.1082 C.ar    1  UNL1        0.0062
     21 C         -12.2461  -16.8959   22.6005 C.ar    1  UNL1       -0.0037
@<TRIPOS>BOND
     1    15    16    1
     2    16    17   ar
     3    17    18   ar
     4    18    19   ar
     5    19    14    1
     6    14     1    1
     7     1     2   ar
     8     2     3   ar
     9     3     4   ar
    10     4     5   ar
    11     5     6   ar
    12     6     7    1
    13     7     8    1
    14     8     9    1
    15     9    10    1
    16    10    11    1
    17    11    12    1
    18    19    20   ar
    19    20    21   ar
    20    21    16   ar
    21     6     1   ar
    22    12     7    1
    23    10    13    1
@<TRIPOS>MOLECULE
*****
 21 23 0 0 0
SMALL
GASTEIGER

@<TRIPOS>ATOM
      1 C          -8.0841  -17.9048   21.6207 C.ar    1  UNL1        0.0428
      2 C          -8.2661  -18.9660   20.5763 C.ar    1  UNL1        0.0077
      3 C          -7.2117  -20.0148   20.3811 C.ar    1  UNL1        0.0006
      4 C          -5.9752  -20.0024   21.2302 C.ar    1  UNL1        0.0013
      5 C          -5.7932  -18.9413   22.2746 C.ar    1  UNL1        0.0150
      6 C          -6.8477  -17.8924   22.4699 C.ar    1  UNL1        0.0540
      7 N          -6.6656  -16.8312   23.5142 N.pl3   1  UNL1       -0.3043
      8 C          -7.8249  -16.4146   24.3702 C.3     1  UNL1        0.1079
      9 C          -7.6428  -15.3535   25.4146 C.3     1  UNL1        0.0903
     10 N          -6.3015  -14.7089   25.6030 N.3     1  UNL1       -0.2946
     11 C          -5.1423  -15.1255   24.7471 C.3     1  UNL1        0.0903
     12 C          -5.3244  -16.1867   23.7027 C.3     1  UNL1        0.1079
     13 H          -6.0278  -14.8763   26.5713 H       1  UNL1        0.1233
     14 S          -9.1386  -16.8560   21.8160 S.3     1  UNL1       -0.0857
     15 C         -14.3662  -18.2990   24.3830 C.3     1  UNL1        0.0310
     16 C         -13.0593  -17.9382   23.7413 C.ar    1  UNL1       -0.0218
     17 C         -11.8282  -18.7396   24.0449 C.ar    1  UNL1       -0.0037
     18 C         -10.5213  -18.3788   23.4031 C.ar    1  UNL1        0.0062
     19 C         -10.4455  -17.2167   22.4578 C.ar    1  UNL1        0.0295
     20 C         -11.6766  -16.4154   22.1541 C.ar    1  UNL1        0.0062
     21 C         -12.9835  -16.7762   22.7959 C.ar    1  UNL1       -0.0037
@<TRIPOS>BOND
     1    15    16    1
     2    16    17   ar
     3    17    18   ar
     4    18    19   ar
     5    19    14    1
     6    14     1    1
     7     1     2   ar
     8     2     3   ar
     9     3     4   ar
    10     4     5   ar
    11     5     6   ar
    12     6     7    1
    13     7     8    1
    14     8     9    1
    15     9    10    1
    16    10    11    1
    17    11    12    1
    18    19    20   ar
    19    20    21   ar
    20    21    16   ar
    21     6     1   ar
    22    12     7    1
    23    10    13    1
@<TRIPOS>MOLECULE
*****
 21 23 0 0 0
SMALL
GASTEIGER

@<TRIPOS>ATOM
      1 C          -6.9421  -16.3297   24.1246 C.ar    1  UNL1        0.0428
      2 C          -7.9899  -15.8656   25.0925 C.ar    1  UNL1        0.0077
      3 C          -7.5869  -15.3318   26.4351 C.ar    1  UNL1        0.0006
      4 C          -6.1362  -15.2621   26.8099 C.ar    1  UNL1        0.0013
      5 C          -5.0884  -15.7262   25.8421 C.ar    1  UNL1        0.0150
      6 C          -5.4914  -16.2601   24.4994 C.ar    1  UNL1        0.0540
      7 N          -4.4436  -16.7242   23.5316 N.pl3   1  UNL1       -0.3043
      8 C          -4.2517  -18.1905   23.2800 C.3     1  UNL1        0.1079
      9 C          -3.2040  -18.6546   22.3122 C.3     1  UNL1        0.0903
     10 N          -2.3480  -17.6524   21.5959 N.3     1  UNL1       -0.2946
     11 C          -2.5399  -16.1862   21.8474 C.3     1  UNL1        0.0903
     12 C          -3.5877  -15.7221   22.8153 C.3     1  UNL1        0.1079
     13 H          -2.4933  -17.8014   20.5973 H       1  UNL1        0.1233
     14 S          -7.3451  -16.8635   22.7820 S.3     1  UNL1       -0.0857
     15 C         -13.1290  -17.9210   21.5868 C.3     1  UNL1        0.0310
     16 C         -11.6830  -17.6566   21.8856 C.ar    1  UNL1       -0.0218
     17 C         -11.0677  -16.3414   21.5094 C.ar    1  UNL1       -0.0037
     18 C          -9.6217  -16.0771   21.8082 C.ar    1  UNL1        0.0062
     19 C          -8.7911  -17.1279   22.4832 C.ar    1  UNL1        0.0295
     20 C          -9.4064  -18.4431   22.8595 C.ar    1  UNL1        0.0062
     21 C         -10.8524  -18.7074   22.5607 C.ar    1  UNL1       -0.0037
@<TRIPOS>BOND
     1    15    16    1
     2    16    17   ar
     3    17    18   ar
     4    18    19   ar
     5    19    14    1
     6    14     1    1
     7     1     2   ar
     8     2     3   ar
     9     3     4   ar
    10     4     5   ar
    11     5     6   ar
    12     6     7    1
    13     7     8    1
    14     8     9    1
    15     9    10    1
    16    10    11    1
    17    11    12    1
    18    19    20   ar
    19    20    21   ar
    20    21    16   ar
    21     6     1   ar
    22    12     7    1
    23    10    13    1
@<TRIPOS>MOLECULE
*****
 21 23 0 0 0
SMALL
GASTEIGER

@<TRIPOS>ATOM
      1 C          -7.5417  -16.1886   24.5335 C.ar    1  UNL1        0.0428
      2 C          -8.3229  -15.5258   25.6292 C.ar    1  UNL1        0.0077
      3 C          -7.6159  -15.0064   26.8459 C.ar    1  UNL1        0.0006
      4 C          -6.1276  -15.1497   26.9668 C.ar    1  UNL1        0.0013
      5 C          -5.3465  -15.8124   25.8712 C.ar    1  UNL1        0.0150
      6 C          -6.0535  -16.3319   24.6545 C.ar    1  UNL1        0.0540
      7 N          -5.2723  -16.9947   23.5589 N.pl3   1  UNL1       -0.3043
      8 C          -3.8921  -16.5120   23.2242 C.3     1  UNL1        0.1079
      9 C          -3.1109  -17.1747   22.1285 C.3     1  UNL1        0.0903
     10 N          -3.7099  -18.3203   21.3676 N.3     1  UNL1       -0.2946
     11 C          -5.0901  -18.8030   21.7023 C.3     1  UNL1        0.0903
     12 C          -5.8713  -18.1402   22.7980 C.3     1  UNL1        0.1079
     13 H          -3.0823  -19.1150   21.4896 H       1  UNL1        0.1233
     14 S          -8.2488  -16.7081   23.3169 S.3     1  UNL1       -0.0857
     15 C         -14.0556  -18.1866   23.6241 C.3     1  UNL1        0.0310
     16 C         -12.6039  -17.8170   23.5473 C.ar    1  UNL1       -0.0218
     17 C         -11.5880  -18.6025   24.3223 C.ar    1  UNL1       -0.0037
     18 C         -10.1362  -18.2329   24.2455 C.ar    1  UNL1        0.0062
     19 C          -9.7005  -17.0777   23.3937 C.ar    1  UNL1        0.0295
     20 C         -10.7164  -16.2922   22.6187 C.ar    1  UNL1        0.0062
     21 C         -12.1682  -16.6618   22.6955 C.ar    1  UNL1       -0.0037
@<TRIPOS>BOND
     1    15    16    1
     2    16    17   ar
     3    17    18   ar
     4    18    19   ar
     5    19    14    1
     6    14     1    1
     7     1     2   ar
     8     2     3   ar
     9     3     4   ar
    10     4     5   ar
    11     5     6   ar
    12     6     7    1
    13     7     8    1
    14     8     9    1
    15     9    10    1
    16    10    11    1
    17    11    12    1
    18    19    20   ar
    19    20    21   ar
    20    21    16   ar
    21     6     1   ar
    22    12     7    1
    23    10    13    1
