@<TRIPOS>MOLECULE
*****
 42 46 0 0 0
SMALL
GASTEIGER

@<TRIPOS>ATOM
      1 C           6.8039   -3.3667   27.7489 C.ar    1  UNL1        0.0040
      2 C           6.8067   -4.5516   26.8292 C.ar    1  UNL1        0.0719
      3 C           6.8503   -5.7920   27.6715 C.ar    1  UNL1        0.1049
      4 N           6.8743   -5.3738   29.1118 N.ar    1  UNL1       -0.2242
      5 N           6.9187   -6.1641   30.3859 N.ar    1  UNL1       -0.1422
      6 C           6.9343   -5.4555   31.7078 C.ar    1  UNL1        0.2211
      7 N           6.9056   -3.9566   31.7557 N.ar    1  UNL1       -0.2060
      8 C           6.8613   -3.1662   30.4816 C.ar    1  UNL1        0.1515
      9 C           6.8457   -3.8748   29.1597 C.ar    1  UNL1        0.1107
     10 C           6.7721   -4.5044   25.3303 C.ar    1  UNL1        0.2525
     11 N           7.6303   -5.3125   24.4027 N.ar    1  UNL1       -0.1057
     12 N           7.2618   -4.9484   22.9950 N.ar    1  UNL1       -0.0923
     13 C           6.1758   -3.9152   23.0526 C.ar    1  UNL1        0.3086
     14 O           5.8732   -3.6409   24.4959 O.2     1  UNL1       -0.4048
     15 N           5.5095   -3.2697   21.8739 N.pl3   1  UNL1       -0.2871
     16 H           5.8719   -3.4050   20.9686 H       1  UNL1        0.1512
     17 C           4.2911   -2.4182   22.0746 C.3     1  UNL1        0.0925
     18 C           3.7833   -1.5597   20.9542 C.3     1  UNL1        0.0386
     19 C           3.2324   -2.1958   19.7125 C.3     1  UNL1        0.0739
     20 N           4.0317   -3.2357   18.9845 N.3     1  UNL1       -0.2703
     21 C           3.5768   -4.6650   18.9812 C.3     1  UNL1        0.0897
     22 C           5.2860   -2.8462   18.2599 C.3     1  UNL1        0.0897
     23 C           5.4497   -1.2551   27.0725 C.3     1  UNL1        0.0047
     24 C           6.7659   -1.9265   27.3313 C.3     1  UNL1        0.0241
     25 C           8.0440   -1.1577   27.1725 C.3     1  UNL1        0.0047
     26 N           6.8327   -1.6672   30.5295 N.pl3   1  UNL1       -0.2949
     27 H           7.5391   -1.1469   30.0830 H       1  UNL1        0.1537
     28 C           5.7277   -0.9611   31.2577 C.ar    1  UNL1        0.0775
     29 C           4.4688   -0.5892   30.5317 C.ar    1  UNL1        0.0237
     30 C           3.3638    0.1169   31.2599 C.ar    1  UNL1        0.0821
     31 C           3.5176    0.4512   32.7141 C.ar    1  UNL1        0.1468
     32 F           2.4125    1.1574   33.4422 F       1  UNL1       -0.2039
     33 C           4.7764    0.0793   33.4400 C.ar    1  UNL1        0.0607
     34 C           5.8814   -0.6269   32.7119 C.ar    1  UNL1        0.1557
     35 F           7.1402   -0.9988   33.4378 F       1  UNL1       -0.2028
     36 C           2.1049    0.4889   30.5339 C.2     1  UNL1        0.2480
     37 O           1.5667    1.8854   30.6330 O.2     1  UNL1       -0.2701
     38 N           1.3843   -0.5358   29.7088 N.am    1  UNL1       -0.3024
     39 H           1.7376   -1.4525   29.6438 H       1  UNL1        0.1497
     40 C           0.1255   -0.1640   28.9829 C.3     1  UNL1        0.0720
     41 C          -1.3387   -0.3712   28.7316 C.3     1  UNL1        0.0213
     42 C          -0.5907    0.6873   27.9767 C.3     1  UNL1        0.0213
@<TRIPOS>BOND
     1    23    24    1
     2    24    25    1
     3    24     1    1
     4     1     2   ar
     5     2    10    1
     6    10    11   ar
     7    11    12   ar
     8    12    13   ar
     9    13    15    1
    10    15    17    1
    11    17    18    1
    12    18    19    1
    13    19    20    1
    14    20    21    1
    15    20    22    1
    16    13    14   ar
    17     2     3   ar
    18     3     4   ar
    19     4     5   ar
    20     5     6   ar
    21     6     7   ar
    22     7     8   ar
    23     8    26    1
    24    26    28    1
    25    28    29   ar
    26    29    30   ar
    27    30    36    1
    28    36    37    2
    29    36    38   am
    30    38    40    1
    31    40    41    1
    32    41    42    1
    33    30    31   ar
    34    31    32    1
    35    31    33   ar
    36    33    34   ar
    37    34    35    1
    38     8     9   ar
    39     9     1   ar
    40    14    10   ar
    41     9     4   ar
    42    34    28   ar
    43    42    40    1
    44    15    16    1
    45    26    27    1
    46    38    39    1
@<TRIPOS>MOLECULE
*****
 42 46 0 0 0
SMALL
GASTEIGER

@<TRIPOS>ATOM
      1 C           5.8475   -3.0911   20.2114 C.ar    1  UNL1        0.0040
      2 C           7.2826   -3.4364   20.4781 C.ar    1  UNL1        0.0719
      3 C           8.1405   -2.5076   19.6710 C.ar    1  UNL1        0.1049
      4 N           7.2356   -1.5884   18.9054 N.ar    1  UNL1       -0.2242
      5 N           7.5189   -0.4695   17.9474 N.ar    1  UNL1       -0.1422
      6 C           6.3851    0.2887   17.3233 C.ar    1  UNL1        0.2211
      7 N           4.9679   -0.0720   17.6573 N.ar    1  UNL1       -0.2060
      8 C           4.6846   -1.1908   18.6153 C.ar    1  UNL1        0.1515
      9 C           5.8184   -1.9490   19.2394 C.ar    1  UNL1        0.1107
     10 C           7.7737   -4.5201   21.3916 C.ar    1  UNL1        0.2525
     11 N           8.4791   -5.7753   20.9711 N.ar    1  UNL1       -0.1057
     12 N           8.7869   -6.5699   22.2055 N.ar    1  UNL1       -0.0923
     13 C           8.2717   -5.8058   23.3890 C.ar    1  UNL1        0.3086
     14 O           7.6455   -4.5390   22.8860 O.2     1  UNL1       -0.4048
     15 N           8.3661   -6.2334   24.8237 N.pl3   1  UNL1       -0.2871
     16 H           8.5884   -5.5741   25.5202 H       1  UNL1        0.1512
     17 C           8.1218   -7.6654   25.1971 C.3     1  UNL1        0.0925
     18 C           7.5868   -8.0052   26.5566 C.3     1  UNL1        0.0386
     19 C           8.1164   -7.2984   27.7691 C.3     1  UNL1        0.0739
     20 N           7.8003   -5.8487   27.9900 N.3     1  UNL1       -0.2703
     21 C           8.8996   -4.8835   28.3214 C.3     1  UNL1        0.0897
     22 C           6.3849   -5.3644   27.8794 C.3     1  UNL1        0.0897
     23 C           3.7806   -4.6452   19.9602 C.3     1  UNL1        0.0047
     24 C           4.6514   -3.7690   20.8112 C.3     1  UNL1        0.0241
     25 C           4.3260   -3.5708   22.2620 C.3     1  UNL1        0.0047
     26 N           3.2674   -1.5514   18.9493 N.pl3   1  UNL1       -0.2949
     27 H           2.8614   -2.3610   18.5632 H       1  UNL1        0.1537
     28 C           2.4688   -0.6786   19.8714 C.ar    1  UNL1        0.0775
     29 C           2.7356   -0.7048   21.3473 C.ar    1  UNL1        0.0237
     30 C           1.9370    0.1680   22.2694 C.ar    1  UNL1        0.0821
     31 C           0.8715    1.0670   21.7158 C.ar    1  UNL1        0.1468
     32 F           0.0728    1.9398   22.6380 F       1  UNL1       -0.2039
     33 C           0.6046    1.0932   20.2400 C.ar    1  UNL1        0.0607
     34 C           1.4033    0.2204   19.3177 C.ar    1  UNL1        0.1557
     35 F           1.1364    0.2466   17.8419 F       1  UNL1       -0.2028
     36 C           2.2038    0.1418   23.7453 C.2     1  UNL1        0.2480
     37 O           1.2787    0.8535   24.6875 O.2     1  UNL1       -0.2701
     38 N           3.3957   -0.5961   24.2790 N.am    1  UNL1       -0.3024
     39 H           4.0029   -1.0632   23.6606 H       1  UNL1        0.1497
     40 C           3.6626   -0.6223   25.7548 C.3     1  UNL1        0.0720
     41 C           4.0930    0.0777   27.0097 C.3     1  UNL1        0.0213
     42 C           3.6944   -1.3676   27.0561 C.3     1  UNL1        0.0213
@<TRIPOS>BOND
     1    23    24    1
     2    24    25    1
     3    24     1    1
     4     1     2   ar
     5     2    10    1
     6    10    11   ar
     7    11    12   ar
     8    12    13   ar
     9    13    15    1
    10    15    17    1
    11    17    18    1
    12    18    19    1
    13    19    20    1
    14    20    21    1
    15    20    22    1
    16    13    14   ar
    17     2     3   ar
    18     3     4   ar
    19     4     5   ar
    20     5     6   ar
    21     6     7   ar
    22     7     8   ar
    23     8    26    1
    24    26    28    1
    25    28    29   ar
    26    29    30   ar
    27    30    36    1
    28    36    37    2
    29    36    38   am
    30    38    40    1
    31    40    41    1
    32    41    42    1
    33    30    31   ar
    34    31    32    1
    35    31    33   ar
    36    33    34   ar
    37    34    35    1
    38     8     9   ar
    39     9     1   ar
    40    14    10   ar
    41     9     4   ar
    42    34    28   ar
    43    42    40    1
    44    15    16    1
    45    26    27    1
    46    38    39    1
@<TRIPOS>MOLECULE
*****
 42 46 0 0 0
SMALL
GASTEIGER

@<TRIPOS>ATOM
      1 C           7.6214   -4.6848   27.4162 C.ar    1  UNL1        0.0040
      2 C           7.5867   -5.9599   26.6270 C.ar    1  UNL1        0.0719
      3 C           7.0383   -5.6479   25.2662 C.ar    1  UNL1        0.1049
      4 N           6.7341   -4.1800   25.2143 N.ar    1  UNL1       -0.2242
      5 N           6.1755   -3.3085   24.1288 N.ar    1  UNL1       -0.1422
      6 C           5.9772   -1.8417   24.3721 C.ar    1  UNL1        0.2211
      7 N           6.3376   -1.2465   25.7010 N.ar    1  UNL1       -0.2060
      8 C           6.8962   -2.1180   26.7865 C.ar    1  UNL1        0.1515
      9 C           7.0944   -3.5847   26.5432 C.ar    1  UNL1        0.1107
     10 C           8.0237   -7.3099   27.1133 C.ar    1  UNL1        0.2525
     11 N           9.3542   -7.6395   27.7226 N.ar    1  UNL1       -0.1057
     12 N           9.3597   -9.1007   28.0615 N.ar    1  UNL1       -0.0923
     13 C           8.0326   -9.6742   27.6616 C.ar    1  UNL1        0.3086
     14 O           7.2069   -8.5675   27.0756 O.2     1  UNL1       -0.4048
     15 N           7.6061  -11.1036   27.8200 N.pl3   1  UNL1       -0.2871
     16 H           8.2835  -11.8138   27.8963 H       1  UNL1        0.1512
     17 C           6.1474  -11.4507   27.8620 C.3     1  UNL1        0.0925
     18 C           5.6178  -12.3337   28.9528 C.3     1  UNL1        0.0386
     19 C           4.1925  -12.1997   29.4005 C.3     1  UNL1        0.0739
     20 N           3.1677  -13.1981   28.9497 N.3     1  UNL1       -0.2703
     21 C           1.8512  -13.2954   29.6621 C.3     1  UNL1        0.0897
     22 C           3.4593  -14.0990   27.7864 C.3     1  UNL1        0.0897
     23 C           9.4826   -4.0251   29.1047 C.3     1  UNL1        0.0047
     24 C           8.0991   -4.5358   28.8303 C.3     1  UNL1        0.0241
     25 C           7.1935   -4.8974   29.9700 C.3     1  UNL1        0.0047
     26 N           7.2565   -1.5227   28.1153 N.pl3   1  UNL1       -0.2949
     27 H           8.1980   -1.3309   28.3298 H       1  UNL1        0.1537
     28 C           6.1823   -1.2197   29.1174 C.ar    1  UNL1        0.0775
     29 C           4.8599   -0.6799   28.6593 C.ar    1  UNL1        0.0237
     30 C           3.7857   -0.3768   29.6614 C.ar    1  UNL1        0.0821
     31 C           4.0339   -0.6135   31.1217 C.ar    1  UNL1        0.1468
     32 F           2.9597   -0.3104   32.1238 F       1  UNL1       -0.2039
     33 C           5.3563   -1.1532   31.5798 C.ar    1  UNL1        0.0607
     34 C           6.4305   -1.4563   30.5777 C.ar    1  UNL1        0.1557
     35 F           7.7529   -1.9961   31.0359 F       1  UNL1       -0.2028
     36 C           2.4632    0.1630   29.2033 C.2     1  UNL1        0.2480
     37 O           2.3832    1.5282   28.5873 O.2     1  UNL1       -0.2701
     38 N           1.2209   -0.6626   29.3613 N.am    1  UNL1       -0.3024
     39 H           1.2734   -1.5587   29.7656 H       1  UNL1        0.1497
     40 C          -0.1015   -0.1229   28.9032 C.3     1  UNL1        0.0720
     41 C          -1.5954   -0.0677   29.0271 C.3     1  UNL1        0.0213
     42 C          -0.8983    0.7566   27.9858 C.3     1  UNL1        0.0213
@<TRIPOS>BOND
     1    23    24    1
     2    24    25    1
     3    24     1    1
     4     1     2   ar
     5     2    10    1
     6    10    11   ar
     7    11    12   ar
     8    12    13   ar
     9    13    15    1
    10    15    17    1
    11    17    18    1
    12    18    19    1
    13    19    20    1
    14    20    21    1
    15    20    22    1
    16    13    14   ar
    17     2     3   ar
    18     3     4   ar
    19     4     5   ar
    20     5     6   ar
    21     6     7   ar
    22     7     8   ar
    23     8    26    1
    24    26    28    1
    25    28    29   ar
    26    29    30   ar
    27    30    36    1
    28    36    37    2
    29    36    38   am
    30    38    40    1
    31    40    41    1
    32    41    42    1
    33    30    31   ar
    34    31    32    1
    35    31    33   ar
    36    33    34   ar
    37    34    35    1
    38     8     9   ar
    39     9     1   ar
    40    14    10   ar
    41     9     4   ar
    42    34    28   ar
    43    42    40    1
    44    15    16    1
    45    26    27    1
    46    38    39    1
@<TRIPOS>MOLECULE
*****
 42 46 0 0 0
SMALL
GASTEIGER

@<TRIPOS>ATOM
      1 C           4.4484   -1.3070   21.7272 C.ar    1  UNL1        0.0040
      2 C           3.0993   -0.7582   21.3681 C.ar    1  UNL1        0.0719
      3 C           2.5163   -1.6276   20.2938 C.ar    1  UNL1        0.1049
      4 N           3.5050   -2.7137   19.9888 N.ar    1  UNL1       -0.2242
      5 N           3.4723   -3.8574   19.0190 N.ar    1  UNL1       -0.1422
      6 C           4.6337   -4.8030   18.9350 C.ar    1  UNL1        0.2211
      7 N           5.8278   -4.6048   19.8209 N.ar    1  UNL1       -0.2060
      8 C           5.8605   -3.4610   20.7908 C.ar    1  UNL1        0.1515
      9 C           4.6991   -2.5155   20.8747 C.ar    1  UNL1        0.1107
     10 C           2.4477    0.4481   21.9766 C.ar    1  UNL1        0.2525
     11 N           2.2509    1.7758   21.3070 N.ar    1  UNL1       -0.1057
     12 N           1.5600    2.6868   22.2780 N.ar    1  UNL1       -0.0923
     13 C           1.3298    1.9220   23.5477 C.ar    1  UNL1        0.3086
     14 O           1.8784    0.5384   23.3614 O.2     1  UNL1       -0.4048
     15 N           0.6673    2.4484   24.7863 N.pl3   1  UNL1       -0.2871
     16 H           0.8212    3.3786   25.0694 H       1  UNL1        0.1512
     17 C          -0.2297    1.5574   25.5935 C.3     1  UNL1        0.0925
     18 C          -0.6986    1.9953   26.9493 C.3     1  UNL1        0.0386
     19 C           0.1334    1.7004   28.1620 C.3     1  UNL1        0.0739
     20 N           0.1162    0.3283   28.7679 N.3     1  UNL1       -0.2703
     21 C           1.3650   -0.2394   29.3746 C.3     1  UNL1        0.0897
     22 C          -1.1499   -0.4761   28.7671 C.3     1  UNL1        0.0897
     23 C           5.2992   -1.2143   24.1803 C.3     1  UNL1        0.0047
     24 C           5.3827   -0.7457   22.7577 C.3     1  UNL1        0.0241
     25 C           6.4005    0.2840   22.3659 C.3     1  UNL1        0.0047
     26 N           7.0546   -3.2628   21.6767 N.pl3   1  UNL1       -0.2949
     27 H           7.5071   -2.3889   21.7048 H       1  UNL1        0.1537
     28 C           7.5593   -4.3961   22.5198 C.ar    1  UNL1        0.0775
     29 C           7.1380   -4.5087   23.9551 C.ar    1  UNL1        0.0237
     30 C           7.6428   -5.6420   24.7982 C.ar    1  UNL1        0.0821
     31 C           8.5688   -6.6627   24.2061 C.ar    1  UNL1        0.1468
     32 F           9.0735   -7.7961   25.0493 F       1  UNL1       -0.2039
     33 C           8.9901   -6.5502   22.7709 C.ar    1  UNL1        0.0607
     34 C           8.4853   -5.4169   21.9277 C.ar    1  UNL1        0.1557
     35 F           8.9066   -5.3044   20.4926 F       1  UNL1       -0.2028
     36 C           7.2215   -5.7545   26.2335 C.2     1  UNL1        0.2480
     37 O           6.4608   -6.9604   26.6995 O.2     1  UNL1       -0.2701
     38 N           7.5609   -4.6612   27.2027 N.am    1  UNL1       -0.3024
     39 H           8.0601   -3.8697   26.8968 H       1  UNL1        0.1497
     40 C           7.1396   -4.7737   28.6379 C.3     1  UNL1        0.0720
     41 C           6.6412   -4.1334   29.8994 C.3     1  UNL1        0.0213
     42 C           6.9085   -5.6088   29.8622 C.3     1  UNL1        0.0213
@<TRIPOS>BOND
     1    23    24    1
     2    24    25    1
     3    24     1    1
     4     1     2   ar
     5     2    10    1
     6    10    11   ar
     7    11    12   ar
     8    12    13   ar
     9    13    15    1
    10    15    17    1
    11    17    18    1
    12    18    19    1
    13    19    20    1
    14    20    21    1
    15    20    22    1
    16    13    14   ar
    17     2     3   ar
    18     3     4   ar
    19     4     5   ar
    20     5     6   ar
    21     6     7   ar
    22     7     8   ar
    23     8    26    1
    24    26    28    1
    25    28    29   ar
    26    29    30   ar
    27    30    36    1
    28    36    37    2
    29    36    38   am
    30    38    40    1
    31    40    41    1
    32    41    42    1
    33    30    31   ar
    34    31    32    1
    35    31    33   ar
    36    33    34   ar
    37    34    35    1
    38     8     9   ar
    39     9     1   ar
    40    14    10   ar
    41     9     4   ar
    42    34    28   ar
    43    42    40    1
    44    15    16    1
    45    26    27    1
    46    38    39    1
@<TRIPOS>MOLECULE
*****
 42 46 0 0 0
SMALL
GASTEIGER

@<TRIPOS>ATOM
      1 C           7.0976   -3.7043   26.4588 C.ar    1  UNL1        0.0040
      2 C           6.9525   -4.7143   25.3594 C.ar    1  UNL1        0.0719
      3 C           7.2446   -6.0691   25.9331 C.ar    1  UNL1        0.1049
      4 N           7.5702   -5.8964   27.3871 N.ar    1  UNL1       -0.2242
      5 N           7.9378   -6.8812   28.4572 N.ar    1  UNL1       -0.1422
      6 C           8.2144   -6.4044   29.8522 C.ar    1  UNL1        0.2211
      7 N           8.1236   -4.9429   30.1771 N.ar    1  UNL1       -0.2060
      8 C           7.7561   -3.9581   29.1070 C.ar    1  UNL1        0.1515
      9 C           7.4794   -4.4349   27.7120 C.ar    1  UNL1        0.1107
     10 C           6.5806   -4.4210   23.9361 C.ar    1  UNL1        0.2525
     11 N           7.3478   -4.8451   22.7190 N.ar    1  UNL1       -0.1057
     12 N           6.6175   -4.3383   21.5107 N.ar    1  UNL1       -0.0923
     13 C           5.3989   -3.6010   21.9811 C.ar    1  UNL1        0.3086
     14 O           5.3761   -3.6521   23.4801 O.2     1  UNL1       -0.4048
     15 N           4.3817   -2.9303   21.1062 N.pl3   1  UNL1       -0.2871
     16 H           4.0881   -2.0123   21.3074 H       1  UNL1        0.1512
     17 C           3.8119   -3.6581   19.9249 C.3     1  UNL1        0.0925
     18 C           4.6602   -3.8981   18.7114 C.3     1  UNL1        0.0386
     19 C           5.5622   -2.8139   18.2005 C.3     1  UNL1        0.0739
     20 N           5.0704   -1.3983   18.1343 N.3     1  UNL1       -0.2703
     21 C           5.6723   -0.3528   19.0257 C.3     1  UNL1        0.0897
     22 C           3.9768   -1.0283   17.1767 C.3     1  UNL1        0.0897
     23 C           5.5120   -1.6478   26.3763 C.3     1  UNL1        0.0047
     24 C           6.8963   -2.2236   26.3281 C.3     1  UNL1        0.0241
     25 C           8.0791   -1.3188   26.1491 C.3     1  UNL1        0.0047
     26 N           7.6652   -2.4965   29.4320 N.pl3   1  UNL1       -0.2949
     27 H           8.2797   -1.8579   29.0033 H       1  UNL1        0.1537
     28 C           6.6382   -2.0081   30.4100 C.ar    1  UNL1        0.0775
     29 C           5.3897   -1.3396   29.9154 C.ar    1  UNL1        0.0237
     30 C           4.3627   -0.8511   30.8934 C.ar    1  UNL1        0.0821
     31 C           4.5840   -1.0311   32.3660 C.ar    1  UNL1        0.1468
     32 F           3.5569   -0.5426   33.3440 F       1  UNL1       -0.2039
     33 C           5.8324   -1.6995   32.8606 C.ar    1  UNL1        0.0607
     34 C           6.8596   -2.1880   31.8826 C.ar    1  UNL1        0.1557
     35 F           8.1079   -2.8564   32.3772 F       1  UNL1       -0.2028
     36 C           3.1142   -0.1827   30.3988 C.2     1  UNL1        0.2480
     37 O           1.7787   -0.8274   30.6238 O.2     1  UNL1       -0.2701
     38 N           3.2013    1.1306   29.6792 N.am    1  UNL1       -0.3024
     39 H           4.0779    1.5537   29.5315 H       1  UNL1        0.1497
     40 C           1.9530    1.7990   29.1846 C.3     1  UNL1        0.0720
     41 C           1.1672    2.4205   28.0682 C.3     1  UNL1        0.0213
     42 C           0.5764    2.3354   29.4443 C.3     1  UNL1        0.0213
@<TRIPOS>BOND
     1    23    24    1
     2    24    25    1
     3    24     1    1
     4     1     2   ar
     5     2    10    1
     6    10    11   ar
     7    11    12   ar
     8    12    13   ar
     9    13    15    1
    10    15    17    1
    11    17    18    1
    12    18    19    1
    13    19    20    1
    14    20    21    1
    15    20    22    1
    16    13    14   ar
    17     2     3   ar
    18     3     4   ar
    19     4     5   ar
    20     5     6   ar
    21     6     7   ar
    22     7     8   ar
    23     8    26    1
    24    26    28    1
    25    28    29   ar
    26    29    30   ar
    27    30    36    1
    28    36    37    2
    29    36    38   am
    30    38    40    1
    31    40    41    1
    32    41    42    1
    33    30    31   ar
    34    31    32    1
    35    31    33   ar
    36    33    34   ar
    37    34    35    1
    38     8     9   ar
    39     9     1   ar
    40    14    10   ar
    41     9     4   ar
    42    34    28   ar
    43    42    40    1
    44    15    16    1
    45    26    27    1
    46    38    39    1
@<TRIPOS>MOLECULE
*****
 42 46 0 0 0
SMALL
GASTEIGER

@<TRIPOS>ATOM
      1 C           6.8075   -3.4483   25.7844 C.ar    1  UNL1        0.0040
      2 C           6.9387   -4.5431   24.7674 C.ar    1  UNL1        0.0719
      3 C           7.1735   -5.8307   25.5002 C.ar    1  UNL1        0.1049
      4 N           7.1875   -5.5317   26.9700 N.ar    1  UNL1       -0.2242
      5 N           7.3770   -6.4100   28.1711 N.ar    1  UNL1       -0.1422
      6 C           7.3403   -5.8158   29.5479 C.ar    1  UNL1        0.2211
      7 N           7.1142   -4.3434   29.7236 N.ar    1  UNL1       -0.2060
      8 C           6.9247   -3.4652   28.5225 C.ar    1  UNL1        0.1515
      9 C           6.9613   -4.0593   27.1457 C.ar    1  UNL1        0.1107
     10 C           6.8504   -4.3790   23.2790 C.ar    1  UNL1        0.2525
     11 N           7.8233   -4.9193   22.2733 N.ar    1  UNL1       -0.1057
     12 N           7.3480   -4.5201   20.9077 N.ar    1  UNL1       -0.0923
     13 C           6.0813   -3.7331   21.0695 C.ar    1  UNL1        0.3086
     14 O           5.7738   -3.6459   22.5351 O.2     1  UNL1       -0.4048
     15 N           5.2654   -3.1377   19.9605 N.pl3   1  UNL1       -0.2871
     16 H           5.6687   -2.9972   19.0735 H       1  UNL1        0.1512
     17 C           3.8350   -2.7566   20.2031 C.3     1  UNL1        0.0925
     18 C           3.4302   -1.3124   20.1838 C.3     1  UNL1        0.0386
     19 C           2.1808   -0.8744   20.8889 C.3     1  UNL1        0.0739
     20 N           1.8986    0.5869   21.0766 N.3     1  UNL1       -0.2703
     21 C           2.3624    1.5781   20.0507 C.3     1  UNL1        0.0897
     22 C           1.1526    1.0569   22.2901 C.3     1  UNL1        0.0897
     23 C           5.1633   -1.4654   25.4458 C.3     1  UNL1        0.0047
     24 C           6.5651   -1.9973   25.4916 C.3     1  UNL1        0.0241
     25 C           7.7244   -1.0781   25.2447 C.3     1  UNL1        0.0047
     26 N           6.6985   -1.9928   28.6982 N.pl3   1  UNL1       -0.2949
     27 H           7.1272   -1.3523   28.0856 H       1  UNL1        0.1537
     28 C           5.8191   -1.4961   29.8073 C.ar    1  UNL1        0.0775
     29 C           4.4241   -1.0329   29.5082 C.ar    1  UNL1        0.0237
     30 C           3.5448   -0.5363   30.6172 C.ar    1  UNL1        0.0821
     31 C           4.0604   -0.5028   32.0254 C.ar    1  UNL1        0.1468
     32 F           3.1810   -0.0061   33.1345 F       1  UNL1       -0.2039
     33 C           5.4553   -0.9660   32.3246 C.ar    1  UNL1        0.0607
     34 C           6.3348   -1.4626   31.2155 C.ar    1  UNL1        0.1557
     35 F           7.7297   -1.9258   31.5146 F       1  UNL1       -0.2028
     36 C           2.1497   -0.0731   30.3181 C.2     1  UNL1        0.2480
     37 O           1.5174    0.9951   31.1602 O.2     1  UNL1       -0.2701
     38 N           1.3871   -0.6781   29.1769 N.am    1  UNL1       -0.3024
     39 H           1.8021   -1.3792   28.6243 H       1  UNL1        0.1497
     40 C          -0.0079   -0.2149   28.8778 C.3     1  UNL1        0.0720
     41 C          -1.4804   -0.4909   28.8037 C.3     1  UNL1        0.0213
     42 C          -0.9516    0.8631   28.4339 C.3     1  UNL1        0.0213
@<TRIPOS>BOND
     1    23    24    1
     2    24    25    1
     3    24     1    1
     4     1     2   ar
     5     2    10    1
     6    10    11   ar
     7    11    12   ar
     8    12    13   ar
     9    13    15    1
    10    15    17    1
    11    17    18    1
    12    18    19    1
    13    19    20    1
    14    20    21    1
    15    20    22    1
    16    13    14   ar
    17     2     3   ar
    18     3     4   ar
    19     4     5   ar
    20     5     6   ar
    21     6     7   ar
    22     7     8   ar
    23     8    26    1
    24    26    28    1
    25    28    29   ar
    26    29    30   ar
    27    30    36    1
    28    36    37    2
    29    36    38   am
    30    38    40    1
    31    40    41    1
    32    41    42    1
    33    30    31   ar
    34    31    32    1
    35    31    33   ar
    36    33    34   ar
    37    34    35    1
    38     8     9   ar
    39     9     1   ar
    40    14    10   ar
    41     9     4   ar
    42    34    28   ar
    43    42    40    1
    44    15    16    1
    45    26    27    1
    46    38    39    1
@<TRIPOS>MOLECULE
*****
 42 46 0 0 0
SMALL
GASTEIGER

@<TRIPOS>ATOM
      1 C           1.3713    2.1944   19.9789 C.ar    1  UNL1        0.0040
      2 C           0.4929    3.1836   19.2719 C.ar    1  UNL1        0.0719
      3 C           1.3484    3.9653   18.3196 C.ar    1  UNL1        0.1049
      4 N           2.7555    3.4593   18.4380 N.ar    1  UNL1       -0.2242
      5 N           4.0257    3.8537   17.7446 N.ar    1  UNL1       -0.1422
      6 C           5.3100    3.1536   18.0766 C.ar    1  UNL1        0.2211
      7 N           5.3241    2.0590   19.1022 N.ar    1  UNL1       -0.2060
      8 C           4.0539    1.6646   19.7957 C.ar    1  UNL1        0.1515
      9 C           2.7696    2.3647   19.4636 C.ar    1  UNL1        0.1107
     10 C          -0.9820    3.3601   19.4806 C.ar    1  UNL1        0.2525
     11 N          -1.8837    4.2574   18.6858 N.ar    1  UNL1       -0.1057
     12 N          -3.2732    4.1222   19.2347 N.ar    1  UNL1       -0.0923
     13 C          -3.2301    3.1412   20.3686 C.ar    1  UNL1        0.3086
     14 O          -1.8141    2.6702   20.5206 O.2     1  UNL1       -0.4048
     15 N          -4.3980    2.7074   21.2040 N.pl3   1  UNL1       -0.2871
     16 H          -4.8628    1.8638   21.0000 H       1  UNL1        0.1512
     17 C          -4.8578    3.5588   22.3502 C.3     1  UNL1        0.0925
     18 C          -4.9947    2.9626   23.7196 C.3     1  UNL1        0.0386
     19 C          -4.6013    3.7601   24.9276 C.3     1  UNL1        0.0739
     20 N          -3.1889    4.2413   25.0812 N.3     1  UNL1       -0.2703
     21 C          -2.0454    3.3068   24.8184 C.3     1  UNL1        0.0897
     22 C          -2.9200    5.6570   25.4977 C.3     1  UNL1        0.0897
     23 C           0.9900    1.5726   22.4726 C.3     1  UNL1        0.0047
     24 C           0.9289    1.2079   21.0188 C.3     1  UNL1        0.0241
     25 C           0.4256   -0.1431   20.6050 C.3     1  UNL1        0.0047
     26 N           4.0681    0.5701   20.8212 N.pl3   1  UNL1       -0.2949
     27 H           3.8974    0.7802   21.7678 H       1  UNL1        0.1537
     28 C           4.3422   -0.8446   20.4046 C.ar    1  UNL1        0.0775
     29 C           5.2864   -1.6924   21.2045 C.ar    1  UNL1        0.0237
     30 C           5.5606   -3.1071   20.7879 C.ar    1  UNL1        0.0821
     31 C           4.8905   -3.6739   19.5715 C.ar    1  UNL1        0.1468
     32 F           5.1647   -5.0886   19.1549 F       1  UNL1       -0.2039
     33 C           3.9464   -2.8262   18.7716 C.ar    1  UNL1        0.0607
     34 C           3.6722   -1.4114   19.1882 C.ar    1  UNL1        0.1557
     35 F           2.7280   -0.5637   18.3884 F       1  UNL1       -0.2028
     36 C           6.5048   -3.9549   21.5877 C.2     1  UNL1        0.2480
     37 O           7.5467   -4.7788   20.8910 O.2     1  UNL1       -0.2701
     38 N           6.4070   -3.9787   23.0844 N.am    1  UNL1       -0.3024
     39 H           5.7232   -3.4380   23.5417 H       1  UNL1        0.1497
     40 C           7.3512   -4.8265   23.8842 C.3     1  UNL1        0.0720
     41 C           8.4291   -4.9469   24.9203 C.3     1  UNL1        0.0213
     42 C           7.9086   -6.1746   24.2335 C.3     1  UNL1        0.0213
@<TRIPOS>BOND
     1    23    24    1
     2    24    25    1
     3    24     1    1
     4     1     2   ar
     5     2    10    1
     6    10    11   ar
     7    11    12   ar
     8    12    13   ar
     9    13    15    1
    10    15    17    1
    11    17    18    1
    12    18    19    1
    13    19    20    1
    14    20    21    1
    15    20    22    1
    16    13    14   ar
    17     2     3   ar
    18     3     4   ar
    19     4     5   ar
    20     5     6   ar
    21     6     7   ar
    22     7     8   ar
    23     8    26    1
    24    26    28    1
    25    28    29   ar
    26    29    30   ar
    27    30    36    1
    28    36    37    2
    29    36    38   am
    30    38    40    1
    31    40    41    1
    32    41    42    1
    33    30    31   ar
    34    31    32    1
    35    31    33   ar
    36    33    34   ar
    37    34    35    1
    38     8     9   ar
    39     9     1   ar
    40    14    10   ar
    41     9     4   ar
    42    34    28   ar
    43    42    40    1
    44    15    16    1
    45    26    27    1
    46    38    39    1
@<TRIPOS>MOLECULE
*****
 42 46 0 0 0
SMALL
GASTEIGER

@<TRIPOS>ATOM
      1 C           6.6246   -1.8809   30.6661 C.ar    1  UNL1        0.0040
      2 C           6.4646   -2.3685   32.0756 C.ar    1  UNL1        0.0719
      3 C           6.5142   -3.8675   32.0558 C.ar    1  UNL1        0.1049
      4 N           6.7048   -4.3064   30.6342 N.ar    1  UNL1       -0.2242
      5 N           6.8251   -5.6654   30.0108 N.ar    1  UNL1       -0.1422
      6 C           7.0136   -5.7965   28.5285 C.ar    1  UNL1        0.2211
      7 N           7.0818   -4.5687   27.6696 N.ar    1  UNL1       -0.2060
      8 C           6.9615   -3.2097   28.2930 C.ar    1  UNL1        0.1515
      9 C           6.7730   -3.0785   29.7752 C.ar    1  UNL1        0.1107
     10 C           6.2864   -1.5081   33.2913 C.ar    1  UNL1        0.2525
     11 N           7.2154   -0.4221   33.7468 N.ar    1  UNL1       -0.1057
     12 N           6.6510    0.1745   35.0020 N.ar    1  UNL1       -0.0923
     13 C           5.3731   -0.5428   35.3223 C.ar    1  UNL1        0.3086
     14 O           5.1478   -1.5827   34.2650 O.2     1  UNL1       -0.4048
     15 N           4.4778   -0.2684   36.4941 N.pl3   1  UNL1       -0.2871
     16 H           3.6380   -0.7710   36.6002 H       1  UNL1        0.1512
     17 C           4.8620    0.7719   37.5042 C.3     1  UNL1        0.0925
     18 C           3.8717    1.8212   37.9139 C.3     1  UNL1        0.0386
     19 C           2.4027    1.5192   37.8820 C.3     1  UNL1        0.0739
     20 N           1.4090    2.5925   38.2148 N.3     1  UNL1       -0.2703
     21 C           0.3861    2.3611   39.2872 C.3     1  UNL1        0.0897
     22 C           1.4382    3.8971   37.4751 C.3     1  UNL1        0.0897
     23 C           7.9334    0.2281   29.8982 C.3     1  UNL1        0.0047
     24 C           6.6344   -0.4472   30.2248 C.3     1  UNL1        0.0241
     25 C           5.3453    0.3110   30.1102 C.3     1  UNL1        0.0047
     26 N           7.0297   -1.9818   27.4340 N.pl3   1  UNL1       -0.2949
     27 H           7.7735   -1.3460   27.5424 H       1  UNL1        0.1537
     28 C           5.9647   -1.7227   26.4101 C.ar    1  UNL1        0.0775
     29 C           4.8359   -0.7856   26.7226 C.ar    1  UNL1        0.0237
     30 C           3.7709   -0.5265   25.6986 C.ar    1  UNL1        0.0821
     31 C           3.8345   -1.2045   24.3621 C.ar    1  UNL1        0.1468
     32 F           2.7694   -0.9454   23.3381 F       1  UNL1       -0.2039
     33 C           4.9633   -2.1416   24.0496 C.ar    1  UNL1        0.0607
     34 C           6.0284   -2.4008   25.0736 C.ar    1  UNL1        0.1557
     35 F           7.1571   -3.3379   24.7611 F       1  UNL1       -0.2028
     36 C           2.6421    0.4107   26.0111 C.2     1  UNL1        0.2480
     37 O           2.4155    1.6230   25.1573 O.2     1  UNL1       -0.2701
     38 N           1.7399    0.1356   27.1774 N.am    1  UNL1       -0.3024
     39 H           1.8886   -0.6601   27.7378 H       1  UNL1        0.1497
     40 C           0.6111    1.0727   27.4900 C.3     1  UNL1        0.0720
     41 C          -0.7018    1.6949   27.1170 C.3     1  UNL1        0.0213
     42 C          -0.0310    2.0736   28.4041 C.3     1  UNL1        0.0213
@<TRIPOS>BOND
     1    23    24    1
     2    24    25    1
     3    24     1    1
     4     1     2   ar
     5     2    10    1
     6    10    11   ar
     7    11    12   ar
     8    12    13   ar
     9    13    15    1
    10    15    17    1
    11    17    18    1
    12    18    19    1
    13    19    20    1
    14    20    21    1
    15    20    22    1
    16    13    14   ar
    17     2     3   ar
    18     3     4   ar
    19     4     5   ar
    20     5     6   ar
    21     6     7   ar
    22     7     8   ar
    23     8    26    1
    24    26    28    1
    25    28    29   ar
    26    29    30   ar
    27    30    36    1
    28    36    37    2
    29    36    38   am
    30    38    40    1
    31    40    41    1
    32    41    42    1
    33    30    31   ar
    34    31    32    1
    35    31    33   ar
    36    33    34   ar
    37    34    35    1
    38     8     9   ar
    39     9     1   ar
    40    14    10   ar
    41     9     4   ar
    42    34    28   ar
    43    42    40    1
    44    15    16    1
    45    26    27    1
    46    38    39    1
@<TRIPOS>MOLECULE
*****
 42 46 0 0 0
SMALL
GASTEIGER

@<TRIPOS>ATOM
      1 C           4.0739   -1.2460   23.1075 C.ar    1  UNL1        0.0040
      2 C           4.5153   -2.5194   22.4491 C.ar    1  UNL1        0.0719
      3 C           3.7171   -2.6914   21.1908 C.ar    1  UNL1        0.1049
      4 N           2.7824   -1.5243   21.0716 N.ar    1  UNL1       -0.2242
      5 N           1.7589   -1.1597   20.0374 N.ar    1  UNL1       -0.1422
      6 C           0.9560    0.0984   20.1878 C.ar    1  UNL1        0.2211
      7 N           1.1765    0.9917   21.3725 N.ar    1  UNL1       -0.2060
      8 C           2.1999    0.6270   22.4067 C.ar    1  UNL1        0.1515
      9 C           3.0029   -0.6310   22.2562 C.ar    1  UNL1        0.1107
     10 C           5.5698   -3.4563   22.9593 C.ar    1  UNL1        0.2525
     11 N           6.5047   -4.2738   22.1181 N.ar    1  UNL1       -0.1057
     12 N           7.3872   -5.0630   23.0392 N.ar    1  UNL1       -0.0923
     13 C           6.9977   -4.7332   24.4497 C.ar    1  UNL1        0.3086
     14 O           5.8745   -3.7402   24.4003 O.2     1  UNL1       -0.4048
     15 N           7.6218   -5.2973   25.6916 N.pl3   1  UNL1       -0.2871
     16 H           8.4190   -4.8695   26.0798 H       1  UNL1        0.1512
     17 C           7.0313   -6.5132   26.3420 C.3     1  UNL1        0.0925
     18 C           7.8952   -7.4114   27.1767 C.3     1  UNL1        0.0386
     19 C           8.5705   -6.8740   28.4036 C.3     1  UNL1        0.0739
     20 N           8.1078   -5.5821   29.0095 N.3     1  UNL1       -0.2703
     21 C           8.9208   -4.3348   28.8275 C.3     1  UNL1        0.0897
     22 C           6.8321   -5.5377   29.7973 C.3     1  UNL1        0.0897
     23 C           4.1048   -1.2063   25.7052 C.3     1  UNL1        0.0047
     24 C           4.6094   -0.6859   24.3918 C.3     1  UNL1        0.0241
     25 C           5.6495    0.3944   24.3630 C.3     1  UNL1        0.0047
     26 N           2.4204    1.5203   23.5913 N.pl3   1  UNL1       -0.2949
     27 H           3.2269    2.0829   23.6402 H       1  UNL1        0.1537
     28 C           1.4123    1.5565   24.7013 C.ar    1  UNL1        0.0775
     29 C           1.7669    1.0149   26.0545 C.ar    1  UNL1        0.0237
     30 C           0.7587    1.0510   27.1646 C.ar    1  UNL1        0.0821
     31 C          -0.6041    1.6288   26.9215 C.ar    1  UNL1        0.1468
     32 F          -1.6123    1.6649   28.0317 F       1  UNL1       -0.2039
     33 C          -0.9587    2.1703   25.5684 C.ar    1  UNL1        0.0607
     34 C           0.0495    2.1342   24.4583 C.ar    1  UNL1        0.1557
     35 F          -0.3051    2.6758   23.1052 F       1  UNL1       -0.2028
     36 C           1.1133    0.5094   28.5177 C.2     1  UNL1        0.2480
     37 O           0.1571   -0.3945   29.2379 O.2     1  UNL1       -0.2701
     38 N           2.4240    0.8719   29.1507 N.am    1  UNL1       -0.3024
     39 H           3.0515    1.4652   28.6780 H       1  UNL1        0.1497
     40 C           2.7786    0.3303   30.5038 C.3     1  UNL1        0.0720
     41 C           2.9228    0.5253   31.9841 C.3     1  UNL1        0.0213
     42 C           3.2486   -0.8026   31.3673 C.3     1  UNL1        0.0213
@<TRIPOS>BOND
     1    23    24    1
     2    24    25    1
     3    24     1    1
     4     1     2   ar
     5     2    10    1
     6    10    11   ar
     7    11    12   ar
     8    12    13   ar
     9    13    15    1
    10    15    17    1
    11    17    18    1
    12    18    19    1
    13    19    20    1
    14    20    21    1
    15    20    22    1
    16    13    14   ar
    17     2     3   ar
    18     3     4   ar
    19     4     5   ar
    20     5     6   ar
    21     6     7   ar
    22     7     8   ar
    23     8    26    1
    24    26    28    1
    25    28    29   ar
    26    29    30   ar
    27    30    36    1
    28    36    37    2
    29    36    38   am
    30    38    40    1
    31    40    41    1
    32    41    42    1
    33    30    31   ar
    34    31    32    1
    35    31    33   ar
    36    33    34   ar
    37    34    35    1
    38     8     9   ar
    39     9     1   ar
    40    14    10   ar
    41     9     4   ar
    42    34    28   ar
    43    42    40    1
    44    15    16    1
    45    26    27    1
    46    38    39    1
