@<TRIPOS>MOLECULE
*****
 41 46 0 0 0
SMALL
GASTEIGER

@<TRIPOS>ATOM
      1 C           4.0771   -0.0995   33.5346 C.2     1  UNL1        0.2301
      2 O           3.9506   -1.4551   34.1643 O.2     1  UNL1       -0.2745
      3 N           3.6640    0.1059   32.1073 N.am    1  UNL1       -0.2793
      4 C           3.1244   -1.0442   31.3097 C.3     1  UNL1        0.0935
      5 C           2.7114   -0.8387   29.8825 C.3     1  UNL1        0.0242
      6 C           2.8378    0.5168   29.2528 C.3     1  UNL1        0.0328
      7 C           3.3773    1.6669   30.0504 C.3     1  UNL1        0.0242
      8 C           3.7904    1.4615   31.4776 C.3     1  UNL1        0.0935
      9 C           2.2738   -0.3608   28.1750 C.3     1  UNL1        0.0737
     10 N           2.2536    0.8074   27.2342 N.3     1  UNL1       -0.2702
     11 C           2.8175    1.6850   28.3121 C.3     1  UNL1        0.0737
     12 C           1.8405    1.0129   25.8070 C.3     1  UNL1        0.0801
     13 C           0.7739    1.9505   25.3241 C.3     1  UNL1        0.0251
     14 C           0.6956    1.8339   23.8307 C.3     1  UNL1        0.0278
     15 C           1.7139    0.8243   23.3906 C.ar    1  UNL1       -0.0248
     16 C           2.0883    0.3014   22.0355 C.ar    1  UNL1       -0.0030
     17 C           3.1703   -0.7289   21.9018 C.ar    1  UNL1        0.0174
     18 C           3.8778   -1.2363   23.1232 C.ar    1  UNL1        0.0012
     19 C           3.5034   -0.7135   24.4783 C.ar    1  UNL1       -0.0032
     20 C           2.4214    0.3169   24.6121 C.ar    1  UNL1       -0.0117
     21 C           3.5446   -1.2518   20.5466 C.ar    1  UNL1        0.0842
     22 C           3.8251   -2.7132   20.3576 C.ar    1  UNL1        0.0339
     23 C           4.1994   -3.2359   19.0025 C.ar    1  UNL1        0.0626
     24 C           4.4799   -4.6973   18.8135 C.3     1  UNL1        0.0522
     25 N           4.2933   -2.2973   17.8361 N.ar    1  UNL1       -0.2283
     26 C           4.0128   -0.8359   18.0251 C.ar    1  UNL1        0.1985
     27 N           3.6385   -0.3132   19.3803 N.ar    1  UNL1       -0.2240
     28 C           4.6166    1.0506   34.3322 C.3     1  UNL1        0.1117
     29 C           2.7770    2.0934   38.3044 C.ar    1  UNL1        0.1389
     30 C           3.9168    1.1206   38.2381 C.ar    1  UNL1        0.0366
     31 C           4.5300    0.7730   36.9140 C.ar    1  UNL1       -0.0005
     32 C           4.0034    1.3982   35.6563 C.ar    1  UNL1       -0.0085
     33 C           2.8635    2.3710   35.7227 C.ar    1  UNL1        0.0527
     34 C           2.2504    2.7186   37.0467 C.ar    1  UNL1        0.0411
     35 C           2.3369    2.9962   34.4650 C.2     1  UNL1        0.2426
     36 N           1.2768    2.2969   33.6668 N.am    1  UNL1       -0.3253
     37 O           2.8703    4.3207   34.0055 O.2     1  UNL1       -0.2704
     38 H           0.9267    1.4276   33.9683 H       1  UNL1        0.1453
     39 H           0.9312    2.7073   32.8413 H       1  UNL1        0.1453
     40 C           0.7329    2.0882   39.9081 C.3     1  UNL1        0.2525
     41 O           2.1638    2.4411   39.6285 O.3     1  UNL1       -0.4714
@<TRIPOS>BOND
     1    40    41    1
     2    41    29    1
     3    29    30   ar
     4    30    31   ar
     5    31    32   ar
     6    32    28    1
     7    28     1    1
     8     1     2    2
     9     1     3   am
    10     3     4    1
    11     4     5    1
    12     5     6    1
    13     6     7    1
    14     7     8    1
    15     6     9    1
    16     9    10    1
    17    12    10    1
    18    12    13    1
    19    13    14    1
    20    14    15    1
    21    15    16   ar
    22    16    17   ar
    23    17    21    1
    24    21    22   ar
    25    22    23   ar
    26    23    24    1
    27    23    25   ar
    28    25    26   ar
    29    26    27   ar
    30    17    18   ar
    31    18    19   ar
    32    19    20   ar
    33    10    11    1
    34    32    33   ar
    35    33    35    1
    36    35    36   am
    37    35    37    2
    38    33    34   ar
    39    34    29   ar
    40     8     3    1
    41    20    12    1
    42    11     6    1
    43    20    15   ar
    44    27    21   ar
    45    36    38    1
    46    36    39    1
@<TRIPOS>MOLECULE
*****
 41 46 0 0 0
SMALL
GASTEIGER

@<TRIPOS>ATOM
      1 C           6.6609   -3.3922   21.6943 C.2     1  UNL1        0.2301
      2 O           6.9873   -4.6322   20.9160 O.2     1  UNL1       -0.2745
      3 N           6.6414   -3.4312   23.1938 N.am    1  UNL1       -0.2793
      4 C           6.9483   -4.7103   23.9148 C.3     1  UNL1        0.0935
      5 C           6.9288   -4.7492   25.4141 C.3     1  UNL1        0.0242
      6 C           6.6024   -3.5092   26.1924 C.3     1  UNL1        0.0328
      7 C           6.2955   -2.2302   25.4714 C.3     1  UNL1        0.0242
      8 C           6.3150   -2.1912   23.9721 C.3     1  UNL1        0.0935
      9 C           6.8471   -4.5652   27.2293 C.3     1  UNL1        0.0737
     10 N           6.5748   -3.5644   28.3129 N.3     1  UNL1       -0.2702
     11 C           6.3300   -2.5084   27.2761 C.3     1  UNL1        0.0737
     12 C           6.5553   -3.6034   29.8123 C.3     1  UNL1        0.0801
     13 C           7.1344   -4.6863   30.6737 C.3     1  UNL1        0.0251
     14 C           6.8903   -4.3185   32.1072 C.3     1  UNL1        0.0278
     15 C           6.1603   -3.0083   32.1318 C.ar    1  UNL1       -0.0248
     16 C           5.6574   -2.1606   33.2625 C.ar    1  UNL1       -0.0030
     17 C           4.9475   -0.8710   32.9748 C.ar    1  UNL1        0.0174
     18 C           4.7405   -0.4290   31.5564 C.ar    1  UNL1        0.0012
     19 C           5.2434   -1.2767   30.4258 C.ar    1  UNL1       -0.0032
     20 C           5.9533   -2.5664   30.7134 C.ar    1  UNL1       -0.0117
     21 C           4.4446   -0.0233   34.1056 C.ar    1  UNL1        0.0842
     22 C           3.5659    1.1592   33.8234 C.ar    1  UNL1        0.0339
     23 C           3.0631    2.0068   34.9541 C.ar    1  UNL1        0.0626
     24 C           2.1845    3.1893   34.6719 C.3     1  UNL1        0.0522
     25 N           3.4389    1.6719   36.3672 N.ar    1  UNL1       -0.2283
     26 C           4.3175    0.4894   36.6494 C.ar    1  UNL1        0.1985
     27 N           4.8203   -0.3582   35.5186 N.ar    1  UNL1       -0.2240
     28 C           6.3540   -2.1132   20.9733 C.3     1  UNL1        0.1117
     29 C           2.0791   -0.8758   20.3071 C.ar    1  UNL1        0.1389
     30 C           2.8100   -0.4175   21.5341 C.ar    1  UNL1        0.0366
     31 C           4.2349   -0.8299   21.7562 C.ar    1  UNL1       -0.0005
     32 C           4.9290   -1.7007   20.7512 C.ar    1  UNL1       -0.0085
     33 C           4.1981   -2.1591   19.5242 C.ar    1  UNL1        0.0527
     34 C           2.7731   -1.7466   19.3021 C.ar    1  UNL1        0.0411
     35 C           4.8921   -3.0299   18.5192 C.2     1  UNL1        0.2426
     36 N           4.6906   -4.5160   18.5483 N.am    1  UNL1       -0.3253
     37 O           5.7877   -2.4147   17.4851 O.2     1  UNL1       -0.2704
     38 H           4.1028   -4.9199   19.2271 H       1  UNL1        0.1453
     39 H           5.1462   -5.0875   17.8887 H       1  UNL1        0.1453
     40 C           0.2092    0.9225   20.4476 C.3     1  UNL1        0.2525
     41 O           0.6541   -0.4634   20.0850 O.3     1  UNL1       -0.4714
@<TRIPOS>BOND
     1    40    41    1
     2    41    29    1
     3    29    30   ar
     4    30    31   ar
     5    31    32   ar
     6    32    28    1
     7    28     1    1
     8     1     2    2
     9     1     3   am
    10     3     4    1
    11     4     5    1
    12     5     6    1
    13     6     7    1
    14     7     8    1
    15     6     9    1
    16     9    10    1
    17    12    10    1
    18    12    13    1
    19    13    14    1
    20    14    15    1
    21    15    16   ar
    22    16    17   ar
    23    17    21    1
    24    21    22   ar
    25    22    23   ar
    26    23    24    1
    27    23    25   ar
    28    25    26   ar
    29    26    27   ar
    30    17    18   ar
    31    18    19   ar
    32    19    20   ar
    33    10    11    1
    34    32    33   ar
    35    33    35    1
    36    35    36   am
    37    35    37    2
    38    33    34   ar
    39    34    29   ar
    40     8     3    1
    41    20    12    1
    42    11     6    1
    43    20    15   ar
    44    27    21   ar
    45    36    38    1
    46    36    39    1
@<TRIPOS>MOLECULE
*****
 41 46 0 0 0
SMALL
GASTEIGER

@<TRIPOS>ATOM
      1 C           5.2113    1.3511   36.2373 C.2     1  UNL1        0.2301
      2 O           6.3005    2.2449   36.7520 O.2     1  UNL1       -0.2745
      3 N           5.5125    0.3389   35.1720 N.am    1  UNL1       -0.2793
      4 C           6.9028    0.2206   34.6214 C.3     1  UNL1        0.0935
      5 C           7.2039   -0.7916   33.5561 C.3     1  UNL1        0.0242
      6 C           6.1148   -1.6853   33.0414 C.3     1  UNL1        0.0328
      7 C           4.7245   -1.5670   33.5920 C.3     1  UNL1        0.0242
      8 C           4.4234   -0.5549   34.6572 C.3     1  UNL1        0.0935
      9 C           7.3399   -2.0845   32.2735 C.3     1  UNL1        0.0737
     10 N           6.5407   -3.1168   31.5348 N.3     1  UNL1       -0.2702
     11 C           5.3156   -2.7176   32.3027 C.3     1  UNL1        0.0737
     12 C           6.8418   -4.1289   30.4695 C.3     1  UNL1        0.0801
     13 C           7.2741   -5.5470   30.6977 C.3     1  UNL1        0.0251
     14 C           7.4630   -6.1952   29.3582 C.3     1  UNL1        0.0278
     15 C           7.1475   -5.1777   28.3023 C.ar    1  UNL1       -0.0248
     16 C           7.1601   -5.2490   26.8040 C.ar    1  UNL1       -0.0030
     17 C           6.7889   -4.0433   25.9926 C.ar    1  UNL1        0.0174
     18 C           6.4050   -2.7663   26.6795 C.ar    1  UNL1        0.0012
     19 C           6.3923   -2.6949   28.1776 C.ar    1  UNL1       -0.0032
     20 C           6.7636   -3.9007   28.9891 C.ar    1  UNL1       -0.0117
     21 C           6.8016   -4.1147   24.4943 C.ar    1  UNL1        0.0842
     22 C           5.6326   -3.5985   23.7089 C.ar    1  UNL1        0.0339
     23 C           5.6453   -3.6699   22.2107 C.ar    1  UNL1        0.0626
     24 C           4.4763   -3.1537   21.4253 C.3     1  UNL1        0.0522
     25 N           6.8271   -4.2576   21.4978 N.ar    1  UNL1       -0.2283
     26 C           7.9961   -4.7738   22.2833 C.ar    1  UNL1        0.1985
     27 N           7.9834   -4.7023   23.7815 N.ar    1  UNL1       -0.2240
     28 C           3.8211    1.4695   36.7878 C.3     1  UNL1        0.1117
     29 C           1.3173    5.0808   35.8188 C.ar    1  UNL1        0.1389
     30 C           2.2902    4.5496   34.8082 C.ar    1  UNL1        0.0366
     31 C           3.1247    3.3459   35.1313 C.ar    1  UNL1       -0.0005
     32 C           2.9864    2.6733   36.4648 C.ar    1  UNL1       -0.0085
     33 C           2.0135    3.2044   37.4754 C.ar    1  UNL1        0.0527
     34 C           1.1790    4.4082   37.1524 C.ar    1  UNL1        0.0411
     35 C           1.8752    2.5318   38.8090 C.2     1  UNL1        0.2426
     36 N           0.9052    1.4008   38.9816 N.am    1  UNL1       -0.3253
     37 O           2.7069    2.9902   39.9701 O.2     1  UNL1       -0.2704
     38 H           0.3593    1.0999   38.2195 H       1  UNL1        0.1453
     39 H           0.8145    0.9593   39.8568 H       1  UNL1        0.1453
     40 C          -0.4794    6.8248   36.5120 C.3     1  UNL1        0.2525
     41 O           0.4826    6.2846   35.4958 O.3     1  UNL1       -0.4714
@<TRIPOS>BOND
     1    40    41    1
     2    41    29    1
     3    29    30   ar
     4    30    31   ar
     5    31    32   ar
     6    32    28    1
     7    28     1    1
     8     1     2    2
     9     1     3   am
    10     3     4    1
    11     4     5    1
    12     5     6    1
    13     6     7    1
    14     7     8    1
    15     6     9    1
    16     9    10    1
    17    12    10    1
    18    12    13    1
    19    13    14    1
    20    14    15    1
    21    15    16   ar
    22    16    17   ar
    23    17    21    1
    24    21    22   ar
    25    22    23   ar
    26    23    24    1
    27    23    25   ar
    28    25    26   ar
    29    26    27   ar
    30    17    18   ar
    31    18    19   ar
    32    19    20   ar
    33    10    11    1
    34    32    33   ar
    35    33    35    1
    36    35    36   am
    37    35    37    2
    38    33    34   ar
    39    34    29   ar
    40     8     3    1
    41    20    12    1
    42    11     6    1
    43    20    15   ar
    44    27    21   ar
    45    36    38    1
    46    36    39    1
@<TRIPOS>MOLECULE
*****
 41 46 0 0 0
SMALL
GASTEIGER

@<TRIPOS>ATOM
      1 C           1.9110    0.9670   24.0365 C.2     1  UNL1        0.2301
      2 O           0.4784    1.2789   23.7196 O.2     1  UNL1       -0.2745
      3 N           2.3129    0.6355   25.4431 N.am    1  UNL1       -0.2793
      4 C           1.2823    0.6158   26.5328 C.3     1  UNL1        0.0935
      5 C           1.6843    0.2842   27.9393 C.3     1  UNL1        0.0242
      6 C           3.1169   -0.0277   28.2562 C.3     1  UNL1        0.0328
      7 C           4.1475   -0.0080   27.1666 C.3     1  UNL1        0.0242
      8 C           3.7455    0.3236   25.7600 C.3     1  UNL1        0.0935
      9 C           2.3955   -0.1428   29.5664 C.3     1  UNL1        0.0737
     10 N           3.6853   -0.4966   30.2456 N.3     1  UNL1       -0.2702
     11 C           4.4067   -0.3814   28.9354 C.3     1  UNL1        0.0737
     12 C           4.0873   -0.8281   31.6521 C.3     1  UNL1        0.0801
     13 C           4.8199   -2.0608   32.0924 C.3     1  UNL1        0.0251
     14 C           5.0126   -1.9797   33.5777 C.3     1  UNL1        0.0278
     15 C           4.3991   -0.6970   34.0554 C.ar    1  UNL1       -0.0248
     16 C           4.2873   -0.0851   35.4204 C.ar    1  UNL1       -0.0030
     17 C           3.6036    1.2385   35.5952 C.ar    1  UNL1        0.0174
     18 C           3.0317    1.9502   34.4051 C.ar    1  UNL1        0.0012
     19 C           3.1435    1.3383   33.0402 C.ar    1  UNL1       -0.0032
     20 C           3.8272    0.0147   32.8653 C.ar    1  UNL1       -0.0117
     21 C           3.4918    1.8503   36.9602 C.ar    1  UNL1        0.0842
     22 C           4.7260    2.0890   37.7786 C.ar    1  UNL1        0.0339
     23 C           4.6142    2.7008   39.1435 C.ar    1  UNL1        0.0626
     24 C           5.8484    2.9394   39.9618 C.3     1  UNL1        0.0522
     25 N           3.2681    3.0741   39.6901 N.ar    1  UNL1       -0.2283
     26 C           2.0339    2.8354   38.8718 C.ar    1  UNL1        0.1985
     27 N           2.1458    2.2236   37.5068 N.ar    1  UNL1       -0.2240
     28 C           2.9416    0.9867   22.9468 C.3     1  UNL1        0.1117
     29 C           3.2638   -2.4766   20.0917 C.ar    1  UNL1        0.1389
     30 C           4.0378   -2.4893   21.3765 C.ar    1  UNL1        0.0366
     31 C           3.9304   -1.3349   22.3282 C.ar    1  UNL1       -0.0005
     32 C           3.0490   -0.1677   21.9951 C.ar    1  UNL1       -0.0085
     33 C           2.2750   -0.1551   20.7103 C.ar    1  UNL1        0.0527
     34 C           2.3824   -1.3095   19.7586 C.ar    1  UNL1        0.0411
     35 C           1.3936    1.0121   20.3772 C.2     1  UNL1        0.2426
     36 N          -0.0406    1.0182   20.8164 N.am    1  UNL1       -0.3253
     37 O           1.9464    2.1730   19.6048 O.2     1  UNL1       -0.2704
     38 H          -0.4034    0.2562   21.3233 H       1  UNL1        0.1453
     39 H          -0.6191    1.7842   20.5978 H       1  UNL1        0.1453
     40 C           4.6553   -4.3992   19.0346 C.3     1  UNL1        0.2525
     41 O           3.3712   -3.6310   19.1400 O.3     1  UNL1       -0.4714
@<TRIPOS>BOND
     1    40    41    1
     2    41    29    1
     3    29    30   ar
     4    30    31   ar
     5    31    32   ar
     6    32    28    1
     7    28     1    1
     8     1     2    2
     9     1     3   am
    10     3     4    1
    11     4     5    1
    12     5     6    1
    13     6     7    1
    14     7     8    1
    15     6     9    1
    16     9    10    1
    17    12    10    1
    18    12    13    1
    19    13    14    1
    20    14    15    1
    21    15    16   ar
    22    16    17   ar
    23    17    21    1
    24    21    22   ar
    25    22    23   ar
    26    23    24    1
    27    23    25   ar
    28    25    26   ar
    29    26    27   ar
    30    17    18   ar
    31    18    19   ar
    32    19    20   ar
    33    10    11    1
    34    32    33   ar
    35    33    35    1
    36    35    36   am
    37    35    37    2
    38    33    34   ar
    39    34    29   ar
    40     8     3    1
    41    20    12    1
    42    11     6    1
    43    20    15   ar
    44    27    21   ar
    45    36    38    1
    46    36    39    1
@<TRIPOS>MOLECULE
*****
 41 46 0 0 0
SMALL
GASTEIGER

@<TRIPOS>ATOM
      1 C           3.1162    0.1831   31.5223 C.2     1  UNL1        0.2301
      2 O           3.1779   -1.2976   31.7541 O.2     1  UNL1       -0.2745
      3 N           2.1822    0.7424   30.4904 N.am    1  UNL1       -0.2793
      4 C           1.3099   -0.1790   29.6903 C.3     1  UNL1        0.0935
      5 C           0.3760    0.3804   28.6584 C.3     1  UNL1        0.0242
      6 C           0.3143    1.8611   28.4266 C.3     1  UNL1        0.0328
      7 C           1.1865    2.7824   29.2267 C.3     1  UNL1        0.0242
      8 C           2.1205    2.2231   30.2586 C.3     1  UNL1        0.0935
      9 C          -0.6771    1.2760   27.4649 C.3     1  UNL1        0.0737
     10 N          -1.0066    2.6521   26.9672 N.3     1  UNL1       -0.2702
     11 C          -0.0153    3.2372   27.9289 C.3     1  UNL1        0.0737
     12 C          -1.9405    3.2115   25.9353 C.3     1  UNL1        0.0801
     13 C          -3.2615    3.8688   26.2056 C.3     1  UNL1        0.0251
     14 C          -3.8549    4.2753   24.8893 C.3     1  UNL1        0.0278
     15 C          -2.9007    3.8692   23.8056 C.ar    1  UNL1       -0.0248
     16 C          -2.9563    4.0131   22.3135 C.ar    1  UNL1       -0.0030
     17 C          -1.8288    3.4996   21.4680 C.ar    1  UNL1        0.0174
     18 C          -0.6457    2.8421   22.1145 C.ar    1  UNL1        0.0012
     19 C          -0.5901    2.6982   23.6064 C.ar    1  UNL1       -0.0032
     20 C          -1.7176    3.2117   24.4521 C.ar    1  UNL1       -0.0117
     21 C          -1.8844    3.6435   19.9759 C.ar    1  UNL1        0.0842
     22 C          -3.2030    3.8480   19.2907 C.ar    1  UNL1        0.0339
     23 C          -3.2586    3.9919   17.7988 C.ar    1  UNL1        0.0626
     24 C          -4.5772    4.1964   17.1136 C.3     1  UNL1        0.0522
     25 N          -1.9956    3.9315   16.9918 N.ar    1  UNL1       -0.2283
     26 C          -0.6770    3.7270   17.6770 C.ar    1  UNL1        0.1985
     27 N          -0.6214    3.5831   19.1690 N.ar    1  UNL1       -0.2240
     28 C           3.9884    1.1044   32.3225 C.3     1  UNL1        0.1117
     29 C           3.6458    1.1962   36.8084 C.ar    1  UNL1        0.1389
     30 C           2.7867    2.0975   35.9721 C.ar    1  UNL1        0.0366
     31 C           2.9010    2.0669   34.4768 C.ar    1  UNL1       -0.0005
     32 C           3.8743    1.1350   33.8178 C.ar    1  UNL1       -0.0085
     33 C           4.7333    0.2336   34.6542 C.ar    1  UNL1        0.0527
     34 C           4.6191    0.2642   36.1495 C.ar    1  UNL1        0.0411
     35 C           5.7066   -0.6983   33.9952 C.2     1  UNL1        0.2426
     36 N           5.2532   -2.0504   33.5304 N.am    1  UNL1       -0.3253
     37 O           7.1334   -0.2781   33.8011 O.2     1  UNL1       -0.2704
     38 H           4.3167   -2.3262   33.6579 H       1  UNL1        0.1453
     39 H           5.8920   -2.6620   33.0980 H       1  UNL1        0.1453
     40 C           2.1798    1.2770   38.9519 C.3     1  UNL1        0.2525
     41 O           3.5316    1.2267   38.3038 O.3     1  UNL1       -0.4714
@<TRIPOS>BOND
     1    40    41    1
     2    41    29    1
     3    29    30   ar
     4    30    31   ar
     5    31    32   ar
     6    32    28    1
     7    28     1    1
     8     1     2    2
     9     1     3   am
    10     3     4    1
    11     4     5    1
    12     5     6    1
    13     6     7    1
    14     7     8    1
    15     6     9    1
    16     9    10    1
    17    12    10    1
    18    12    13    1
    19    13    14    1
    20    14    15    1
    21    15    16   ar
    22    16    17   ar
    23    17    21    1
    24    21    22   ar
    25    22    23   ar
    26    23    24    1
    27    23    25   ar
    28    25    26   ar
    29    26    27   ar
    30    17    18   ar
    31    18    19   ar
    32    19    20   ar
    33    10    11    1
    34    32    33   ar
    35    33    35    1
    36    35    36   am
    37    35    37    2
    38    33    34   ar
    39    34    29   ar
    40     8     3    1
    41    20    12    1
    42    11     6    1
    43    20    15   ar
    44    27    21   ar
    45    36    38    1
    46    36    39    1
@<TRIPOS>MOLECULE
*****
 41 46 0 0 0
SMALL
GASTEIGER

@<TRIPOS>ATOM
      1 C           7.2180   -4.8479   26.5506 C.2     1  UNL1        0.2301
      2 O           6.5322   -6.1791   26.4641 O.2     1  UNL1       -0.2745
      3 N           7.3693   -4.1670   27.8786 N.am    1  UNL1       -0.2793
      4 C           6.8348   -4.8175   29.1201 C.3     1  UNL1        0.0935
      5 C           6.9862   -4.1367   30.4480 C.3     1  UNL1        0.0242
      6 C           7.6719   -2.8054   30.5346 C.3     1  UNL1        0.0328
      7 C           8.2064   -2.1550   29.2931 C.3     1  UNL1        0.0242
      8 C           8.0551   -2.8358   27.9651 C.3     1  UNL1        0.0935
      9 C           7.2808   -3.1330   31.9451 C.3     1  UNL1        0.0737
     10 N           7.8859   -1.8426   32.4127 N.3     1  UNL1       -0.2702
     11 C           8.2771   -1.5150   31.0022 C.3     1  UNL1        0.0737
     12 C           8.0373   -1.1617   33.7407 C.3     1  UNL1        0.0801
     13 C           9.3177   -0.9912   34.5032 C.3     1  UNL1        0.0251
     14 C           9.0065   -0.2560   35.7731 C.3     1  UNL1        0.0278
     15 C           7.5338    0.0278   35.7954 C.ar    1  UNL1       -0.0248
     16 C           6.6608    0.7237   36.7972 C.ar    1  UNL1       -0.0030
     17 C           5.1888    0.8597   36.5430 C.ar    1  UNL1        0.0174
     18 C           4.5898    0.2999   35.2869 C.ar    1  UNL1        0.0012
     19 C           5.4627   -0.3959   34.2851 C.ar    1  UNL1       -0.0032
     20 C           6.9348   -0.5320   34.5393 C.ar    1  UNL1       -0.0117
     21 C           4.3159    1.5556   37.5449 C.ar    1  UNL1        0.0842
     22 C           3.0380    0.9150   37.9994 C.ar    1  UNL1        0.0339
     23 C           2.1652    1.6109   39.0013 C.ar    1  UNL1        0.0626
     24 C           0.8873    0.9702   39.4558 C.3     1  UNL1        0.0522
     25 N           2.5701    2.9475   39.5486 N.ar    1  UNL1       -0.2283
     26 C           3.8480    3.5881   39.0941 C.ar    1  UNL1        0.1985
     27 N           4.7208    2.8922   38.0922 N.ar    1  UNL1       -0.2240
     28 C           7.7524   -4.1974   25.3091 C.3     1  UNL1        0.1117
     29 C           4.9300   -2.9157   22.0471 C.ar    1  UNL1        0.1389
     30 C           4.6722   -2.5043   23.4663 C.ar    1  UNL1        0.0366
     31 C           5.6130   -2.9316   24.5536 C.ar    1  UNL1       -0.0005
     32 C           6.8116   -3.7702   24.2217 C.ar    1  UNL1       -0.0085
     33 C           7.0694   -4.1816   22.8025 C.ar    1  UNL1        0.0527
     34 C           6.1286   -3.7543   21.7151 C.ar    1  UNL1        0.0411
     35 C           8.2679   -5.0202   22.4705 C.2     1  UNL1        0.2426
     36 N           9.4594   -4.3961   21.8066 N.am    1  UNL1       -0.3253
     37 O           8.2750   -6.4829   22.8025 O.2     1  UNL1       -0.2704
     38 H           9.4548   -3.4360   21.5887 H       1  UNL1        0.1453
     39 H          10.2461   -4.9465   21.5888 H       1  UNL1        0.1453
     40 C           4.2484   -1.2223   20.1983 C.3     1  UNL1        0.2525
     41 O           3.9892   -2.4885   20.9597 O.3     1  UNL1       -0.4714
@<TRIPOS>BOND
     1    40    41    1
     2    41    29    1
     3    29    30   ar
     4    30    31   ar
     5    31    32   ar
     6    32    28    1
     7    28     1    1
     8     1     2    2
     9     1     3   am
    10     3     4    1
    11     4     5    1
    12     5     6    1
    13     6     7    1
    14     7     8    1
    15     6     9    1
    16     9    10    1
    17    12    10    1
    18    12    13    1
    19    13    14    1
    20    14    15    1
    21    15    16   ar
    22    16    17   ar
    23    17    21    1
    24    21    22   ar
    25    22    23   ar
    26    23    24    1
    27    23    25   ar
    28    25    26   ar
    29    26    27   ar
    30    17    18   ar
    31    18    19   ar
    32    19    20   ar
    33    10    11    1
    34    32    33   ar
    35    33    35    1
    36    35    36   am
    37    35    37    2
    38    33    34   ar
    39    34    29   ar
    40     8     3    1
    41    20    12    1
    42    11     6    1
    43    20    15   ar
    44    27    21   ar
    45    36    38    1
    46    36    39    1
@<TRIPOS>MOLECULE
*****
 41 46 0 0 0
SMALL
GASTEIGER

@<TRIPOS>ATOM
      1 C           7.0314   -4.0676   26.1482 C.2     1  UNL1        0.2301
      2 O           6.5450   -5.4737   25.9583 O.2     1  UNL1       -0.2745
      3 N           7.1881   -3.5085   27.5313 N.am    1  UNL1       -0.2793
      4 C           6.8583   -4.3556   28.7245 C.3     1  UNL1        0.0935
      5 C           7.0150   -3.7965   30.1075 C.3     1  UNL1        0.0242
      6 C           7.5015   -2.3903   30.2974 C.3     1  UNL1        0.0328
      7 C           7.8313   -1.5433   29.1042 C.3     1  UNL1        0.0242
      8 C           7.6746   -2.1023   27.7212 C.3     1  UNL1        0.0935
      9 C           7.2791   -2.9149   31.6850 C.3     1  UNL1        0.0737
     10 N           7.7231   -1.5997   32.2534 N.3     1  UNL1       -0.2702
     11 C           7.9456   -1.0751   30.8658 C.3     1  UNL1        0.0737
     12 C           7.8798   -1.0406   33.6364 C.3     1  UNL1        0.0801
     13 C           9.1474   -1.0133   34.4380 C.3     1  UNL1        0.0251
     14 C           8.8475   -0.3665   35.7577 C.3     1  UNL1        0.0278
     15 C           7.3946    0.0060   35.7718 C.ar    1  UNL1       -0.0248
     16 C           6.5388    0.6707   36.8090 C.ar    1  UNL1       -0.0030
     17 C           5.0850    0.9189   36.5351 C.ar    1  UNL1        0.0174
     18 C           4.4870    0.5022   35.2241 C.ar    1  UNL1        0.0012
     19 C           5.3427   -0.1625   34.1870 C.ar    1  UNL1       -0.0032
     20 C           6.7966   -0.4106   34.4607 C.ar    1  UNL1       -0.0117
     21 C           4.2293    1.5836   37.5724 C.ar    1  UNL1        0.0842
     22 C           2.9386    0.9494   37.9988 C.ar    1  UNL1        0.0339
     23 C           2.0830    1.6141   39.0360 C.ar    1  UNL1        0.0626
     24 C           0.7923    0.9799   39.4624 C.3     1  UNL1        0.0522
     25 N           2.5181    2.9132   39.6470 N.ar    1  UNL1       -0.2283
     26 C           3.8088    3.5475   39.2206 C.ar    1  UNL1        0.1985
     27 N           4.6644    2.8827   38.1833 N.ar    1  UNL1       -0.2240
     28 C           7.3612   -3.2205   24.9550 C.3     1  UNL1        0.1117
     29 C           4.4502   -2.9174   21.5369 C.ar    1  UNL1        0.1389
     30 C           5.6513   -3.8086   21.4223 C.ar    1  UNL1        0.0366
     31 C           6.6216   -3.9096   22.5617 C.ar    1  UNL1       -0.0005
     32 C           6.3908   -3.1194   23.8156 C.ar    1  UNL1       -0.0085
     33 C           5.1897   -2.2283   23.9302 C.ar    1  UNL1        0.0527
     34 C           4.2194   -2.1273   22.7908 C.ar    1  UNL1        0.0411
     35 C           4.9590   -1.4381   25.1842 C.2     1  UNL1        0.2426
     36 N           4.0483   -1.9717   26.2500 N.am    1  UNL1       -0.3253
     37 O           5.6389   -0.1144   25.3723 O.2     1  UNL1       -0.2704
     38 H           3.6021   -2.8405   26.1265 H       1  UNL1        0.1453
     39 H           3.8969   -1.4531   27.0730 H       1  UNL1        0.1453
     40 C           3.6236   -3.7184   19.2076 C.3     1  UNL1        0.2525
     41 O           3.4798   -2.8164   20.3975 O.3     1  UNL1       -0.4714
@<TRIPOS>BOND
     1    40    41    1
     2    41    29    1
     3    29    30   ar
     4    30    31   ar
     5    31    32   ar
     6    32    28    1
     7    28     1    1
     8     1     2    2
     9     1     3   am
    10     3     4    1
    11     4     5    1
    12     5     6    1
    13     6     7    1
    14     7     8    1
    15     6     9    1
    16     9    10    1
    17    12    10    1
    18    12    13    1
    19    13    14    1
    20    14    15    1
    21    15    16   ar
    22    16    17   ar
    23    17    21    1
    24    21    22   ar
    25    22    23   ar
    26    23    24    1
    27    23    25   ar
    28    25    26   ar
    29    26    27   ar
    30    17    18   ar
    31    18    19   ar
    32    19    20   ar
    33    10    11    1
    34    32    33   ar
    35    33    35    1
    36    35    36   am
    37    35    37    2
    38    33    34   ar
    39    34    29   ar
    40     8     3    1
    41    20    12    1
    42    11     6    1
    43    20    15   ar
    44    27    21   ar
    45    36    38    1
    46    36    39    1
@<TRIPOS>MOLECULE
*****
 41 46 0 0 0
SMALL
GASTEIGER

@<TRIPOS>ATOM
      1 C           3.2870    1.0213   23.4929 C.2     1  UNL1        0.2301
      2 O           4.4947    1.5434   22.7726 O.2     1  UNL1       -0.2745
      3 N           2.9009    1.5957   24.8238 N.am    1  UNL1       -0.2793
      4 C           3.7225    2.6921   25.4342 C.3     1  UNL1        0.0935
      5 C           3.3364    3.2665   26.7650 C.3     1  UNL1        0.0242
      6 C           2.1287    2.7444   27.4853 C.3     1  UNL1        0.0328
      7 C           1.3071    1.6480   26.8748 C.3     1  UNL1        0.0242
      8 C           1.6932    1.0736   25.5441 C.3     1  UNL1        0.0935
      9 C           2.6841    3.8113   28.3815 C.3     1  UNL1        0.0737
     10 N           1.5826    3.5567   29.3674 N.3     1  UNL1       -0.2702
     11 C           1.0272    2.4898   28.4712 C.3     1  UNL1        0.0737
     12 C           1.1965    4.1310   30.6982 C.3     1  UNL1        0.0801
     13 C           0.2338    5.2586   30.9260 C.3     1  UNL1        0.0251
     14 C           0.1476    5.5031   32.4034 C.3     1  UNL1        0.0278
     15 C           1.0570    4.5267   33.0887 C.ar    1  UNL1       -0.0248
     16 C           1.3786    4.3002   34.5362 C.ar    1  UNL1       -0.0030
     17 C           2.3485    3.2257   34.9298 C.ar    1  UNL1        0.0174
     18 C           2.9967    2.3778   33.8759 C.ar    1  UNL1        0.0012
     19 C           2.6751    2.6043   32.4284 C.ar    1  UNL1       -0.0032
     20 C           1.7053    3.6788   32.0348 C.ar    1  UNL1       -0.0117
     21 C           2.6700    2.9993   36.3773 C.ar    1  UNL1        0.0842
     22 C           4.0881    2.7566   36.8016 C.ar    1  UNL1        0.0339
     23 C           4.4096    2.5302   38.2491 C.ar    1  UNL1        0.0626
     24 C           5.8277    2.2875   38.6734 C.3     1  UNL1        0.0522
     25 N           3.3129    2.5464   39.2724 N.ar    1  UNL1       -0.2283
     26 C           1.8948    2.7891   38.8481 C.ar    1  UNL1        0.1985
     27 N           1.5734    3.0155   37.4006 N.ar    1  UNL1       -0.2240
     28 C           2.4654   -0.0751   22.8824 C.3     1  UNL1        0.1117
     29 C           4.4909   -3.5102   20.7975 C.ar    1  UNL1        0.1389
     30 C           4.7265   -3.2768   22.2603 C.ar    1  UNL1        0.0366
     31 C           4.0513   -2.1317   22.9553 C.ar    1  UNL1       -0.0005
     32 C           3.1406   -1.2202   22.1874 C.ar    1  UNL1       -0.0085
     33 C           2.9050   -1.4536   20.7245 C.ar    1  UNL1        0.0527
     34 C           3.5802   -2.5987   20.0296 C.ar    1  UNL1        0.0411
     35 C           1.9943   -0.5421   19.9567 C.2     1  UNL1        0.2426
     36 N           0.5146   -0.5819   20.1993 N.am    1  UNL1       -0.3253
     37 O           2.5633    0.4093   18.9461 O.2     1  UNL1       -0.2704
     38 H           0.1412   -1.2063   20.8625 H       1  UNL1        0.1453
     39 H          -0.0831    0.0164   19.6953 H       1  UNL1        0.1453
     40 C           4.6389   -5.1512   18.7886 C.3     1  UNL1        0.2525
     41 O           5.1662   -4.6553   20.1024 O.3     1  UNL1       -0.4714
@<TRIPOS>BOND
     1    40    41    1
     2    41    29    1
     3    29    30   ar
     4    30    31   ar
     5    31    32   ar
     6    32    28    1
     7    28     1    1
     8     1     2    2
     9     1     3   am
    10     3     4    1
    11     4     5    1
    12     5     6    1
    13     6     7    1
    14     7     8    1
    15     6     9    1
    16     9    10    1
    17    12    10    1
    18    12    13    1
    19    13    14    1
    20    14    15    1
    21    15    16   ar
    22    16    17   ar
    23    17    21    1
    24    21    22   ar
    25    22    23   ar
    26    23    24    1
    27    23    25   ar
    28    25    26   ar
    29    26    27   ar
    30    17    18   ar
    31    18    19   ar
    32    19    20   ar
    33    10    11    1
    34    32    33   ar
    35    33    35    1
    36    35    36   am
    37    35    37    2
    38    33    34   ar
    39    34    29   ar
    40     8     3    1
    41    20    12    1
    42    11     6    1
    43    20    15   ar
    44    27    21   ar
    45    36    38    1
    46    36    39    1
@<TRIPOS>MOLECULE
*****
 41 46 0 0 0
SMALL
GASTEIGER

@<TRIPOS>ATOM
      1 C           3.1819    0.1387   31.3887 C.2     1  UNL1        0.2301
      2 O           3.2681   -1.3458   31.5862 O.2     1  UNL1       -0.2745
      3 N           2.2017    0.7090   30.4068 N.am    1  UNL1       -0.2793
      4 C           1.3079   -0.2052   29.6223 C.3     1  UNL1        0.0935
      5 C           0.3278    0.3651   28.6405 C.3     1  UNL1        0.0242
      6 C           0.2416    1.8496   28.4430 C.3     1  UNL1        0.0328
      7 C           1.1354    2.7637   29.2274 C.3     1  UNL1        0.0242
      8 C           2.1155    2.1934   30.2093 C.3     1  UNL1        0.0935
      9 C          -0.7812    1.2736   27.5090 C.3     1  UNL1        0.0737
     10 N          -1.1446    2.6561   27.0543 N.3     1  UNL1       -0.2702
     11 C          -0.1218    3.2320   27.9883 C.3     1  UNL1        0.0737
     12 C          -2.1247    3.2264   26.0724 C.3     1  UNL1        0.0801
     13 C          -3.4596    3.8239   26.4052 C.3     1  UNL1        0.0251
     14 C          -4.1019    4.2662   25.1238 C.3     1  UNL1        0.0278
     15 C          -3.1639    3.9419   23.9992 C.ar    1  UNL1       -0.0248
     16 C          -3.2645    4.1488   22.5169 C.ar    1  UNL1       -0.0030
     17 C          -2.1432    3.7131   21.6210 C.ar    1  UNL1        0.0174
     18 C          -0.9212    3.0705   22.2073 C.ar    1  UNL1        0.0012
     19 C          -0.8205    2.8636   23.6894 C.ar    1  UNL1       -0.0032
     20 C          -1.9419    3.2993   24.5855 C.ar    1  UNL1       -0.0117
     21 C          -2.2439    3.9200   20.1387 C.ar    1  UNL1        0.0842
     22 C          -1.0195    4.2671   19.3448 C.ar    1  UNL1        0.0339
     23 C          -1.1203    4.4739   17.8627 C.ar    1  UNL1        0.0626
     24 C           0.1042    4.8210   17.0688 C.3     1  UNL1        0.0522
     25 N          -2.4456    4.3338   17.1742 N.ar    1  UNL1       -0.2283
     26 C          -3.6701    3.9867   17.9680 C.ar    1  UNL1        0.1985
     27 N          -3.5692    3.7798   19.4503 N.ar    1  UNL1       -0.2240
     28 C           4.0757    1.0528   32.1732 C.3     1  UNL1        0.1117
     29 C           4.0710    0.8904   36.6702 C.ar    1  UNL1        0.1389
     30 C           4.7792   -0.1713   35.8822 C.ar    1  UNL1        0.0366
     31 C           4.7807   -0.1172   34.3832 C.ar    1  UNL1       -0.0005
     32 C           4.0741    0.9987   33.6722 C.ar    1  UNL1       -0.0085
     33 C           3.3659    2.0605   34.4603 C.ar    1  UNL1        0.0527
     34 C           3.3643    2.0063   35.9593 C.ar    1  UNL1        0.0411
     35 C           2.6593    3.1764   33.7493 C.2     1  UNL1        0.2426
     36 N           1.1809    3.0953   33.5091 N.am    1  UNL1       -0.3253
     37 O           3.4310    4.3734   33.2786 O.2     1  UNL1       -0.2704
     38 H           0.6743    2.3097   33.8180 H       1  UNL1        0.1453
     39 H           0.7171    3.8277   33.0424 H       1  UNL1        0.1453
     40 C           2.8161    1.1537   38.9299 C.3     1  UNL1        0.2525
     41 O           4.0694    0.8363   38.1693 O.3     1  UNL1       -0.4714
@<TRIPOS>BOND
     1    40    41    1
     2    41    29    1
     3    29    30   ar
     4    30    31   ar
     5    31    32   ar
     6    32    28    1
     7    28     1    1
     8     1     2    2
     9     1     3   am
    10     3     4    1
    11     4     5    1
    12     5     6    1
    13     6     7    1
    14     7     8    1
    15     6     9    1
    16     9    10    1
    17    12    10    1
    18    12    13    1
    19    13    14    1
    20    14    15    1
    21    15    16   ar
    22    16    17   ar
    23    17    21    1
    24    21    22   ar
    25    22    23   ar
    26    23    24    1
    27    23    25   ar
    28    25    26   ar
    29    26    27   ar
    30    17    18   ar
    31    18    19   ar
    32    19    20   ar
    33    10    11    1
    34    32    33   ar
    35    33    35    1
    36    35    36   am
    37    35    37    2
    38    33    34   ar
    39    34    29   ar
    40     8     3    1
    41    20    12    1
    42    11     6    1
    43    20    15   ar
    44    27    21   ar
    45    36    38    1
    46    36    39    1
