@<TRIPOS>MOLECULE
*****
 28 30 0 0 0
SMALL
GASTEIGER

@<TRIPOS>ATOM
      1 C          -9.9228  -18.3506   22.7517 C.3     1  UNL1        0.0542
      2 C         -10.6536  -19.0507   21.6447 C.3     1  UNL1        0.0090
      3 C          -9.8997  -19.5567   20.4507 C.3     1  UNL1        0.0220
      4 C          -8.4148  -19.3625   20.3638 C.3     1  UNL1        0.0950
      5 N          -7.6840  -18.6624   21.4709 N.am    1  UNL1       -0.2636
      6 C          -6.1991  -18.4682   21.3840 C.2     1  UNL1        0.3077
      7 O          -5.4683  -17.7680   22.4911 O.2     1  UNL1       -0.2522
      8 N          -5.4451  -18.9741   20.1900 N.am    1  UNL1       -0.2681
      9 C          -8.4379  -18.1564   22.6648 C.3     1  UNL1        0.1004
     10 H          -5.9248  -19.4336   19.4634 H       1  UNL1        0.1564
     11 C          -3.9603  -18.7799   20.1032 C.ar    1  UNL1        0.0516
     12 C          -3.3792  -17.9114   19.0269 C.ar    1  UNL1        0.0156
     13 C          -1.8945  -17.7172   18.9401 C.ar    1  UNL1        0.0127
     14 C          -0.9907  -18.3913   19.9294 C.ar    1  UNL1        0.0578
     15 CL          0.4942  -18.1970   19.8426 Cl      1  UNL1       -0.0822
     16 C          -1.5717  -19.2597   21.0057 C.ar    1  UNL1        0.0127
     17 C          -3.0566  -19.4540   21.0925 C.ar    1  UNL1        0.0156
     18 C         -11.3227  -18.2949   23.2878 C.ar    1  UNL1        0.0599
     19 C         -12.4149  -17.6726   22.4695 C.ar    1  UNL1        0.0148
     20 C         -13.8147  -17.6169   23.0055 C.ar    1  UNL1        0.0028
     21 C         -14.1223  -18.1835   24.3599 C.ar    1  UNL1        0.0207
     22 C         -13.0300  -18.8059   25.1782 C.ar    1  UNL1        0.0984
     23 N         -11.6302  -18.8615   24.6421 N.ar    1  UNL1       -0.2481
     24 C          -9.6781  -17.6311   24.0450 C.3     1  UNL1        0.0131
     25 C          -9.3813  -16.1608   24.0407 C.3     1  UNL1        0.0421
     26 O          -7.2302  -14.7650   24.4583 O.co2   1  UNL1       -0.5492
     27 C          -8.3602  -15.5990   24.9851 C.2     1  UNL1        0.0503
     28 O          -8.4692  -15.8712   26.4561 O.co2   1  UNL1       -0.5492
@<TRIPOS>UNITY_ATOM_ATTR
26 1
charge -1
@<TRIPOS>BOND
     1    26    27   ar
     2    27    28   ar
     3    27    25    1
     4    25    24    1
     5    24     1    1
     6     1    18    1
     7    18    19   ar
     8    19    20   ar
     9    20    21   ar
    10    21    22   ar
    11    22    23   ar
    12     1     2    1
    13     2     3    1
    14     3     4    1
    15     4     5    1
    16     5     6   am
    17     6     7    2
    18     6     8   am
    19     8    11    1
    20    11    12   ar
    21    12    13   ar
    22    13    14   ar
    23    14    15    1
    24    14    16   ar
    25    16    17   ar
    26     5     9    1
    27     9     1    1
    28    23    18   ar
    29    17    11   ar
    30     8    10    1
@<TRIPOS>MOLECULE
*****
 28 30 0 0 0
SMALL
GASTEIGER

@<TRIPOS>ATOM
      1 C         -10.7598  -18.5388   23.2879 C.3     1  UNL1        0.0542
      2 C         -10.8493  -19.8217   24.0600 C.3     1  UNL1        0.0090
      3 C          -9.6547  -20.7237   24.1567 C.3     1  UNL1        0.0220
      4 C          -8.3707  -20.3428   23.4813 C.3     1  UNL1        0.0950
      5 N          -8.2812  -19.0600   22.7091 N.am    1  UNL1       -0.2636
      6 C          -6.9972  -18.6792   22.0336 C.2     1  UNL1        0.3077
      7 O          -6.9078  -17.3963   21.2615 O.2     1  UNL1       -0.2522
      8 N          -5.8026  -19.5812   22.1304 N.am    1  UNL1       -0.2681
      9 C          -9.4758  -18.1580   22.6124 C.3     1  UNL1        0.1004
     10 H          -5.8613  -20.4232   22.6371 H       1  UNL1        0.1564
     11 C          -4.5186  -19.2003   21.4549 C.ar    1  UNL1        0.0516
     12 C          -3.3900  -18.6257   22.2588 C.ar    1  UNL1        0.0156
     13 C          -2.1061  -18.2448   21.5835 C.ar    1  UNL1        0.0127
     14 C          -1.9506  -18.4384   20.1041 C.ar    1  UNL1        0.0578
     15 CL         -0.6666  -18.0574   19.4287 Cl      1  UNL1       -0.0822
     16 C          -3.0791  -19.0129   19.3002 C.ar    1  UNL1        0.0127
     17 C          -4.3632  -19.3939   19.9756 C.ar    1  UNL1        0.0156
     18 C         -12.1847  -18.4652   23.7511 C.ar    1  UNL1        0.0599
     19 C         -13.2806  -18.1891   22.7648 C.ar    1  UNL1        0.0148
     20 C         -14.7053  -18.1155   23.2280 C.ar    1  UNL1        0.0028
     21 C         -15.0342  -18.3181   24.6774 C.ar    1  UNL1        0.0207
     22 C         -13.9383  -18.5942   25.6637 C.ar    1  UNL1        0.0984
     23 N         -12.5135  -18.6678   25.2005 N.ar    1  UNL1       -0.2481
     24 C         -11.1652  -17.2304   22.6766 C.3     1  UNL1        0.0131
     25 C         -10.4688  -16.7297   21.4460 C.3     1  UNL1        0.0421
     26 O         -12.7265  -16.2767   20.2429 O.co2   1  UNL1       -0.5492
     27 C         -11.2516  -16.0353   20.3713 C.2     1  UNL1        0.0503
     28 O         -10.5595  -15.0996   19.4250 O.co2   1  UNL1       -0.5492
@<TRIPOS>UNITY_ATOM_ATTR
26 1
charge -1
@<TRIPOS>BOND
     1    26    27   ar
     2    27    28   ar
     3    27    25    1
     4    25    24    1
     5    24     1    1
     6     1    18    1
     7    18    19   ar
     8    19    20   ar
     9    20    21   ar
    10    21    22   ar
    11    22    23   ar
    12     1     2    1
    13     2     3    1
    14     3     4    1
    15     4     5    1
    16     5     6   am
    17     6     7    2
    18     6     8   am
    19     8    11    1
    20    11    12   ar
    21    12    13   ar
    22    13    14   ar
    23    14    15    1
    24    14    16   ar
    25    16    17   ar
    26     5     9    1
    27     9     1    1
    28    23    18   ar
    29    17    11   ar
    30     8    10    1
@<TRIPOS>MOLECULE
*****
 28 30 0 0 0
SMALL
GASTEIGER

@<TRIPOS>ATOM
      1 C          -9.6722  -17.9174   23.2669 C.3     1  UNL1        0.0542
      2 C          -9.7341  -16.9152   24.3811 C.3     1  UNL1        0.0090
      3 C          -8.4892  -16.2014   24.8178 C.3     1  UNL1        0.0220
      4 C          -7.1824  -16.4899   24.1402 C.3     1  UNL1        0.0950
      5 N          -7.1205  -17.4921   23.0260 N.am    1  UNL1       -0.2636
      6 C          -5.8137  -17.7806   22.3483 C.2     1  UNL1        0.3077
      7 O          -5.7519  -18.7829   21.2340 O.2     1  UNL1       -0.2522
      8 N          -4.5688  -17.0669   22.7851 N.am    1  UNL1       -0.2681
      9 C          -8.3654  -18.2059   22.5892 C.3     1  UNL1        0.1004
     10 H          -4.6094  -16.4090   23.5164 H       1  UNL1        0.1564
     11 C          -3.2621  -17.3554   22.1074 C.ar    1  UNL1        0.0516
     12 C          -2.3948  -16.2249   21.6385 C.ar    1  UNL1        0.0156
     13 C          -1.0881  -16.5133   20.9609 C.ar    1  UNL1        0.0127
     14 C          -0.6486  -17.9323   20.7521 C.ar    1  UNL1        0.0578
     15 CL          0.6582  -18.2207   20.0744 Cl      1  UNL1       -0.0822
     16 C          -1.5159  -19.0627   21.2210 C.ar    1  UNL1        0.0127
     17 C          -2.8227  -18.7742   21.8987 C.ar    1  UNL1        0.0156
     18 C         -11.1338  -17.9852   23.5973 C.ar    1  UNL1        0.0599
     19 C         -12.1328  -17.2811   22.7277 C.ar    1  UNL1        0.0148
     20 C         -13.5943  -17.3489   23.0582 C.ar    1  UNL1        0.0028
     21 C         -14.0569  -18.1208   24.2583 C.ar    1  UNL1        0.0207
     22 C         -13.0579  -18.8250   25.1278 C.ar    1  UNL1        0.0984
     23 N         -11.5964  -18.7572   24.7974 N.ar    1  UNL1       -0.2481
     24 C         -10.1180  -18.9432   22.2673 C.3     1  UNL1        0.0131
     25 C          -9.3064  -19.1864   21.0295 C.3     1  UNL1        0.0421
     26 O          -9.5107  -20.1639   18.6310 O.co2   1  UNL1       -0.5492
     27 C          -9.9741  -19.2040   19.6863 C.2     1  UNL1        0.0503
     28 O         -11.1050  -18.2616   19.3987 O.co2   1  UNL1       -0.5492
@<TRIPOS>UNITY_ATOM_ATTR
26 1
charge -1
@<TRIPOS>BOND
     1    26    27   ar
     2    27    28   ar
     3    27    25    1
     4    25    24    1
     5    24     1    1
     6     1    18    1
     7    18    19   ar
     8    19    20   ar
     9    20    21   ar
    10    21    22   ar
    11    22    23   ar
    12     1     2    1
    13     2     3    1
    14     3     4    1
    15     4     5    1
    16     5     6   am
    17     6     7    2
    18     6     8   am
    19     8    11    1
    20    11    12   ar
    21    12    13   ar
    22    13    14   ar
    23    14    15    1
    24    14    16   ar
    25    16    17   ar
    26     5     9    1
    27     9     1    1
    28    23    18   ar
    29    17    11   ar
    30     8    10    1
@<TRIPOS>MOLECULE
*****
 28 30 0 0 0
SMALL
GASTEIGER

@<TRIPOS>ATOM
      1 C          -4.5233  -18.2511   21.4659 C.3     1  UNL1        0.0542
      2 C          -4.5626  -18.9955   20.1643 C.3     1  UNL1        0.0090
      3 C          -5.8610  -19.5472   19.6546 C.3     1  UNL1        0.0220
      4 C          -7.1202  -19.3544   20.4466 C.3     1  UNL1        0.0950
      5 N          -7.0810  -18.6099   21.7482 N.am    1  UNL1       -0.2636
      6 C          -8.3402  -18.4171   22.5402 C.2     1  UNL1        0.3077
      7 O          -8.3009  -17.6726   23.8418 O.2     1  UNL1       -0.2522
      8 N          -9.6387  -18.9687   22.0305 N.am    1  UNL1       -0.2681
      9 C          -5.7826  -18.0582   22.2579 C.3     1  UNL1        0.1004
     10 H          -9.6644  -19.4574   21.1762 H       1  UNL1        0.1564
     11 C         -10.8978  -18.7759   22.8226 C.ar    1  UNL1        0.0516
     12 C         -12.0665  -18.0616   22.2109 C.ar    1  UNL1        0.0156
     13 C         -13.3256  -17.8687   23.0028 C.ar    1  UNL1        0.0127
     14 C         -13.4162  -18.3900   24.4064 C.ar    1  UNL1        0.0578
     15 CL        -14.6754  -18.1971   25.1984 Cl      1  UNL1       -0.0822
     16 C         -12.2476  -19.1043   25.0181 C.ar    1  UNL1        0.0127
     17 C         -10.9883  -19.2972   24.2261 C.ar    1  UNL1        0.0156
     18 C          -3.0759  -18.1763   21.0794 C.ar    1  UNL1        0.0599
     19 C          -2.2956  -19.4361   20.8471 C.ar    1  UNL1        0.0148
     20 C          -0.8482  -19.3613   20.4606 C.ar    1  UNL1        0.0028
     21 C          -0.1811  -18.0267   20.3064 C.ar    1  UNL1        0.0207
     22 C          -0.9614  -16.7669   20.5386 C.ar    1  UNL1        0.0984
     23 N          -2.4088  -16.8417   20.9251 N.ar    1  UNL1       -0.2481
     24 C          -3.9814  -17.4806   22.6333 C.3     1  UNL1        0.0131
     25 C          -4.9211  -16.8723   23.6317 C.3     1  UNL1        0.0421
     26 O          -4.5447  -14.4794   22.6925 O.co2   1  UNL1       -0.5492
     27 C          -4.9608  -15.3840   23.8143 C.2     1  UNL1        0.0503
     28 O          -5.4167  -14.8003   25.1188 O.co2   1  UNL1       -0.5492
@<TRIPOS>UNITY_ATOM_ATTR
26 1
charge -1
@<TRIPOS>BOND
     1    26    27   ar
     2    27    28   ar
     3    27    25    1
     4    25    24    1
     5    24     1    1
     6     1    18    1
     7    18    19   ar
     8    19    20   ar
     9    20    21   ar
    10    21    22   ar
    11    22    23   ar
    12     1     2    1
    13     2     3    1
    14     3     4    1
    15     4     5    1
    16     5     6   am
    17     6     7    2
    18     6     8   am
    19     8    11    1
    20    11    12   ar
    21    12    13   ar
    22    13    14   ar
    23    14    15    1
    24    14    16   ar
    25    16    17   ar
    26     5     9    1
    27     9     1    1
    28    23    18   ar
    29    17    11   ar
    30     8    10    1
@<TRIPOS>MOLECULE
*****
 28 30 0 0 0
SMALL
GASTEIGER

@<TRIPOS>ATOM
      1 C         -10.0435  -18.5503   22.5811 C.3     1  UNL1        0.0542
      2 C         -10.7134  -19.3992   21.5416 C.3     1  UNL1        0.0090
      3 C          -9.9078  -19.9905   20.4230 C.3     1  UNL1        0.0220
      4 C          -8.4321  -19.7330   20.3439 C.3     1  UNL1        0.0950
      5 N          -7.7622  -18.8842   21.3834 N.am    1  UNL1       -0.2636
      6 C          -6.2865  -18.6266   21.3044 C.2     1  UNL1        0.3077
      7 O          -5.6167  -17.7778   22.3439 O.2     1  UNL1       -0.2522
      8 N          -5.4809  -19.2180   20.1858 N.am    1  UNL1       -0.2681
      9 C          -8.5678  -18.2928   22.5020 C.3     1  UNL1        0.1004
     10 H          -5.9206  -19.7751   19.5035 H       1  UNL1        0.1564
     11 C          -4.0053  -18.9604   20.1068 C.ar    1  UNL1        0.0516
     12 C          -3.0825  -19.5687   21.1211 C.ar    1  UNL1        0.0156
     13 C          -1.6070  -19.3111   21.0421 C.ar    1  UNL1        0.0127
     14 C          -1.0541  -18.4455   19.9490 C.ar    1  UNL1        0.0578
     15 CL          0.4216  -18.1879   19.8700 Cl      1  UNL1       -0.0822
     16 C          -1.9768  -17.8373   18.9347 C.ar    1  UNL1        0.0127
     17 C          -3.4525  -18.0948   19.0137 C.ar    1  UNL1        0.0156
     18 C         -11.4569  -18.5079   23.0816 C.ar    1  UNL1        0.0599
     19 C         -11.7462  -18.7508   24.5332 C.ar    1  UNL1        0.0148
     20 C         -13.1596  -18.7084   25.0336 C.ar    1  UNL1        0.0028
     21 C         -14.2837  -18.4230   24.0824 C.ar    1  UNL1        0.0207
     22 C         -13.9945  -18.1802   22.6307 C.ar    1  UNL1        0.0984
     23 N         -12.5811  -18.2226   22.1303 N.ar    1  UNL1       -0.2481
     24 C          -9.8644  -17.6867   23.7944 C.3     1  UNL1        0.0131
     25 C          -9.9013  -16.1929   23.6638 C.3     1  UNL1        0.0421
     26 O          -9.9833  -15.3402   21.2110 O.co2   1  UNL1       -0.5492
     27 C         -10.6560  -15.5572   22.5341 C.2     1  UNL1        0.0503
     28 O         -12.0833  -15.1385   22.7274 O.co2   1  UNL1       -0.5492
@<TRIPOS>UNITY_ATOM_ATTR
26 1
charge -1
@<TRIPOS>BOND
     1    26    27   ar
     2    27    28   ar
     3    27    25    1
     4    25    24    1
     5    24     1    1
     6     1    18    1
     7    18    19   ar
     8    19    20   ar
     9    20    21   ar
    10    21    22   ar
    11    22    23   ar
    12     1     2    1
    13     2     3    1
    14     3     4    1
    15     4     5    1
    16     5     6   am
    17     6     7    2
    18     6     8   am
    19     8    11    1
    20    11    12   ar
    21    12    13   ar
    22    13    14   ar
    23    14    15    1
    24    14    16   ar
    25    16    17   ar
    26     5     9    1
    27     9     1    1
    28    23    18   ar
    29    17    11   ar
    30     8    10    1
@<TRIPOS>MOLECULE
*****
 28 30 0 0 0
SMALL
GASTEIGER

@<TRIPOS>ATOM
      1 C           3.8806   -1.3773   21.6342 C.3     1  UNL1        0.0542
      2 C           3.0195   -0.4467   22.4357 C.3     1  UNL1        0.0090
      3 C           3.0792   -0.4731   23.9343 C.3     1  UNL1        0.0220
      4 C           4.0001   -1.4303   24.6314 C.3     1  UNL1        0.0950
      5 N           4.8612   -2.3609   23.8299 N.am    1  UNL1       -0.2636
      6 C           5.7821   -3.3180   24.5270 C.2     1  UNL1        0.3077
      7 O           6.6432   -4.2487   23.7254 O.2     1  UNL1       -0.2522
      8 N           5.8418   -3.3445   26.0256 N.am    1  UNL1       -0.2681
      9 C           4.8015   -2.3344   22.3313 C.3     1  UNL1        0.1004
     10 H           5.2767   -2.7337   26.5516 H       1  UNL1        0.1564
     11 C           6.7627   -4.3016   26.7225 C.ar    1  UNL1        0.0516
     12 C           6.5320   -5.7797   26.6116 C.ar    1  UNL1        0.0156
     13 C           7.4528   -6.7369   27.3085 C.ar    1  UNL1        0.0127
     14 C           8.6044   -6.2161   28.1165 C.ar    1  UNL1        0.0578
     15 CL          9.5252   -7.1734   28.8135 Cl      1  UNL1       -0.0822
     16 C           8.8351   -4.7381   28.2274 C.ar    1  UNL1        0.0127
     17 C           7.9142   -3.7809   27.5304 C.ar    1  UNL1        0.0156
     18 C           3.1735   -0.6564   20.5250 C.ar    1  UNL1        0.0599
     19 C           1.6758   -0.5742   20.5189 C.ar    1  UNL1        0.0148
     20 C           0.9687    0.1466   19.4096 C.ar    1  UNL1        0.0028
     21 C           1.7594    0.7853   18.3065 C.ar    1  UNL1        0.0207
     22 C           3.2571    0.7031   18.3126 C.ar    1  UNL1        0.0984
     23 N           3.9641   -0.0178   19.4218 N.ar    1  UNL1       -0.2481
     24 C           4.4961   -2.0576   20.4475 C.3     1  UNL1        0.0131
     25 C           4.0978   -3.4607   20.0972 C.3     1  UNL1        0.0421
     26 O           5.3637   -3.3393   17.8316 O.co2   1  UNL1       -0.5492
     27 C           4.7297   -4.1489   18.9237 C.2     1  UNL1        0.0503
     28 O           4.7276   -5.6467   18.8424 O.co2   1  UNL1       -0.5492
@<TRIPOS>UNITY_ATOM_ATTR
26 1
charge -1
@<TRIPOS>BOND
     1    26    27   ar
     2    27    28   ar
     3    27    25    1
     4    25    24    1
     5    24     1    1
     6     1    18    1
     7    18    19   ar
     8    19    20   ar
     9    20    21   ar
    10    21    22   ar
    11    22    23   ar
    12     1     2    1
    13     2     3    1
    14     3     4    1
    15     4     5    1
    16     5     6   am
    17     6     7    2
    18     6     8   am
    19     8    11    1
    20    11    12   ar
    21    12    13   ar
    22    13    14   ar
    23    14    15    1
    24    14    16   ar
    25    16    17   ar
    26     5     9    1
    27     9     1    1
    28    23    18   ar
    29    17    11   ar
    30     8    10    1
@<TRIPOS>MOLECULE
*****
 28 30 0 0 0
SMALL
GASTEIGER

@<TRIPOS>ATOM
      1 C           3.1994   -1.0446   21.1723 C.3     1  UNL1        0.0542
      2 C           2.7531   -0.1061   22.2539 C.3     1  UNL1        0.0090
      3 C           3.2085   -0.3194   23.6670 C.3     1  UNL1        0.0220
      4 C           4.1103   -1.4713   23.9986 C.3     1  UNL1        0.0950
      5 N           4.5567   -2.4098   22.9170 N.am    1  UNL1       -0.2636
      6 C           5.4585   -3.5617   23.2486 C.2     1  UNL1        0.3077
      7 O           5.9048   -4.5002   22.1669 O.2     1  UNL1       -0.2522
      8 N           5.9139   -3.7751   24.6617 N.am    1  UNL1       -0.2681
      9 C           4.1013   -2.1965   21.5038 C.3     1  UNL1        0.1004
     10 H           5.6209   -3.1591   25.3717 H       1  UNL1        0.1564
     11 C           6.8157   -4.9269   24.9932 C.ar    1  UNL1        0.0516
     12 C           6.6951   -5.6161   26.3202 C.ar    1  UNL1        0.0156
     13 C           7.5968   -6.7679   26.6517 C.ar    1  UNL1        0.0127
     14 C           8.6192   -7.2307   25.6563 C.ar    1  UNL1        0.0578
     15 CL          9.5210   -8.3827   25.9879 Cl      1  UNL1       -0.0822
     16 C           8.7398   -6.5417   24.3295 C.ar    1  UNL1        0.0127
     17 C           7.8380   -5.3897   23.9979 C.ar    1  UNL1        0.0156
     18 C           2.3502   -0.1053   20.3680 C.ar    1  UNL1        0.0599
     19 C           2.9658    0.7064   19.2671 C.ar    1  UNL1        0.0148
     20 C           2.1166    1.6456   18.4629 C.ar    1  UNL1        0.0028
     21 C           0.6518    1.7730   18.7597 C.ar    1  UNL1        0.0207
     22 C           0.0362    0.9612   19.8606 C.ar    1  UNL1        0.0984
     23 N           0.8854    0.0221   20.6648 N.ar    1  UNL1       -0.2481
     24 C           3.3509   -1.6569   19.8113 C.3     1  UNL1        0.0131
     25 C           4.6634   -2.2554   19.4000 C.3     1  UNL1        0.0421
     26 O           6.5644   -2.4876   17.6444 O.co2   1  UNL1       -0.5492
     27 C           5.1726   -2.0582   18.0029 C.2     1  UNL1        0.0503
     28 O           4.2900   -1.4318   16.9644 O.co2   1  UNL1       -0.5492
@<TRIPOS>UNITY_ATOM_ATTR
26 1
charge -1
@<TRIPOS>BOND
     1    26    27   ar
     2    27    28   ar
     3    27    25    1
     4    25    24    1
     5    24     1    1
     6     1    18    1
     7    18    19   ar
     8    19    20   ar
     9    20    21   ar
    10    21    22   ar
    11    22    23   ar
    12     1     2    1
    13     2     3    1
    14     3     4    1
    15     4     5    1
    16     5     6   am
    17     6     7    2
    18     6     8   am
    19     8    11    1
    20    11    12   ar
    21    12    13   ar
    22    13    14   ar
    23    14    15    1
    24    14    16   ar
    25    16    17   ar
    26     5     9    1
    27     9     1    1
    28    23    18   ar
    29    17    11   ar
    30     8    10    1
@<TRIPOS>MOLECULE
*****
 28 30 0 0 0
SMALL
GASTEIGER

@<TRIPOS>ATOM
      1 C          -9.7129  -17.7560   23.2704 C.3     1  UNL1        0.0542
      2 C          -9.7680  -16.8172   24.4390 C.3     1  UNL1        0.0090
      3 C          -8.5165  -16.1456   24.9212 C.3     1  UNL1        0.0220
      4 C          -7.2098  -16.4128   24.2347 C.3     1  UNL1        0.0950
      5 N          -7.1547  -17.3516   23.0662 N.am    1  UNL1       -0.2636
      6 C          -5.8479  -17.6188   22.3797 C.2     1  UNL1        0.3077
      7 O          -5.7929  -18.5575   21.2111 O.2     1  UNL1       -0.2522
      8 N          -4.5964  -16.9472   22.8619 N.am    1  UNL1       -0.2681
      9 C          -8.4062  -18.0232   22.5840 C.3     1  UNL1        0.1004
     10 H          -4.6325  -16.3310   23.6289 H       1  UNL1        0.1564
     11 C          -3.2898  -17.2144   22.1754 C.ar    1  UNL1        0.0516
     12 C          -2.8625  -18.6256   21.8993 C.ar    1  UNL1        0.0156
     13 C          -1.5560  -18.8929   21.2129 C.ar    1  UNL1        0.0127
     14 C          -0.6765  -17.7491   20.8025 C.ar    1  UNL1        0.0578
     15 CL          0.6302  -18.0164   20.1160 Cl      1  UNL1       -0.0822
     16 C          -1.1037  -16.3380   21.0786 C.ar    1  UNL1        0.0127
     17 C          -2.4104  -16.0707   21.7651 C.ar    1  UNL1        0.0156
     18 C         -11.1771  -17.8229   23.5895 C.ar    1  UNL1        0.0599
     19 C         -12.1676  -17.1060   22.7206 C.ar    1  UNL1        0.0148
     20 C         -13.6317  -17.1730   23.0397 C.ar    1  UNL1        0.0028
     21 C         -14.1053  -17.9569   24.2276 C.ar    1  UNL1        0.0207
     22 C         -13.1149  -18.6738   25.0965 C.ar    1  UNL1        0.0984
     23 N         -11.6508  -18.6068   24.7774 N.ar    1  UNL1       -0.2481
     24 C         -10.1663  -18.7180   22.2126 C.3     1  UNL1        0.0131
     25 C          -9.9823  -20.1932   22.4118 C.3     1  UNL1        0.0421
     26 O          -9.4692  -21.0079   24.8249 O.co2   1  UNL1       -0.5492
     27 C          -9.0053  -20.6961   23.4330 C.2     1  UNL1        0.0503
     28 O          -7.5645  -20.8870   23.0621 O.co2   1  UNL1       -0.5492
@<TRIPOS>UNITY_ATOM_ATTR
26 1
charge -1
@<TRIPOS>BOND
     1    26    27   ar
     2    27    28   ar
     3    27    25    1
     4    25    24    1
     5    24     1    1
     6     1    18    1
     7    18    19   ar
     8    19    20   ar
     9    20    21   ar
    10    21    22   ar
    11    22    23   ar
    12     1     2    1
    13     2     3    1
    14     3     4    1
    15     4     5    1
    16     5     6   am
    17     6     7    2
    18     6     8   am
    19     8    11    1
    20    11    12   ar
    21    12    13   ar
    22    13    14   ar
    23    14    15    1
    24    14    16   ar
    25    16    17   ar
    26     5     9    1
    27     9     1    1
    28    23    18   ar
    29    17    11   ar
    30     8    10    1
@<TRIPOS>MOLECULE
*****
 28 30 0 0 0
SMALL
GASTEIGER

@<TRIPOS>ATOM
      1 C           6.9438   -4.4701   26.4664 C.3     1  UNL1        0.0542
      2 C           6.6799   -3.3487   27.4270 C.3     1  UNL1        0.0090
      3 C           6.0771   -2.0661   26.9352 C.3     1  UNL1        0.0220
      4 C           5.7384   -1.9051   25.4829 C.3     1  UNL1        0.0950
      5 N           6.0024   -3.0264   24.5223 N.am    1  UNL1       -0.2636
      6 C           5.6636   -2.8653   23.0699 C.2     1  UNL1        0.3077
      7 O           5.9276   -3.9868   22.1094 O.2     1  UNL1       -0.2522
      8 N           5.0609   -1.5828   22.5782 N.am    1  UNL1       -0.2681
      9 C           6.6051   -4.3090   25.0140 C.3     1  UNL1        0.1004
     10 H           4.8876   -0.8468   23.2086 H       1  UNL1        0.1564
     11 C           4.7221   -1.4218   21.1259 C.ar    1  UNL1        0.0516
     12 C           5.8090   -1.1525   20.1277 C.ar    1  UNL1        0.0156
     13 C           5.4704   -0.9915   18.6754 C.ar    1  UNL1        0.0127
     14 C           4.0449   -1.0997   18.2211 C.ar    1  UNL1        0.0578
     15 CL          3.7062   -0.9387   16.7687 Cl      1  UNL1       -0.0822
     16 C           2.9581   -1.3690   19.2192 C.ar    1  UNL1        0.0127
     17 C           3.2967   -1.5301   20.6716 C.ar    1  UNL1        0.0156
     18 C           7.4333   -5.0962   27.7386 C.ar    1  UNL1        0.0599
     19 C           8.8324   -5.6305   27.8216 C.ar    1  UNL1        0.0148
     20 C           9.3219   -6.2566   29.0938 C.ar    1  UNL1        0.0028
     21 C           8.4122   -6.3483   30.2830 C.ar    1  UNL1        0.0207
     22 C           7.0131   -5.8140   30.1999 C.ar    1  UNL1        0.0984
     23 N           6.5237   -5.1879   28.9278 N.ar    1  UNL1       -0.2481
     24 C           7.3778   -5.8090   25.9477 C.3     1  UNL1        0.0131
     25 C           7.7417   -5.9710   24.5016 C.3     1  UNL1        0.0421
     26 O           8.6213   -7.5012   22.5951 O.co2   1  UNL1       -0.5492
     27 C           8.5243   -7.1702   24.0548 C.2     1  UNL1        0.0503
     28 O           9.2098   -8.0382   25.0680 O.co2   1  UNL1       -0.5492
@<TRIPOS>UNITY_ATOM_ATTR
26 1
charge -1
@<TRIPOS>BOND
     1    26    27   ar
     2    27    28   ar
     3    27    25    1
     4    25    24    1
     5    24     1    1
     6     1    18    1
     7    18    19   ar
     8    19    20   ar
     9    20    21   ar
    10    21    22   ar
    11    22    23   ar
    12     1     2    1
    13     2     3    1
    14     3     4    1
    15     4     5    1
    16     5     6   am
    17     6     7    2
    18     6     8   am
    19     8    11    1
    20    11    12   ar
    21    12    13   ar
    22    13    14   ar
    23    14    15    1
    24    14    16   ar
    25    16    17   ar
    26     5     9    1
    27     9     1    1
    28    23    18   ar
    29    17    11   ar
    30     8    10    1
