@<TRIPOS>MOLECULE
*****
 61 67 0 0 0
SMALL
GASTEIGER

@<TRIPOS>ATOM
      1 C          -4.4419    5.1418   23.3194 C.ar    1  UNL1        0.0295
      2 C          -4.3798    6.5081   23.9353 C.ar    1  UNL1        0.0070
      3 C          -5.7672    6.8889   24.3597 C.ar    1  UNL1        0.0075
      4 C          -6.6869    5.7579   24.0061 C.ar    1  UNL1        0.0354
      5 S          -5.8679    4.6781   23.3632 S.2     1  UNL1       -0.0864
      6 C          -8.1659    5.7143   24.2522 C.2     1  UNL1        0.0390
      7 C          -9.0661    6.9015   24.4263 C.2     1  UNL1        0.0542
      8 C         -10.4609    6.3968   24.6491 C.2     1  UNL1        0.2309
      9 N         -11.8793    6.8186   24.8944 N.2     1  UNL1       -0.0364
     10 C         -12.7179    5.5802   25.0096 C.2     1  UNL1        0.3653
     11 N         -11.8177    4.3930   24.8355 N.2     1  UNL1       -0.0462
     12 C         -10.4228    4.8977   24.6127 C.3     1  UNL1        0.3308
     13 S          -9.0044    4.4759   24.3674 S.3     1  UNL1       -0.0533
     14 C         -14.1969    5.5366   25.2557 C.3     1  UNL1        0.1874
     15 C         -14.8777    5.7470   26.5757 C.3     1  UNL1        0.0344
     16 C         -16.3563    5.6154   26.3608 C.3     1  UNL1        0.0221
     17 C         -17.4159    5.7516   27.4138 C.3     1  UNL1        0.0018
     18 C         -16.5895    5.3236   24.9081 C.3     1  UNL1        0.0940
     19 N         -15.2549    5.2749   24.2251 N.am    1  UNL1       -0.2691
     20 C         -15.0196    5.0109   22.7674 C.2     1  UNL1        0.2440
     21 O         -13.6213    4.9929   22.2246 O.2     1  UNL1       -0.2731
     22 C         -16.1825    4.7649   21.8525 C.3     1  UNL1        0.1512
     23 N         -16.4683    3.3775   21.3591 N.am    1  UNL1       -0.2640
     24 C         -15.8245    2.8824   20.0979 C.2     1  UNL1        0.4021
     25 O         -14.8950    3.7748   19.3301 O.2     1  UNL1       -0.2264
     26 H         -17.0784    2.7918   21.8631 H       1  UNL1        0.1532
     27 O         -16.1104    1.4950   19.6047 O.3     1  UNL1       -0.4306
     28 C         -16.8090    0.5113   20.4960 C.3     1  UNL1        0.2573
     29 C         -17.0596    5.9064   21.4308 C.3     1  UNL1        0.0270
     30 C         -18.5465    5.8140   21.6054 C.3     1  UNL1        0.0022
     31 C         -16.4498    7.1404   20.8345 C.3     1  UNL1        0.0022
     32 C          -0.9620    2.8383   21.6362 C.ar    1  UNL1        0.0172
     33 C          -0.9539    3.2649   23.0742 C.ar    1  UNL1        0.0015
     34 C          -2.1138    4.0328   23.6353 C.ar    1  UNL1        0.0005
     35 C          -3.2820    4.3740   22.7584 C.ar    1  UNL1        0.0060
     36 C          -3.2901    3.9473   21.3203 C.ar    1  UNL1        0.0005
     37 C          -2.1302    3.1795   20.7593 C.ar    1  UNL1        0.0015
     38 C           1.8824    0.3572   20.7311 C.ar    1  UNL1        0.1353
     39 N           2.0837    1.4203   19.6922 N.ar    1  UNL1       -0.2279
     40 C           1.0426    2.4792   19.9048 C.ar    1  UNL1        0.1171
     41 C           0.1980    2.0704   21.0751 C.ar    1  UNL1        0.0769
     42 N           0.7170    0.7590   21.5858 N.ar    1  UNL1       -0.3394
     43 H           0.3562    0.2511   22.3481 H       1  UNL1        0.1671
     44 C           3.5291   -0.5318   23.4047 C.2     1  UNL1        0.2439
     45 O           2.7975    0.7703   23.5436 O.2     1  UNL1       -0.2731
     46 N           3.4595   -1.2975   22.1167 N.am    1  UNL1       -0.2730
     47 C           4.1346   -2.6063   21.8314 C.3     1  UNL1        0.0938
     48 C           3.7949   -3.0066   20.4263 C.3     1  UNL1        0.0220
     49 C           4.2588   -4.2499   19.7271 C.3     1  UNL1        0.0018
     50 C           2.9099   -1.9451   19.8431 C.3     1  UNL1        0.0293
     51 C           2.7026   -0.8889   20.8878 C.3     1  UNL1        0.1319
     52 C           4.3304   -1.0682   24.5537 C.3     1  UNL1        0.1512
     53 C           3.5308   -0.7286   27.0022 C.2     1  UNL1        0.4021
     54 O           4.1248    0.6488   27.0051 O.2     1  UNL1       -0.2264
     55 N           3.6336   -1.5871   25.7765 N.am    1  UNL1       -0.2640
     56 H           3.2437   -2.4911   25.7745 H       1  UNL1        0.1532
     57 C           1.7666   -0.4262   28.8853 C.3     1  UNL1        0.2573
     58 O           2.8339   -1.2475   28.2250 O.3     1  UNL1       -0.4306
     59 C           5.8285   -1.0856   24.4799 C.3     1  UNL1        0.0270
     60 C           6.5604    0.0495   23.8274 C.3     1  UNL1        0.0022
     61 C           6.5946   -2.2381   25.0585 C.3     1  UNL1        0.0022
@<TRIPOS>BOND
     1    57    58    1
     2    58    53    1
     3    53    54    2
     4    53    55   am
     5    52    55    1
     6    52    44    1
     7    44    45    2
     8    44    46   am
     9    46    47    1
    10    47    48    1
    11    48    49    1
    12    48    50    1
    13    50    51    1
    14    51    38    1
    15    38    39   ar
    16    39    40   ar
    17    40    41   ar
    18    41    32    1
    19    32    33   ar
    20    33    34   ar
    21    34    35   ar
    22    35     1    1
    23     1     2   ar
    24     2     3   ar
    25     3     4   ar
    26     4     6    1
    27     6     7    2
    28     7     8    1
    29     8     9    2
    30     9    10    1
    31    14    10    1
    32    14    15    1
    33    15    16    1
    34    16    17    1
    35    16    18    1
    36    18    19    1
    37    19    20   am
    38    20    21    2
    39    20    22    1
    40    22    23    1
    41    23    24   am
    42    24    25    2
    43    24    27    1
    44    27    28    1
    45    22    29    1
    46    29    30    1
    47    29    31    1
    48    10    11    2
    49    11    12    1
    50    12    13    1
    51     4     5   ar
    52    35    36   ar
    53    36    37   ar
    54    41    42   ar
    55    52    59    1
    56    59    60    1
    57    59    61    1
    58    51    46    1
    59    42    38   ar
    60    37    32   ar
    61     5     1   ar
    62    13     6    1
    63    12     8    1
    64    19    14    1
    65    55    56    1
    66    23    26    1
    67    42    43    1
@<TRIPOS>MOLECULE
*****
 61 67 0 0 0
SMALL
GASTEIGER

@<TRIPOS>ATOM
      1 C          -4.5336    5.1234   23.2087 C.ar    1  UNL1        0.0295
      2 C          -4.4631    6.4857   23.8327 C.ar    1  UNL1        0.0070
      3 C          -5.8444    6.8633   24.2789 C.ar    1  UNL1        0.0075
      4 C          -6.7688    5.7344   23.9308 C.ar    1  UNL1        0.0354
      5 S          -5.9587    4.6591   23.2694 S.2     1  UNL1       -0.0864
      6 C          -8.2442    5.6889   24.1973 C.2     1  UNL1        0.0390
      7 C          -9.0742    4.4491   24.3531 C.2     1  UNL1        0.0542
      8 C         -10.4916    4.8692   24.6069 C.2     1  UNL1        0.2309
      9 N         -11.8806    4.3626   24.8600 N.2     1  UNL1       -0.0364
     10 C         -12.7852    5.5488   25.0175 C.2     1  UNL1        0.3653
     11 N         -11.9552    6.7885   24.8617 N.2     1  UNL1       -0.0462
     12 C         -10.5377    6.3685   24.6079 C.3     1  UNL1        0.3308
     13 S          -9.1487    6.8751   24.3548 S.3     1  UNL1       -0.0533
     14 C         -14.2605    5.5032   25.2840 C.3     1  UNL1        0.1874
     15 C         -14.9298    5.8031   26.5926 C.3     1  UNL1        0.0344
     16 C         -16.4087    5.6350   26.4060 C.3     1  UNL1        0.0221
     17 C         -17.4585    5.8355   27.4585 C.3     1  UNL1        0.0018
     18 C         -16.6534    5.2313   24.9823 C.3     1  UNL1        0.0940
     19 N         -15.3258    5.1499   24.2888 N.am    1  UNL1       -0.2691
     20 C         -15.1026    4.7800   22.8524 C.2     1  UNL1        0.2440
     21 O         -13.7103    4.7406   22.2957 O.2     1  UNL1       -0.2731
     22 C         -16.2717    4.4495   21.9727 C.3     1  UNL1        0.1512
     23 N         -16.9896    5.5423   21.2374 N.am    1  UNL1       -0.2640
     24 C         -18.4125    5.8689   21.5820 C.2     1  UNL1        0.4021
     25 O         -19.1175    5.1029   22.6619 O.2     1  UNL1       -0.2264
     26 H         -16.5269    6.0450   20.5286 H       1  UNL1        0.1532
     27 O         -19.1303    6.9617   20.8467 O.3     1  UNL1       -0.4306
     28 C         -20.0348    6.6243   19.6985 C.3     1  UNL1        0.2573
     29 C         -16.7230    3.0263   21.8282 C.3     1  UNL1        0.0270
     30 C         -17.2093    2.2682   23.0277 C.3     1  UNL1        0.0022
     31 C         -16.6879    2.3611   20.4841 C.3     1  UNL1        0.0022
     32 C          -1.0772    2.8319   21.4617 C.ar    1  UNL1        0.0172
     33 C          -1.0668    3.2149   22.9119 C.ar    1  UNL1        0.0015
     34 C          -2.2189    3.9787   23.4943 C.ar    1  UNL1        0.0005
     35 C          -3.3815    4.3596   22.6264 C.ar    1  UNL1        0.0060
     36 C          -3.3920    3.9766   21.1761 C.ar    1  UNL1        0.0005
     37 C          -2.2399    3.2129   20.5938 C.ar    1  UNL1        0.0015
     38 C           1.7551    0.3580   20.5009 C.ar    1  UNL1        0.1353
     39 N           1.9407    1.4273   19.4654 N.ar    1  UNL1       -0.2279
     40 C           0.9022    2.4842   19.6993 C.ar    1  UNL1        0.1171
     41 C           0.0749    2.0681   20.8793 C.ar    1  UNL1        0.0769
     42 N           0.6020    0.7540   21.3748 N.ar    1  UNL1       -0.3394
     43 H           0.2525    0.2415   22.1392 H       1  UNL1        0.1671
     44 C           3.4166   -0.5605   23.1553 C.2     1  UNL1        0.2439
     45 O           2.6834    0.7385   23.3136 O.2     1  UNL1       -0.2731
     46 N           3.3418   -1.3107   21.8585 N.am    1  UNL1       -0.2730
     47 C           4.0177   -2.6147   21.5540 C.3     1  UNL1        0.0938
     48 C           3.6717   -2.9985   20.1458 C.3     1  UNL1        0.0220
     49 C           4.1342   -4.2325   19.4293 C.3     1  UNL1        0.0018
     50 C           2.7820   -1.9316   19.5800 C.3     1  UNL1        0.0293
     51 C           2.5781   -0.8885   20.6384 C.3     1  UNL1        0.1319
     52 C           4.2244   -1.1094   24.2937 C.3     1  UNL1        0.1512
     53 C           3.5344   -0.7839   26.7773 C.2     1  UNL1        0.4021
     54 O           4.2212    0.5496   26.7932 O.2     1  UNL1       -0.2264
     55 N           3.5360   -1.6134   25.5275 N.am    1  UNL1       -0.2640
     56 H           3.0853   -2.4886   25.5169 H       1  UNL1        0.1532
     57 C           1.8517   -0.4192   28.7228 C.3     1  UNL1        0.2573
     58 O           2.8459   -1.2878   28.0110 O.3     1  UNL1       -0.4306
     59 C           5.7207   -1.1543   24.1984 C.3     1  UNL1        0.0270
     60 C           6.4598   -2.4009   24.5856 C.3     1  UNL1        0.0022
     61 C           6.4780    0.0472   23.7158 C.3     1  UNL1        0.0022
@<TRIPOS>BOND
     1    57    58    1
     2    58    53    1
     3    53    54    2
     4    53    55   am
     5    52    55    1
     6    52    44    1
     7    44    45    2
     8    44    46   am
     9    46    47    1
    10    47    48    1
    11    48    49    1
    12    48    50    1
    13    50    51    1
    14    51    38    1
    15    38    39   ar
    16    39    40   ar
    17    40    41   ar
    18    41    32    1
    19    32    33   ar
    20    33    34   ar
    21    34    35   ar
    22    35     1    1
    23     1     2   ar
    24     2     3   ar
    25     3     4   ar
    26     4     6    1
    27     6     7    2
    28     7     8    1
    29     8     9    2
    30     9    10    1
    31    14    10    1
    32    14    15    1
    33    15    16    1
    34    16    17    1
    35    16    18    1
    36    18    19    1
    37    19    20   am
    38    20    21    2
    39    20    22    1
    40    22    23    1
    41    23    24   am
    42    24    25    2
    43    24    27    1
    44    27    28    1
    45    22    29    1
    46    29    30    1
    47    29    31    1
    48    10    11    2
    49    11    12    1
    50    12    13    1
    51     4     5   ar
    52    35    36   ar
    53    36    37   ar
    54    41    42   ar
    55    52    59    1
    56    59    60    1
    57    59    61    1
    58    51    46    1
    59    42    38   ar
    60    37    32   ar
    61     5     1   ar
    62    13     6    1
    63    12     8    1
    64    19    14    1
    65    55    56    1
    66    23    26    1
    67    42    43    1
@<TRIPOS>MOLECULE
*****
 61 67 0 0 0
SMALL
GASTEIGER

@<TRIPOS>ATOM
      1 C           0.6564    4.1906   28.0814 C.ar    1  UNL1        0.0295
      2 C          -0.6361    4.1733   27.3203 C.ar    1  UNL1        0.0070
      3 C          -0.3511    3.6767   25.9339 C.ar    1  UNL1        0.0075
      4 C           1.1176    3.3872   25.8381 C.ar    1  UNL1        0.0354
      5 S           1.7402    3.7047   27.1652 S.2     1  UNL1       -0.0864
      6 C           1.8372    2.8707   24.6275 C.2     1  UNL1        0.0390
      7 C           1.1965    2.2888   23.4024 C.2     1  UNL1        0.0542
      8 C           2.2872    1.9039   22.4473 C.2     1  UNL1        0.2309
      9 N           2.5654    1.3064   21.0999 N.2     1  UNL1       -0.0364
     10 C           4.0521    1.2812   20.9019 C.2     1  UNL1        0.3653
     11 N           4.6927    1.8632   22.1271 N.2     1  UNL1       -0.0462
     12 C           3.6020    2.2480   23.0821 C.3     1  UNL1        0.3308
     13 S           3.3239    2.8455   24.4296 S.3     1  UNL1       -0.0533
     14 C           4.7717    0.7648   19.6914 C.3     1  UNL1        0.1874
     15 C           5.1956    1.5776   18.5041 C.3     1  UNL1        0.0344
     16 C           5.8797    0.6600   17.5345 C.3     1  UNL1        0.0221
     17 C           6.4625    1.0532   16.2095 C.3     1  UNL1        0.0018
     18 C           5.8786   -0.7199   18.1226 C.3     1  UNL1        0.0940
     19 N           5.1939   -0.6552   19.4556 N.am    1  UNL1       -0.2691
     20 C           4.9705   -1.8079   20.3890 C.2     1  UNL1        0.2440
     21 O           4.2663   -1.5897   21.6954 O.2     1  UNL1       -0.2731
     22 C           5.4512   -3.1790   20.0161 C.3     1  UNL1        0.1512
     23 N           6.8421   -3.6098   20.3764 N.am    1  UNL1       -0.2640
     24 C           7.1244   -4.1700   21.7390 C.2     1  UNL1        0.4021
     25 O           6.0159   -4.2992   22.7412 O.2     1  UNL1       -0.2264
     26 H           7.5697   -3.5250   19.7186 H       1  UNL1        0.1532
     27 O           8.5153   -4.6008   22.0993 O.3     1  UNL1       -0.4306
     28 C           9.5341   -4.8242   21.0211 C.3     1  UNL1        0.2573
     29 C           4.5411   -4.1192   19.2827 C.3     1  UNL1        0.0270
     30 C           3.0701   -3.8348   19.2094 C.3     1  UNL1        0.0022
     31 C           5.1019   -5.3439   18.6228 C.3     1  UNL1        0.0022
     32 C           1.1889    5.4746   32.3613 C.ar    1  UNL1        0.0172
     33 C           1.0317    6.5054   31.2830 C.ar    1  UNL1        0.0015
     34 C           0.8542    6.0774   29.8564 C.ar    1  UNL1        0.0005
     35 C           0.8339    4.6186   29.5080 C.ar    1  UNL1        0.0060
     36 C           0.9910    3.5877   30.5863 C.ar    1  UNL1        0.0005
     37 C           1.1685    4.0157   32.0129 C.ar    1  UNL1        0.0015
     38 C           2.1828    6.0511   36.0687 C.ar    1  UNL1        0.1353
     39 N           1.0963    7.0711   35.8980 N.ar    1  UNL1       -0.2279
     40 C           0.5917    6.9793   34.4883 C.ar    1  UNL1        0.1171
     41 C           1.3664    5.9026   33.7879 C.ar    1  UNL1        0.0769
     42 N           2.3497    5.3289   34.7646 N.ar    1  UNL1       -0.3394
     43 H           2.9919    4.6054   34.5819 H       1  UNL1        0.1671
     44 C           2.4517    3.1910   37.6171 C.2     1  UNL1        0.2439
     45 O           1.6002    3.1391   36.3833 O.2     1  UNL1       -0.2731
     46 N           3.0887    4.4832   38.0350 N.am    1  UNL1       -0.2730
     47 C           3.9610    4.6876   39.2380 C.3     1  UNL1        0.0938
     48 C           4.3766    6.1286   39.2698 C.3     1  UNL1        0.0220
     49 C           5.2537    6.7706   40.3035 C.3     1  UNL1        0.0018
     50 C           3.7610    6.8147   38.0864 C.3     1  UNL1        0.0293
     51 C           2.9651    5.7978   37.3233 C.3     1  UNL1        0.1319
     52 C           2.6664    1.9507   38.4330 C.3     1  UNL1        0.1512
     53 C           4.5444    0.7267   37.1197 C.2     1  UNL1        0.4021
     54 O           3.7604    0.8854   35.8508 O.2     1  UNL1       -0.2264
     55 N           3.9974    1.2594   38.4108 N.am    1  UNL1       -0.2640
     56 H           4.5119    1.1553   39.2437 H       1  UNL1        0.1532
     57 C           6.5504   -0.2503   35.7889 C.3     1  UNL1        0.2573
     58 O           5.8754    0.0354   37.0975 O.3     1  UNL1       -0.4306
     59 C           1.5499    1.4018   39.2709 C.3     1  UNL1        0.0270
     60 C           1.3752   -0.0816   39.4089 C.3     1  UNL1        0.0022
     61 C           0.6081    2.3362   39.9709 C.3     1  UNL1        0.0022
@<TRIPOS>BOND
     1    57    58    1
     2    58    53    1
     3    53    54    2
     4    53    55   am
     5    52    55    1
     6    52    44    1
     7    44    45    2
     8    44    46   am
     9    46    47    1
    10    47    48    1
    11    48    49    1
    12    48    50    1
    13    50    51    1
    14    51    38    1
    15    38    39   ar
    16    39    40   ar
    17    40    41   ar
    18    41    32    1
    19    32    33   ar
    20    33    34   ar
    21    34    35   ar
    22    35     1    1
    23     1     2   ar
    24     2     3   ar
    25     3     4   ar
    26     4     6    1
    27     6     7    2
    28     7     8    1
    29     8     9    2
    30     9    10    1
    31    14    10    1
    32    14    15    1
    33    15    16    1
    34    16    17    1
    35    16    18    1
    36    18    19    1
    37    19    20   am
    38    20    21    2
    39    20    22    1
    40    22    23    1
    41    23    24   am
    42    24    25    2
    43    24    27    1
    44    27    28    1
    45    22    29    1
    46    29    30    1
    47    29    31    1
    48    10    11    2
    49    11    12    1
    50    12    13    1
    51     4     5   ar
    52    35    36   ar
    53    36    37   ar
    54    41    42   ar
    55    52    59    1
    56    59    60    1
    57    59    61    1
    58    51    46    1
    59    42    38   ar
    60    37    32   ar
    61     5     1   ar
    62    13     6    1
    63    12     8    1
    64    19    14    1
    65    55    56    1
    66    23    26    1
    67    42    43    1
@<TRIPOS>MOLECULE
*****
 61 67 0 0 0
SMALL
GASTEIGER

@<TRIPOS>ATOM
      1 C          -6.0783    5.2230   23.4684 C.ar    1  UNL1        0.0295
      2 C          -5.9196    5.7637   24.8586 C.ar    1  UNL1        0.0070
      3 C          -7.2878    5.9286   25.4509 C.ar    1  UNL1        0.0075
      4 C          -8.2922    5.4899   24.4268 C.ar    1  UNL1        0.0354
      5 S          -7.5448    5.0538   23.2016 S.2     1  UNL1       -0.0864
      6 C          -9.7824    5.4877   24.5980 C.2     1  UNL1        0.0390
      7 C         -10.6333    4.2901   24.9009 C.2     1  UNL1        0.0542
      8 C         -12.0601    4.7449   24.9864 C.2     1  UNL1        0.2309
      9 N         -13.4678    4.2859   25.2264 N.2     1  UNL1       -0.0364
     10 C         -14.3688    5.4809   25.1247 C.2     1  UNL1        0.3653
     11 N         -13.5178    6.6785   24.8218 N.2     1  UNL1       -0.0462
     12 C         -12.0910    6.2236   24.7363 C.3     1  UNL1        0.3308
     13 S         -10.6833    6.6827   24.4963 S.3     1  UNL1       -0.0533
     14 C         -15.8589    5.4787   25.2958 C.3     1  UNL1        0.1874
     15 C         -16.6022    5.8100   26.5559 C.3     1  UNL1        0.0344
     16 C         -18.0702    5.6808   26.2758 C.3     1  UNL1        0.0221
     17 C         -19.1794    5.9207   27.2566 C.3     1  UNL1        0.0018
     18 C         -18.2342    5.2697   24.8426 C.3     1  UNL1        0.0940
     19 N         -16.8676    5.1448   24.2369 N.am    1  UNL1       -0.2691
     20 C         -16.5630    4.7545   22.8210 C.2     1  UNL1        0.2440
     21 O         -15.1394    4.6712   22.3556 O.2     1  UNL1       -0.2731
     22 C         -17.6820    4.4475   21.8704 C.3     1  UNL1        0.1512
     23 N         -17.7037    3.1406   21.1345 N.am    1  UNL1       -0.2640
     24 C         -18.0389    1.8740   21.8649 C.2     1  UNL1        0.4021
     25 O         -18.3525    1.9144   23.3312 O.2     1  UNL1       -0.2264
     26 H         -17.4979    3.1141   20.1721 H       1  UNL1        0.1532
     27 O         -18.0606    0.5672   21.1289 O.3     1  UNL1       -0.4306
     28 C         -16.8264    0.0800   20.4292 C.3     1  UNL1        0.2573
     29 C         -18.7794    5.4474   21.6557 C.3     1  UNL1        0.0270
     30 C         -20.2128    5.0071   21.6915 C.3     1  UNL1        0.0022
     31 C         -18.4432    6.8877   21.4054 C.3     1  UNL1        0.0022
     32 C          -2.7416    4.2750   20.6019 C.ar    1  UNL1        0.0172
     33 C          -3.6914    3.1962   21.0304 C.ar    1  UNL1        0.0015
     34 C          -4.8037    3.5121   21.9860 C.ar    1  UNL1        0.0005
     35 C          -4.9662    4.9071   22.5130 C.ar    1  UNL1        0.0060
     36 C          -4.0163    5.9860   22.0844 C.ar    1  UNL1        0.0005
     37 C          -2.9041    5.6701   21.1289 C.ar    1  UNL1        0.0015
     38 C           0.5562    3.3981   18.7524 C.ar    1  UNL1        0.1353
     39 N          -0.3916    3.5477   17.5995 N.ar    1  UNL1       -0.2279
     40 C          -1.7424    3.8945   18.1520 C.ar    1  UNL1        0.1171
     41 C          -1.6293    3.9591   19.6463 C.ar    1  UNL1        0.0769
     42 N          -0.2087    3.6523   20.0174 N.ar    1  UNL1       -0.3394
     43 H           0.1573    3.6229   20.9309 H       1  UNL1        0.1671
     44 C           1.9885    0.7485   20.0087 C.2     1  UNL1        0.2439
     45 O           0.5124    0.8234   20.2648 O.2     1  UNL1       -0.2731
     46 N           2.6715    1.8366   19.2344 N.am    1  UNL1       -0.2730
     47 C           4.1329    1.8979   18.9017 C.3     1  UNL1        0.0938
     48 C           4.3777    3.1536   18.1187 C.3     1  UNL1        0.0220
     49 C           5.7004    3.6138   17.5812 C.3     1  UNL1        0.0018
     50 C           3.0677    3.8684   17.9675 C.3     1  UNL1        0.0293
     51 C           2.0132    3.0545   18.6570 C.3     1  UNL1        0.1319
     52 C           2.7815   -0.4146   20.5267 C.3     1  UNL1        0.1512
     53 C           4.3968   -1.9583   19.2009 C.2     1  UNL1        0.4021
     54 O           5.5562   -1.1023   19.6170 O.2     1  UNL1       -0.2264
     55 N           3.0094   -1.6144   19.6558 N.am    1  UNL1       -0.2640
     56 H           2.2485   -2.1762   19.3827 H       1  UNL1        0.1532
     57 C           4.6006   -4.5338   18.9271 C.3     1  UNL1        0.2573
     58 O           4.6248   -3.1580   18.3299 O.3     1  UNL1       -0.4306
     59 C           3.3465   -0.3778   21.9158 C.3     1  UNL1        0.0270
     60 C           3.7167    0.9348   22.5403 C.3     1  UNL1        0.0022
     61 C           3.5413   -1.6536   22.6803 C.3     1  UNL1        0.0022
@<TRIPOS>BOND
     1    57    58    1
     2    58    53    1
     3    53    54    2
     4    53    55   am
     5    52    55    1
     6    52    44    1
     7    44    45    2
     8    44    46   am
     9    46    47    1
    10    47    48    1
    11    48    49    1
    12    48    50    1
    13    50    51    1
    14    51    38    1
    15    38    39   ar
    16    39    40   ar
    17    40    41   ar
    18    41    32    1
    19    32    33   ar
    20    33    34   ar
    21    34    35   ar
    22    35     1    1
    23     1     2   ar
    24     2     3   ar
    25     3     4   ar
    26     4     6    1
    27     6     7    2
    28     7     8    1
    29     8     9    2
    30     9    10    1
    31    14    10    1
    32    14    15    1
    33    15    16    1
    34    16    17    1
    35    16    18    1
    36    18    19    1
    37    19    20   am
    38    20    21    2
    39    20    22    1
    40    22    23    1
    41    23    24   am
    42    24    25    2
    43    24    27    1
    44    27    28    1
    45    22    29    1
    46    29    30    1
    47    29    31    1
    48    10    11    2
    49    11    12    1
    50    12    13    1
    51     4     5   ar
    52    35    36   ar
    53    36    37   ar
    54    41    42   ar
    55    52    59    1
    56    59    60    1
    57    59    61    1
    58    51    46    1
    59    42    38   ar
    60    37    32   ar
    61     5     1   ar
    62    13     6    1
    63    12     8    1
    64    19    14    1
    65    55    56    1
    66    23    26    1
    67    42    43    1
@<TRIPOS>MOLECULE
*****
 61 67 0 0 0
SMALL
GASTEIGER

@<TRIPOS>ATOM
      1 C           1.1929    5.0930   28.2315 C.ar    1  UNL1        0.0295
      2 C          -0.0620    5.2978   27.4358 C.ar    1  UNL1        0.0070
      3 C           0.2232    4.9153   26.0137 C.ar    1  UNL1        0.0075
      4 C           1.6544    4.4742   25.9304 C.ar    1  UNL1        0.0354
      5 S           2.2538    4.5839   27.3011 S.2     1  UNL1       -0.0864
      6 C           2.3620    4.0055   24.6937 C.2     1  UNL1        0.0390
      7 C           1.7769    3.1395   23.6177 C.2     1  UNL1        0.0542
      8 C           2.8323    2.9194   22.5748 C.2     1  UNL1        0.2309
      9 N           3.1229    2.2481   21.2653 N.2     1  UNL1       -0.0364
     10 C           4.5399    2.5631   20.8872 C.2     1  UNL1        0.3653
     11 N           5.1250    3.4292   21.9632 N.2     1  UNL1       -0.0462
     12 C           4.0696    3.6493   23.0062 C.3     1  UNL1        0.3308
     13 S           3.7790    4.3206   24.3157 S.3     1  UNL1       -0.0533
     14 C           5.2475    2.0945   19.6505 C.3     1  UNL1        0.1874
     15 C           5.3931    2.8658   18.3722 C.3     1  UNL1        0.0344
     16 C           6.1694    2.0202   17.4065 C.3     1  UNL1        0.0221
     17 C           6.5454    2.4015   16.0054 C.3     1  UNL1        0.0018
     18 C           6.5036    0.7264   18.0880 C.3     1  UNL1        0.0940
     19 N           5.9339    0.7724   19.4748 N.am    1  UNL1       -0.2691
     20 C           6.0331   -0.3133   20.5052 C.2     1  UNL1        0.2440
     21 O           5.4104   -0.1238   21.8566 O.2     1  UNL1       -0.2731
     22 C           6.7550   -1.5883   20.1840 C.3     1  UNL1        0.1512
     23 N           5.9856   -2.8661   20.0247 N.am    1  UNL1       -0.2640
     24 C           5.4655   -3.2651   18.6754 C.2     1  UNL1        0.4021
     25 O           5.7148   -2.3864   17.4856 O.2     1  UNL1       -0.2264
     26 H           5.8220   -3.4428   20.8056 H       1  UNL1        0.1532
     27 O           4.6962   -4.5429   18.5162 O.3     1  UNL1       -0.4306
     28 C           3.6746   -4.9360   19.5419 C.3     1  UNL1        0.2573
     29 C           8.2463   -1.5856   20.0223 C.3     1  UNL1        0.0270
     30 C           8.9051   -2.5903   19.1243 C.3     1  UNL1        0.0022
     31 C           9.0787   -0.5781   20.7585 C.3     1  UNL1        0.0022
     32 C           1.6884    5.8693   32.6362 C.ar    1  UNL1        0.0172
     33 C           2.5851    6.5547   31.6483 C.ar    1  UNL1        0.0015
     34 C           2.4200    6.2960   30.1801 C.ar    1  UNL1        0.0005
     35 C           1.3581    5.3517   29.6997 C.ar    1  UNL1        0.0060
     36 C           0.4613    4.6662   30.6877 C.ar    1  UNL1        0.0005
     37 C           0.6265    4.9249   32.1558 C.ar    1  UNL1        0.0015
     38 C           2.6003    5.9623   36.4078 C.ar    1  UNL1        0.1353
     39 N           1.6151    7.0900   36.3200 N.ar    1  UNL1       -0.2279
     40 C           1.1536    7.1924   34.8964 C.ar    1  UNL1        0.1171
     41 C           1.8536    6.1280   34.1045 C.ar    1  UNL1        0.0769
     42 N           2.7477    5.3677   35.0386 N.ar    1  UNL1       -0.3394
     43 H           3.3291    4.6113   34.7957 H       1  UNL1        0.1671
     44 C           2.4863    2.9673   37.6989 C.2     1  UNL1        0.2439
     45 O           1.6680    3.1256   36.4517 O.2     1  UNL1       -0.2731
     46 N           3.2606    4.1321   38.2408 N.am    1  UNL1       -0.2730
     47 C           4.1184    4.1249   39.4713 C.3     1  UNL1        0.0938
     48 C           4.7010    5.4970   39.6384 C.3     1  UNL1        0.0220
     49 C           5.6200    5.9366   40.7394 C.3     1  UNL1        0.0018
     50 C           4.2032    6.3522   38.5111 C.3     1  UNL1        0.0293
     51 C           3.3130    5.5088   37.6474 C.3     1  UNL1        0.1319
     52 C           2.5303    1.6441   38.4042 C.3     1  UNL1        0.1512
     53 C           4.3784    0.5013   36.9800 C.2     1  UNL1        0.4021
     54 O           3.7703    1.0719   35.7332 O.2     1  UNL1       -0.2264
     55 N           3.7583    0.7874   38.3156 N.am    1  UNL1       -0.2640
     56 H           4.1574    0.4130   39.1339 H       1  UNL1        0.1532
     57 C           6.8089    0.1329   36.1395 C.3     1  UNL1        0.2573
     58 O           5.6065   -0.3554   36.8914 O.3     1  UNL1       -0.4306
     59 C           1.3461    1.1778   39.1981 C.3     1  UNL1        0.0270
     60 C           0.2611    2.1463   39.5654 C.3     1  UNL1        0.0022
     61 C           1.2468   -0.2568   39.6246 C.3     1  UNL1        0.0022
@<TRIPOS>BOND
     1    57    58    1
     2    58    53    1
     3    53    54    2
     4    53    55   am
     5    52    55    1
     6    52    44    1
     7    44    45    2
     8    44    46   am
     9    46    47    1
    10    47    48    1
    11    48    49    1
    12    48    50    1
    13    50    51    1
    14    51    38    1
    15    38    39   ar
    16    39    40   ar
    17    40    41   ar
    18    41    32    1
    19    32    33   ar
    20    33    34   ar
    21    34    35   ar
    22    35     1    1
    23     1     2   ar
    24     2     3   ar
    25     3     4   ar
    26     4     6    1
    27     6     7    2
    28     7     8    1
    29     8     9    2
    30     9    10    1
    31    14    10    1
    32    14    15    1
    33    15    16    1
    34    16    17    1
    35    16    18    1
    36    18    19    1
    37    19    20   am
    38    20    21    2
    39    20    22    1
    40    22    23    1
    41    23    24   am
    42    24    25    2
    43    24    27    1
    44    27    28    1
    45    22    29    1
    46    29    30    1
    47    29    31    1
    48    10    11    2
    49    11    12    1
    50    12    13    1
    51     4     5   ar
    52    35    36   ar
    53    36    37   ar
    54    41    42   ar
    55    52    59    1
    56    59    60    1
    57    59    61    1
    58    51    46    1
    59    42    38   ar
    60    37    32   ar
    61     5     1   ar
    62    13     6    1
    63    12     8    1
    64    19    14    1
    65    55    56    1
    66    23    26    1
    67    42    43    1
@<TRIPOS>MOLECULE
*****
 61 67 0 0 0
SMALL
GASTEIGER

@<TRIPOS>ATOM
      1 C          -4.4247    4.1568   25.1886 C.ar    1  UNL1        0.0295
      2 C          -3.4120    3.9819   24.0960 C.ar    1  UNL1        0.0070
      3 C          -2.1603    3.4269   24.7085 C.ar    1  UNL1        0.0075
      4 C          -2.3994    3.2587   26.1798 C.ar    1  UNL1        0.0354
      5 S          -3.7988    3.7098   26.4765 S.2     1  UNL1       -0.0864
      6 C          -1.4123    2.7320   27.1788 C.2     1  UNL1        0.0390
      7 C          -1.5339    1.4489   27.9462 C.2     1  UNL1        0.0542
      8 C          -0.3270    1.3198   28.8275 C.2     1  UNL1        0.2309
      9 N           0.3437    0.4470   29.8465 N.2     1  UNL1       -0.0364
     10 C           1.6258    1.1108   30.2537 C.2     1  UNL1        0.3653
     11 N           1.7473    2.3940   29.4863 N.2     1  UNL1       -0.0462
     12 C           0.5405    2.5231   28.6049 C.3     1  UNL1        0.3308
     13 S          -0.1303    3.3959   27.5859 S.3     1  UNL1       -0.0533
     14 C           2.6128    0.5841   31.2527 C.3     1  UNL1        0.1874
     15 C           3.5601   -0.5590   31.0379 C.3     1  UNL1        0.0344
     16 C           4.3587   -0.7416   32.2945 C.3     1  UNL1        0.0221
     17 C           5.4239   -1.7733   32.5201 C.3     1  UNL1        0.0018
     18 C           3.9051    0.2887   33.2858 C.3     1  UNL1        0.0940
     19 N           2.8261    1.1080   32.6420 N.am    1  UNL1       -0.2691
     20 C           2.0897    2.2507   33.2761 C.2     1  UNL1        0.2440
     21 O           1.0299    2.9801   32.5049 O.2     1  UNL1       -0.2731
     22 C           2.4131    2.6638   34.6813 C.3     1  UNL1        0.1512
     23 N           3.0169    1.6748   35.6337 N.am    1  UNL1       -0.2640
     24 C           4.4034    1.8934   36.1630 C.2     1  UNL1        0.4021
     25 O           5.1860    3.1010   35.7398 O.2     1  UNL1       -0.2264
     26 H           2.5033    0.8821   35.9115 H       1  UNL1        0.1532
     27 O           5.0071    0.9042   37.1155 O.3     1  UNL1       -0.4306
     28 C           5.8711   -0.2064   36.5955 C.3     1  UNL1        0.2573
     29 C           2.1328    4.0662   35.1341 C.3     1  UNL1        0.0270
     30 C           1.5759    4.3146   36.5045 C.3     1  UNL1        0.0022
     31 C           2.4094    5.2201   34.2164 C.3     1  UNL1        0.0022
     32 C          -8.6060    5.7436   24.6906 C.ar    1  UNL1        0.0172
     33 C          -7.7559    6.2153   25.8328 C.ar    1  UNL1        0.0015
     34 C          -6.3621    5.6864   25.9988 C.ar    1  UNL1        0.0005
     35 C          -5.8184    4.6857   25.0226 C.ar    1  UNL1        0.0060
     36 C          -6.6686    4.2140   23.8803 C.ar    1  UNL1        0.0005
     37 C          -8.0623    4.7429   23.7143 C.ar    1  UNL1        0.0015
     38 C         -12.4150    6.4875   24.6305 C.ar    1  UNL1        0.1353
     39 N         -11.8744    7.6855   23.9076 N.ar    1  UNL1       -0.2279
     40 C         -10.3816    7.5526   23.8421 C.ar    1  UNL1        0.1171
     41 C          -9.9998    6.2726   24.5245 C.ar    1  UNL1        0.0769
     42 N         -11.2565    5.6143   25.0118 N.ar    1  UNL1       -0.3394
     43 H         -11.3113    4.7592   25.4967 H       1  UNL1        0.1671
     44 C         -14.6918    5.6776   22.4372 C.2     1  UNL1        0.2439
     45 O         -13.3285    5.8938   21.8500 O.2     1  UNL1       -0.2731
     46 N         -14.9069    5.8390   23.9129 N.am    1  UNL1       -0.2730
     47 C         -16.2064    5.6565   24.6396 C.3     1  UNL1        0.0938
     48 C         -15.9631    5.9160   26.0968 C.3     1  UNL1        0.0220
     49 C         -16.9894    5.8450   27.1884 C.3     1  UNL1        0.0018
     50 C         -14.5132    6.2588   26.2707 C.3     1  UNL1        0.0293
     51 C         -13.8604    6.2113   24.9210 C.3     1  UNL1        0.1319
     52 C         -15.8398    5.2999   21.5488 C.3     1  UNL1        0.1512
     53 C         -15.6052    3.2397   19.9833 C.2     1  UNL1        0.4021
     54 O         -14.8197    4.0684   19.0106 O.2     1  UNL1       -0.2264
     55 N         -16.1153    3.8555   21.2524 N.am    1  UNL1       -0.2640
     56 H         -16.6309    3.3117   21.8909 H       1  UNL1        0.1532
     57 C         -16.7258    0.9853   20.6248 C.3     1  UNL1        0.2573
     58 O         -15.8807    1.7954   19.6870 O.3     1  UNL1       -0.4306
     59 C         -16.7123    6.3668   20.9567 C.3     1  UNL1        0.0270
     60 C         -16.1293    7.3709   20.0070 C.3     1  UNL1        0.0022
     61 C         -18.1678    6.4295   21.3141 C.3     1  UNL1        0.0022
@<TRIPOS>BOND
     1    57    58    1
     2    58    53    1
     3    53    54    2
     4    53    55   am
     5    52    55    1
     6    52    44    1
     7    44    45    2
     8    44    46   am
     9    46    47    1
    10    47    48    1
    11    48    49    1
    12    48    50    1
    13    50    51    1
    14    51    38    1
    15    38    39   ar
    16    39    40   ar
    17    40    41   ar
    18    41    32    1
    19    32    33   ar
    20    33    34   ar
    21    34    35   ar
    22    35     1    1
    23     1     2   ar
    24     2     3   ar
    25     3     4   ar
    26     4     6    1
    27     6     7    2
    28     7     8    1
    29     8     9    2
    30     9    10    1
    31    14    10    1
    32    14    15    1
    33    15    16    1
    34    16    17    1
    35    16    18    1
    36    18    19    1
    37    19    20   am
    38    20    21    2
    39    20    22    1
    40    22    23    1
    41    23    24   am
    42    24    25    2
    43    24    27    1
    44    27    28    1
    45    22    29    1
    46    29    30    1
    47    29    31    1
    48    10    11    2
    49    11    12    1
    50    12    13    1
    51     4     5   ar
    52    35    36   ar
    53    36    37   ar
    54    41    42   ar
    55    52    59    1
    56    59    60    1
    57    59    61    1
    58    51    46    1
    59    42    38   ar
    60    37    32   ar
    61     5     1   ar
    62    13     6    1
    63    12     8    1
    64    19    14    1
    65    55    56    1
    66    23    26    1
    67    42    43    1
@<TRIPOS>MOLECULE
*****
 61 67 0 0 0
SMALL
GASTEIGER

@<TRIPOS>ATOM
      1 C          -4.7220    4.2698   25.0455 C.ar    1  UNL1        0.0295
      2 C          -3.8486    3.8301   23.9080 C.ar    1  UNL1        0.0070
      3 C          -2.5130    3.4442   24.4713 C.ar    1  UNL1        0.0075
      4 C          -2.5609    3.6454   25.9569 C.ar    1  UNL1        0.0354
      5 S          -3.9261    4.1556   26.3119 S.2     1  UNL1       -0.0864
      6 C          -1.4404    3.3825   26.9188 C.2     1  UNL1        0.0390
      7 C          -0.5186    4.4125   27.5014 C.2     1  UNL1        0.0542
      8 C           0.4466    3.7100   28.4096 C.2     1  UNL1        0.2309
      9 N           1.6129    3.9124   29.3309 N.2     1  UNL1       -0.0364
     10 C           2.0084    2.5734   29.8792 C.2     1  UNL1        0.3653
     11 N           1.0866    1.5433   29.2966 N.2     1  UNL1       -0.0462
     12 C           0.1214    2.2458   28.3884 C.3     1  UNL1        0.3308
     13 S          -1.0449    2.0434   27.4670 S.3     1  UNL1       -0.0533
     14 C           3.1289    2.3105   30.8410 C.3     1  UNL1        0.1874
     15 C           4.4628    1.7153   30.4994 C.3     1  UNL1        0.0344
     16 C           5.2706    1.6335   31.7606 C.3     1  UNL1        0.0221
     17 C           6.6677    1.1007   31.8798 C.3     1  UNL1        0.0018
     18 C           4.4361    2.1782   32.8817 C.3     1  UNL1        0.0940
     19 N           3.1125    2.5966   32.3134 N.am    1  UNL1       -0.2691
     20 C           1.9725    3.1958   33.0824 C.2     1  UNL1        0.2440
     21 O           0.7029    3.5662   32.3746 O.2     1  UNL1       -0.2731
     22 C           2.1022    3.4247   34.5591 C.3     1  UNL1        0.1512
     23 N           2.1428    2.2559   35.4985 N.am    1  UNL1       -0.2640
     24 C           3.3243    2.0603   36.4017 C.2     1  UNL1        0.4021
     25 O           4.4652    3.0335   36.3656 O.2     1  UNL1       -0.2264
     26 H           1.3939    1.6172   35.5222 H       1  UNL1        0.1532
     27 O           3.3648    0.8916   37.3411 O.3     1  UNL1       -0.4306
     28 C           2.6890    0.9797   38.6774 C.3     1  UNL1        0.2573
     29 C           2.1912    4.8223   35.0966 C.3     1  UNL1        0.0270
     30 C           3.2067    5.7762   34.5410 C.3     1  UNL1        0.0022
     31 C           1.2647    5.2660   36.1896 C.3     1  UNL1        0.0022
     32 C          -8.9816    5.6830   24.7169 C.ar    1  UNL1        0.0172
     33 C          -8.0942    6.2215   25.7996 C.ar    1  UNL1        0.0015
     34 C          -6.6743    5.7504   25.9091 C.ar    1  UNL1        0.0005
     35 C          -6.1418    4.7408   24.9359 C.ar    1  UNL1        0.0060
     36 C          -7.0293    4.2023   23.8531 C.ar    1  UNL1        0.0005
     37 C          -8.4491    4.6734   23.7436 C.ar    1  UNL1        0.0015
     38 C         -12.8094    6.3073   24.8700 C.ar    1  UNL1        0.1353
     39 N         -12.3636    7.4507   24.0074 N.ar    1  UNL1       -0.2279
     40 C         -10.8754    7.3559   23.8450 C.ar    1  UNL1        0.1171
     41 C         -10.4015    6.1541   24.6073 C.ar    1  UNL1        0.0769
     42 N         -11.5968    5.5060   25.2408 N.ar    1  UNL1       -0.3394
     43 H         -11.5871    4.6968   25.8014 H       1  UNL1        0.1671
     44 C         -15.0430    4.7111   23.1057 C.2     1  UNL1        0.2439
     45 O         -13.7138    4.8510   22.4248 O.2     1  UNL1       -0.2731
     46 N         -15.2469    5.2828   24.4774 N.am    1  UNL1       -0.2730
     47 C         -16.5132    5.2211   25.2791 C.3     1  UNL1        0.0938
     48 C         -16.2692    5.9166   26.5855 C.3     1  UNL1        0.0220
     49 C         -17.2671    6.0901   27.6918 C.3     1  UNL1        0.0018
     50 C         -14.8521    6.4082   26.5912 C.3     1  UNL1        0.0293
     51 C         -14.2202    6.0164   25.2884 C.3     1  UNL1        0.1319
     52 C         -16.1684    3.9996   22.4148 C.3     1  UNL1        0.1512
     53 C         -18.2622    2.8903   23.4804 C.2     1  UNL1        0.4021
     54 O         -19.0491    4.1445   23.2397 O.2     1  UNL1       -0.2264
     55 N         -16.8219    2.8179   23.0679 N.am    1  UNL1       -0.2640
     56 H         -16.3054    1.9947   23.2259 H       1  UNL1        0.1532
     57 C         -20.4113    1.5978   24.1590 C.3     1  UNL1        0.2573
     58 O         -18.9157    1.7086   24.1335 O.3     1  UNL1       -0.4306
     59 C         -16.6402    4.4698   21.0708 C.3     1  UNL1        0.0270
     60 C         -17.1643    5.8656   20.9062 C.3     1  UNL1        0.0022
     61 C         -16.5880    3.5444   19.8915 C.3     1  UNL1        0.0022
@<TRIPOS>BOND
     1    57    58    1
     2    58    53    1
     3    53    54    2
     4    53    55   am
     5    52    55    1
     6    52    44    1
     7    44    45    2
     8    44    46   am
     9    46    47    1
    10    47    48    1
    11    48    49    1
    12    48    50    1
    13    50    51    1
    14    51    38    1
    15    38    39   ar
    16    39    40   ar
    17    40    41   ar
    18    41    32    1
    19    32    33   ar
    20    33    34   ar
    21    34    35   ar
    22    35     1    1
    23     1     2   ar
    24     2     3   ar
    25     3     4   ar
    26     4     6    1
    27     6     7    2
    28     7     8    1
    29     8     9    2
    30     9    10    1
    31    14    10    1
    32    14    15    1
    33    15    16    1
    34    16    17    1
    35    16    18    1
    36    18    19    1
    37    19    20   am
    38    20    21    2
    39    20    22    1
    40    22    23    1
    41    23    24   am
    42    24    25    2
    43    24    27    1
    44    27    28    1
    45    22    29    1
    46    29    30    1
    47    29    31    1
    48    10    11    2
    49    11    12    1
    50    12    13    1
    51     4     5   ar
    52    35    36   ar
    53    36    37   ar
    54    41    42   ar
    55    52    59    1
    56    59    60    1
    57    59    61    1
    58    51    46    1
    59    42    38   ar
    60    37    32   ar
    61     5     1   ar
    62    13     6    1
    63    12     8    1
    64    19    14    1
    65    55    56    1
    66    23    26    1
    67    42    43    1
@<TRIPOS>MOLECULE
*****
 61 67 0 0 0
SMALL
GASTEIGER

@<TRIPOS>ATOM
      1 C           1.5067    1.3063   29.2919 C.ar    1  UNL1        0.0295
      2 C           1.9048   -0.1374   29.3782 C.ar    1  UNL1        0.0070
      3 C           2.7586   -0.3107   30.5992 C.ar    1  UNL1        0.0075
      4 C           2.8883    1.0259   31.2677 C.ar    1  UNL1        0.0354
      5 S           2.1146    2.0252   30.4598 S.2     1  UNL1       -0.0864
      6 C           3.6567    1.3127   32.5235 C.2     1  UNL1        0.0390
      7 C           5.0467    1.8715   32.5984 C.2     1  UNL1        0.0542
      8 C           5.4191    1.9952   34.0462 C.2     1  UNL1        0.2309
      9 N           6.5083    2.4171   34.9873 N.2     1  UNL1       -0.0364
     10 C           6.0217    2.1954   36.3888 C.2     1  UNL1        0.3653
     11 N           4.6317    1.6365   36.3138 N.2     1  UNL1       -0.0462
     12 C           4.2593    1.5128   34.8660 C.3     1  UNL1        0.3308
     13 S           3.1701    1.0910   33.9250 S.3     1  UNL1       -0.0533
     14 C           6.7901    2.4822   37.6446 C.3     1  UNL1        0.1874
     15 C           7.9411    1.6806   38.1765 C.3     1  UNL1        0.0344
     16 C           8.4048    2.3240   39.4497 C.3     1  UNL1        0.0221
     17 C           9.5345    1.8512   40.3159 C.3     1  UNL1        0.0018
     18 C           7.5405    3.5232   39.7047 C.3     1  UNL1        0.0940
     19 N           6.5426    3.6210   38.5891 N.am    1  UNL1       -0.2691
     20 C           5.4832    4.6728   38.4435 C.2     1  UNL1        0.2440
     21 O           4.5518    4.6415   37.2680 O.2     1  UNL1       -0.2731
     22 C           5.3551    5.7558   39.4733 C.3     1  UNL1        0.1512
     23 N           4.1138    5.8522   40.3100 N.am    1  UNL1       -0.2640
     24 C           4.0252    5.1073   41.6090 C.2     1  UNL1        0.4021
     25 O           5.1779    4.2662   42.0714 O.2     1  UNL1       -0.2264
     26 H           3.3573    6.4043   40.0065 H       1  UNL1        0.1532
     27 O           2.7839    5.2038   42.4456 O.3     1  UNL1       -0.4306
     28 C           2.5261    6.4329   43.2660 C.3     1  UNL1        0.2573
     29 C           6.4683    6.7426   39.6665 C.3     1  UNL1        0.0270
     30 C           7.2759    7.2021   38.4891 C.3     1  UNL1        0.0022
     31 C           6.7737    7.2697   41.0372 C.3     1  UNL1        0.0022
     32 C          -1.0602    3.1557   26.0920 C.ar    1  UNL1        0.0172
     33 C          -0.6806    3.9542   27.3036 C.ar    1  UNL1        0.0015
     34 C           0.1751    3.3378   28.3703 C.ar    1  UNL1        0.0005
     35 C           0.6511    1.9227   28.2253 C.ar    1  UNL1        0.0060
     36 C           0.2714    1.1242   27.0136 C.ar    1  UNL1        0.0005
     37 C          -0.5842    1.7406   25.9470 C.ar    1  UNL1        0.0015
     38 C          -3.1144    4.1246   22.9444 C.ar    1  UNL1        0.1353
     39 N          -3.3508    5.3171   23.8231 N.ar    1  UNL1       -0.2279
     40 C          -2.6101    5.0993   25.1092 C.ar    1  UNL1        0.1171
     41 C          -1.9159    3.7722   25.0253 C.ar    1  UNL1        0.0769
     42 N          -2.2276    3.1698   23.6874 N.ar    1  UNL1       -0.3394
     43 H          -1.9064    2.3004   23.3552 H       1  UNL1        0.1671
     44 C          -1.3759    3.9342   20.1892 C.2     1  UNL1        0.2439
     45 O          -0.5456    4.1400   21.4215 O.2     1  UNL1       -0.2731
     46 N          -2.8686    3.8349   20.2985 N.am    1  UNL1       -0.2730
     47 C          -3.8243    3.6307   19.1606 C.3     1  UNL1        0.0938
     48 C          -5.2140    3.5919   19.7236 C.3     1  UNL1        0.0220
     49 C          -6.4786    3.4056   18.9386 C.3     1  UNL1        0.0018
     50 C          -5.1172    3.7722   21.2096 C.3     1  UNL1        0.0293
     51 C          -3.6677    3.9224   21.5649 C.3     1  UNL1        0.1319
     52 C          -0.7133    3.8277   18.8477 C.3     1  UNL1        0.1512
     53 C           1.6541    2.7667   18.9877 C.2     1  UNL1        0.4021
     54 O           2.1576    3.9850   19.7036 O.2     1  UNL1       -0.2264
     55 N           0.2186    2.6881   18.5598 N.am    1  UNL1       -0.2640
     56 H          -0.1119    1.8886   18.0899 H       1  UNL1        0.1532
     57 C           2.0484    0.3389   18.1511 C.3     1  UNL1        0.2573
     58 O           2.5860    1.6272   18.6999 O.3     1  UNL1       -0.4306
     59 C          -0.9828    4.8608   17.7941 C.3     1  UNL1        0.0270
     60 C          -1.2368    4.4386   16.3773 C.3     1  UNL1        0.0022
     61 C          -0.9982    6.3161   18.1572 C.3     1  UNL1        0.0022
@<TRIPOS>BOND
     1    57    58    1
     2    58    53    1
     3    53    54    2
     4    53    55   am
     5    52    55    1
     6    52    44    1
     7    44    45    2
     8    44    46   am
     9    46    47    1
    10    47    48    1
    11    48    49    1
    12    48    50    1
    13    50    51    1
    14    51    38    1
    15    38    39   ar
    16    39    40   ar
    17    40    41   ar
    18    41    32    1
    19    32    33   ar
    20    33    34   ar
    21    34    35   ar
    22    35     1    1
    23     1     2   ar
    24     2     3   ar
    25     3     4   ar
    26     4     6    1
    27     6     7    2
    28     7     8    1
    29     8     9    2
    30     9    10    1
    31    14    10    1
    32    14    15    1
    33    15    16    1
    34    16    17    1
    35    16    18    1
    36    18    19    1
    37    19    20   am
    38    20    21    2
    39    20    22    1
    40    22    23    1
    41    23    24   am
    42    24    25    2
    43    24    27    1
    44    27    28    1
    45    22    29    1
    46    29    30    1
    47    29    31    1
    48    10    11    2
    49    11    12    1
    50    12    13    1
    51     4     5   ar
    52    35    36   ar
    53    36    37   ar
    54    41    42   ar
    55    52    59    1
    56    59    60    1
    57    59    61    1
    58    51    46    1
    59    42    38   ar
    60    37    32   ar
    61     5     1   ar
    62    13     6    1
    63    12     8    1
    64    19    14    1
    65    55    56    1
    66    23    26    1
    67    42    43    1
@<TRIPOS>MOLECULE
*****
 61 67 0 0 0
SMALL
GASTEIGER

@<TRIPOS>ATOM
      1 C          -4.5322    5.0589   23.1971 C.ar    1  UNL1        0.0295
      2 C          -4.4278    6.3627   23.9314 C.ar    1  UNL1        0.0070
      3 C          -5.7987    6.7339   24.4141 C.ar    1  UNL1        0.0075
      4 C          -6.7503    5.6595   23.9783 C.ar    1  UNL1        0.0354
      5 S          -5.9677    4.6242   23.2261 S.2     1  UNL1       -0.0864
      6 C          -8.2256    5.6261   24.2473 C.2     1  UNL1        0.0390
      7 C          -9.1180    6.8198   24.4173 C.2     1  UNL1        0.0542
      8 C         -10.5114    6.3246   24.6686 C.2     1  UNL1        0.2309
      9 N         -11.9242    6.7563   24.9290 N.2     1  UNL1       -0.0364
     10 C         -12.7661    5.5235   25.0754 C.2     1  UNL1        0.3653
     11 N         -11.8736    4.3299   24.9055 N.2     1  UNL1       -0.0462
     12 C         -10.4802    4.8250   24.6541 C.3     1  UNL1        0.3308
     13 S          -9.0675    4.3933   24.3937 S.3     1  UNL1       -0.0533
     14 C         -14.2413    5.4902   25.3445 C.3     1  UNL1        0.1874
     15 C         -14.9051    5.7846   26.6571 C.3     1  UNL1        0.0344
     16 C         -16.3859    5.6329   26.4720 C.3     1  UNL1        0.0221
     17 C         -17.4316    5.8340   27.5284 C.3     1  UNL1        0.0018
     18 C         -16.6374    5.2448   25.0451 C.3     1  UNL1        0.0940
     19 N         -15.3120    5.1566   24.3482 N.am    1  UNL1       -0.2691
     20 C         -15.0952    4.7978   22.9080 C.2     1  UNL1        0.2440
     21 O         -13.7044    4.7497   22.3481 O.2     1  UNL1       -0.2731
     22 C         -16.2693    4.4870   22.0276 C.3     1  UNL1        0.1512
     23 N         -16.9515    3.1550   22.1297 N.am    1  UNL1       -0.2640
     24 C         -16.6730    2.0897   21.1110 C.2     1  UNL1        0.4021
     25 O         -15.7123    2.3564   19.9903 O.2     1  UNL1       -0.2264
     26 H         -17.5820    2.9800   22.8652 H       1  UNL1        0.1532
     27 O         -17.3553    0.7578   21.2131 O.3     1  UNL1       -0.4306
     28 C         -17.1414   -0.2779   20.1493 C.3     1  UNL1        0.2573
     29 C         -16.7611    5.5083   21.0451 C.3     1  UNL1        0.0270
     30 C         -17.9986    5.2402   20.2409 C.3     1  UNL1        0.0022
     31 C         -16.0155    6.7976   20.8670 C.3     1  UNL1        0.0022
     32 C          -1.1358    2.8407   21.2494 C.ar    1  UNL1        0.0172
     33 C          -1.0406    3.2415   22.6917 C.ar    1  UNL1        0.0015
     34 C          -2.1728    3.9809   23.3409 C.ar    1  UNL1        0.0005
     35 C          -3.4001    4.3195   22.5479 C.ar    1  UNL1        0.0060
     36 C          -3.4953    3.9186   21.1055 C.ar    1  UNL1        0.0005
     37 C          -2.3632    3.1793   20.4563 C.ar    1  UNL1        0.0015
     38 C           2.2058    1.5225   19.7792 C.ar    1  UNL1        0.1353
     39 N           1.2714    0.4045   19.4228 N.ar    1  UNL1       -0.2279
     40 C          -0.0942    0.7622   19.9303 C.ar    1  UNL1        0.1171
     41 C          -0.0036    2.1013   20.6001 C.ar    1  UNL1        0.0769
     42 N           1.4178    2.5712   20.5068 N.ar    1  UNL1       -0.3394
     43 H           1.7715    3.4190   20.8609 H       1  UNL1        0.1671
     44 C           4.4627   -0.6313   20.7371 C.2     1  UNL1        0.2439
     45 O           3.0748   -0.9523   21.2069 O.2     1  UNL1       -0.2731
     46 N           4.7084    0.5915   19.9037 N.am    1  UNL1       -0.2730
     47 C           6.0345    1.0389   19.3642 C.3     1  UNL1        0.0938
     48 C           5.8168    2.3054   18.5905 C.3     1  UNL1        0.0220
     49 C           6.8742    3.0975   17.8802 C.3     1  UNL1        0.0018
     50 C           4.3561    2.6407   18.6518 C.3     1  UNL1        0.0293
     51 C           3.6710    1.5814   19.4634 C.3     1  UNL1        0.1319
     52 C           5.6049   -1.5330   21.1007 C.3     1  UNL1        0.1512
     53 C           5.8901   -1.9946   23.6415 C.2     1  UNL1        0.4021
     54 O           4.6836   -2.8856   23.6149 O.2     1  UNL1       -0.2264
     55 N           6.3507   -1.3183   22.3843 N.am    1  UNL1       -0.2640
     56 H           7.1425   -0.7336   22.4017 H       1  UNL1        0.1532
     57 C           6.1399   -2.4065   26.1944 C.3     1  UNL1        0.2573
     58 O           6.6358   -1.7800   24.9251 O.3     1  UNL1       -0.4306
     59 C           6.0013   -2.6494   20.1806 C.3     1  UNL1        0.0270
     60 C           5.3484   -2.7811   18.8365 C.3     1  UNL1        0.0022
     61 C           7.0504   -3.6341   20.6045 C.3     1  UNL1        0.0022
@<TRIPOS>BOND
     1    57    58    1
     2    58    53    1
     3    53    54    2
     4    53    55   am
     5    52    55    1
     6    52    44    1
     7    44    45    2
     8    44    46   am
     9    46    47    1
    10    47    48    1
    11    48    49    1
    12    48    50    1
    13    50    51    1
    14    51    38    1
    15    38    39   ar
    16    39    40   ar
    17    40    41   ar
    18    41    32    1
    19    32    33   ar
    20    33    34   ar
    21    34    35   ar
    22    35     1    1
    23     1     2   ar
    24     2     3   ar
    25     3     4   ar
    26     4     6    1
    27     6     7    2
    28     7     8    1
    29     8     9    2
    30     9    10    1
    31    14    10    1
    32    14    15    1
    33    15    16    1
    34    16    17    1
    35    16    18    1
    36    18    19    1
    37    19    20   am
    38    20    21    2
    39    20    22    1
    40    22    23    1
    41    23    24   am
    42    24    25    2
    43    24    27    1
    44    27    28    1
    45    22    29    1
    46    29    30    1
    47    29    31    1
    48    10    11    2
    49    11    12    1
    50    12    13    1
    51     4     5   ar
    52    35    36   ar
    53    36    37   ar
    54    41    42   ar
    55    52    59    1
    56    59    60    1
    57    59    61    1
    58    51    46    1
    59    42    38   ar
    60    37    32   ar
    61     5     1   ar
    62    13     6    1
    63    12     8    1
    64    19    14    1
    65    55    56    1
    66    23    26    1
    67    42    43    1
