@<TRIPOS>MOLECULE
*****
 35 39 0 0 0
SMALL
GASTEIGER

@<TRIPOS>ATOM
      1 C           8.0711   -8.0385   26.3525 C.ar    1  UNL1       -0.0025
      2 C           7.1168   -6.8851   26.4475 C.ar    1  UNL1       -0.0013
      3 C           7.1571   -5.7919   25.4212 C.ar    1  UNL1        0.0181
      4 C           8.1516   -5.8520   24.2999 C.ar    1  UNL1        0.1056
      5 C           9.1059   -7.0055   24.2050 C.ar    1  UNL1        0.0181
      6 C           9.0656   -8.0987   25.2312 C.ar    1  UNL1       -0.0013
      7 S           8.1919   -4.7589   23.2737 S.O2    1  UNL1        0.0071
      8 O           8.0011   -3.7368   24.3548 O.2     1  UNL1       -0.1687
      9 O           8.3827   -5.7809   22.1925 O.2     1  UNL1       -0.1687
     10 C           8.2322   -3.6657   22.2474 C.3     1  UNL1        0.1366
     11 C           7.3941   -2.4350   22.4292 C.3     1  UNL1        0.0413
     12 C           7.4344   -1.3418   21.4029 C.3     1  UNL1        0.0738
     13 N           8.3128   -1.4792   20.1948 N.3     1  UNL1       -0.2737
     14 C           9.1509   -2.7098   20.0130 C.3     1  UNL1        0.0738
     15 C           9.1106   -3.8031   21.0393 C.3     1  UNL1        0.0413
     16 C           8.3531   -0.3860   19.1686 C.3     1  UNL1        0.0625
     17 C           7.2514   -0.2652   18.1577 C.3     1  UNL1        0.0481
     18 C           7.2916    0.8280   17.1315 C.3     1  UNL1        0.1435
     19 O           8.4336    1.8004   17.1160 O.3     1  UNL1       -0.3537
     20 C           9.5353    1.6797   18.1267 C.3     1  UNL1        0.1435
     21 C           9.4950    0.5864   19.1531 C.3     1  UNL1        0.0481
     22 C           8.0308   -9.1318   27.3788 C.3     1  UNL1        0.1167
     23 O           8.1748  -12.0618   28.0062 O.2     1  UNL1       -0.2668
     24 C           6.8419  -11.3815   27.9033 C.2     1  UNL1        0.2808
     25 N           6.7699   -9.9165   27.5896 N.am    1  UNL1       -0.2944
     26 H           5.8951   -9.4700   27.5220 H       1  UNL1        0.1501
     27 C           5.5811  -12.1663   28.1140 C.ar    1  UNL1        0.1984
     28 C           4.4737  -11.8172   29.0637 C.ar    1  UNL1        0.0453
     29 C           3.4144  -12.8731   28.9487 C.ar    1  UNL1        0.0409
     30 C           2.0961  -13.0519   29.6416 C.ar    1  UNL1        0.0238
     31 C           1.2306  -14.2322   29.3138 C.ar    1  UNL1        0.0991
     32 N           1.6833  -15.2338   28.2931 N.ar    1  UNL1       -0.2391
     33 C           3.0016  -15.0551   27.6002 C.ar    1  UNL1        0.1362
     34 C           3.8672  -13.8747   27.9280 C.ar    1  UNL1        0.1646
     35 O           5.2062  -13.4378   27.4122 O.2     1  UNL1       -0.4473
@<TRIPOS>BOND
     1    23    24    2
     2    24    25   am
     3    25    22    1
     4    22     1    1
     5     1     2   ar
     6     2     3   ar
     7     3     4   ar
     8     4     7    1
     9     7     8    2
    10     7     9    2
    11     7    10    1
    12    10    11    1
    13    11    12    1
    14    12    13    1
    15    13    16    1
    16    16    17    1
    17    17    18    1
    18    18    19    1
    19    19    20    1
    20    20    21    1
    21    13    14    1
    22    14    15    1
    23     4     5   ar
    24     5     6   ar
    25    24    27    1
    26    27    28   ar
    27    28    29   ar
    28    29    30   ar
    29    30    31   ar
    30    31    32   ar
    31    32    33   ar
    32    33    34   ar
    33    34    35   ar
    34     6     1   ar
    35    35    27   ar
    36    15    10    1
    37    34    29   ar
    38    21    16    1
    39    25    26    1
@<TRIPOS>MOLECULE
*****
 35 39 0 0 0
SMALL
GASTEIGER

@<TRIPOS>ATOM
      1 C           6.2731   -3.0609   28.5815 C.ar    1  UNL1       -0.0025
      2 C           6.6423   -3.6471   29.9119 C.ar    1  UNL1       -0.0013
      3 C           6.2473   -2.9443   31.1769 C.ar    1  UNL1        0.0181
      4 C           5.4830   -1.6553   31.1114 C.ar    1  UNL1        0.1056
      5 C           5.1138   -1.0691   29.7809 C.ar    1  UNL1        0.0181
      6 C           5.5088   -1.7719   28.5160 C.ar    1  UNL1       -0.0013
      7 S           5.0880   -0.9525   32.3763 S.O2    1  UNL1        0.0071
      8 O           3.9674   -1.9307   32.5698 O.2     1  UNL1       -0.1687
      9 O           6.2086    0.0256   32.1828 O.2     1  UNL1       -0.1687
     10 C           4.6930   -0.2498   33.6412 C.3     1  UNL1        0.1366
     11 C           3.8757    1.0065   33.5774 C.3     1  UNL1        0.0413
     12 C           3.4807    1.7093   34.8423 C.3     1  UNL1        0.0738
     13 N           3.9028    1.1559   36.1710 N.3     1  UNL1       -0.2737
     14 C           4.7200   -0.1003   36.2348 C.3     1  UNL1        0.0738
     15 C           5.1151   -0.8032   34.9699 C.3     1  UNL1        0.0413
     16 C           3.5078    1.8587   37.4359 C.3     1  UNL1        0.0625
     17 C           4.4379    2.8551   38.0622 C.3     1  UNL1        0.0481
     18 C           4.0428    3.5579   39.3270 C.3     1  UNL1        0.1435
     19 O           2.7178    3.2643   39.9658 O.3     1  UNL1       -0.3537
     20 C           1.7877    2.2679   39.3396 C.3     1  UNL1        0.1435
     21 C           2.1827    1.5650   38.0746 C.3     1  UNL1        0.0481
     22 C           6.6681   -3.7637   27.3165 C.3     1  UNL1        0.1167
     23 O           7.5223   -5.1042   24.7724 O.2     1  UNL1       -0.2668
     24 C           6.4380   -4.0682   24.7467 C.2     1  UNL1        0.2808
     25 N           6.0108   -3.3979   26.0187 N.am    1  UNL1       -0.2944
     26 H           5.2991   -2.7179   26.0019 H       1  UNL1        0.1501
     27 C           5.7807   -3.7024   23.4489 C.ar    1  UNL1        0.1984
     28 C           4.7502   -2.6300   23.2539 C.ar    1  UNL1        0.0453
     29 C           4.3711   -2.6097   21.8027 C.ar    1  UNL1        0.0409
     30 C           3.4038   -1.7630   21.0298 C.ar    1  UNL1        0.0238
     31 C           3.2328   -1.9762   19.5550 C.ar    1  UNL1        0.0991
     32 N           4.0290   -3.0360   18.8530 N.ar    1  UNL1       -0.2391
     33 C           4.9964   -3.8826   19.6259 C.ar    1  UNL1        0.1362
     34 C           5.1674   -3.6695   21.1008 C.ar    1  UNL1        0.1646
     35 O           6.0386   -4.3448   22.1182 O.2     1  UNL1       -0.4473
@<TRIPOS>BOND
     1    23    24    2
     2    24    25   am
     3    25    22    1
     4    22     1    1
     5     1     2   ar
     6     2     3   ar
     7     3     4   ar
     8     4     7    1
     9     7     8    2
    10     7     9    2
    11     7    10    1
    12    10    11    1
    13    11    12    1
    14    12    13    1
    15    13    16    1
    16    16    17    1
    17    17    18    1
    18    18    19    1
    19    19    20    1
    20    20    21    1
    21    13    14    1
    22    14    15    1
    23     4     5   ar
    24     5     6   ar
    25    24    27    1
    26    27    28   ar
    27    28    29   ar
    28    29    30   ar
    29    30    31   ar
    30    31    32   ar
    31    32    33   ar
    32    33    34   ar
    33    34    35   ar
    34     6     1   ar
    35    35    27   ar
    36    15    10    1
    37    34    29   ar
    38    21    16    1
    39    25    26    1
@<TRIPOS>MOLECULE
*****
 35 39 0 0 0
SMALL
GASTEIGER

@<TRIPOS>ATOM
      1 C           8.0577   -8.4605   27.3842 C.ar    1  UNL1       -0.0025
      2 C           7.6874   -7.9653   26.0175 C.ar    1  UNL1       -0.0013
      3 C           7.8297   -6.5100   25.6831 C.ar    1  UNL1        0.0181
      4 C           8.3423   -5.5499   26.7153 C.ar    1  UNL1        0.1056
      5 C           8.7126   -6.0451   28.0820 C.ar    1  UNL1        0.0181
      6 C           8.5702   -7.5004   28.4164 C.ar    1  UNL1       -0.0013
      7 S           8.4846   -4.0946   26.3810 S.O2    1  UNL1        0.0071
      8 O           8.6707   -3.7786   27.8354 O.2     1  UNL1       -0.1687
      9 O           8.2986   -4.4106   24.9265 O.2     1  UNL1       -0.1687
     10 C           8.6270   -2.6393   26.0466 C.3     1  UNL1        0.1366
     11 C           8.2439   -2.1418   24.6843 C.3     1  UNL1        0.0413
     12 C           8.3862   -0.6865   24.3499 C.3     1  UNL1        0.0738
     13 N           8.9116    0.2713   25.3778 N.3     1  UNL1       -0.2737
     14 C           9.2947   -0.2261   26.7400 C.3     1  UNL1        0.0738
     15 C           9.1523   -1.6815   27.0745 C.3     1  UNL1        0.0413
     16 C           9.0539    1.7266   25.0434 C.3     1  UNL1        0.0625
     17 C           8.8658    2.1934   23.6303 C.3     1  UNL1        0.0481
     18 C           9.0081    3.6486   23.2959 C.3     1  UNL1        0.1435
     19 O           9.3386    4.6372   24.3746 O.3     1  UNL1       -0.3537
     20 C           9.5267    4.1705   25.7876 C.3     1  UNL1        0.1435
     21 C           9.3844    2.7152   26.1221 C.3     1  UNL1        0.0481
     22 C           7.9154   -9.9159   27.7186 C.3     1  UNL1        0.1167
     23 O           7.6033  -12.7529   28.6424 O.2     1  UNL1       -0.2668
     24 C           6.3993  -11.9660   28.2169 C.2     1  UNL1        0.2808
     25 N           6.5553  -10.5475   27.7550 N.am    1  UNL1       -0.2944
     26 H           5.7651  -10.0310   27.4757 H       1  UNL1        0.1501
     27 C           5.0393  -12.5977   28.2533 C.ar    1  UNL1        0.1984
     28 C           3.7512  -11.8996   28.5753 C.ar    1  UNL1        0.0453
     29 C           2.6444  -12.9088   28.4951 C.ar    1  UNL1        0.0409
     30 C           1.1646  -12.7949   28.7124 C.ar    1  UNL1        0.0238
     31 C           0.2888  -14.0028   28.5581 C.ar    1  UNL1        0.0991
     32 N           0.8928  -15.3246   28.1866 N.ar    1  UNL1       -0.2391
     33 C           2.3725  -15.4385   27.9693 C.ar    1  UNL1        0.1362
     34 C           3.2483  -14.2306   28.1236 C.ar    1  UNL1        0.1646
     35 O           4.7284  -14.0383   27.9741 O.2     1  UNL1       -0.4473
@<TRIPOS>BOND
     1    23    24    2
     2    24    25   am
     3    25    22    1
     4    22     1    1
     5     1     2   ar
     6     2     3   ar
     7     3     4   ar
     8     4     7    1
     9     7     8    2
    10     7     9    2
    11     7    10    1
    12    10    11    1
    13    11    12    1
    14    12    13    1
    15    13    16    1
    16    16    17    1
    17    17    18    1
    18    18    19    1
    19    19    20    1
    20    20    21    1
    21    13    14    1
    22    14    15    1
    23     4     5   ar
    24     5     6   ar
    25    24    27    1
    26    27    28   ar
    27    28    29   ar
    28    29    30   ar
    29    30    31   ar
    30    31    32   ar
    31    32    33   ar
    32    33    34   ar
    33    34    35   ar
    34     6     1   ar
    35    35    27   ar
    36    15    10    1
    37    34    29   ar
    38    21    16    1
    39    25    26    1
@<TRIPOS>MOLECULE
*****
 35 39 0 0 0
SMALL
GASTEIGER

@<TRIPOS>ATOM
      1 C           0.4696    1.7640   25.6975 C.ar    1  UNL1       -0.0025
      2 C          -0.5314    1.3361   26.7293 C.ar    1  UNL1       -0.0013
      3 C          -0.1776    1.3917   28.1860 C.ar    1  UNL1        0.0181
      4 C           1.1774    1.8752   28.6107 C.ar    1  UNL1        0.1056
      5 C           2.1785    2.3030   27.5787 C.ar    1  UNL1        0.0181
      6 C           1.8246    2.2474   26.1222 C.ar    1  UNL1       -0.0013
      7 S           1.5313    1.9308   30.0672 S.O2    1  UNL1        0.0071
      8 O           0.9084    0.5814   30.2701 O.2     1  UNL1       -0.1687
      9 O           2.1542    3.2801   29.8644 O.2     1  UNL1       -0.1687
     10 C           1.8852    1.9864   31.5238 C.3     1  UNL1        0.1366
     11 C           2.8101    0.9616   32.1106 C.3     1  UNL1        0.0413
     12 C           3.1640    1.0172   33.5671 C.3     1  UNL1        0.0738
     13 N           2.5930    2.0976   34.4370 N.3     1  UNL1       -0.2737
     14 C           1.6682    3.1224   33.8503 C.3     1  UNL1        0.0738
     15 C           1.3142    3.0668   32.3937 C.3     1  UNL1        0.0413
     16 C           2.9470    2.1532   35.8936 C.3     1  UNL1        0.0625
     17 C           2.3453    3.2100   36.7718 C.3     1  UNL1        0.0481
     18 C           2.6992    3.2656   38.2283 C.3     1  UNL1        0.1435
     19 O           3.6547    2.2645   38.8068 O.3     1  UNL1       -0.3537
     20 C           4.2564    1.2077   37.9286 C.3     1  UNL1        0.1435
     21 C           3.9025    1.1520   36.4720 C.3     1  UNL1        0.0481
     22 C           0.1157    1.7084   24.2408 C.3     1  UNL1        0.1167
     23 O          -0.5256    1.7109   21.3102 O.2     1  UNL1       -0.2668
     24 C           0.7132    1.0258   21.8063 C.2     1  UNL1        0.2808
     25 N           1.0338    1.0245   23.2716 N.am    1  UNL1       -0.2944
     26 H           1.8468    0.5748   23.5972 H       1  UNL1        0.1501
     27 C           1.6312    0.3419   20.8370 C.ar    1  UNL1        0.1984
     28 C           2.4096   -0.9140   21.0959 C.ar    1  UNL1        0.0453
     29 C           3.1916   -1.2383   19.8576 C.ar    1  UNL1        0.0409
     30 C           4.1342   -2.3582   19.5303 C.ar    1  UNL1        0.0238
     31 C           4.7816   -2.4228   18.1789 C.ar    1  UNL1        0.0991
     32 N           4.4865   -1.3674   17.1546 N.ar    1  UNL1       -0.2391
     33 C           3.5439   -0.2474   17.4819 C.ar    1  UNL1        0.1362
     34 C           2.8964   -0.1829   18.8334 C.ar    1  UNL1        0.1646
     35 O           1.9321    0.7937   19.4387 O.2     1  UNL1       -0.4473
@<TRIPOS>BOND
     1    23    24    2
     2    24    25   am
     3    25    22    1
     4    22     1    1
     5     1     2   ar
     6     2     3   ar
     7     3     4   ar
     8     4     7    1
     9     7     8    2
    10     7     9    2
    11     7    10    1
    12    10    11    1
    13    11    12    1
    14    12    13    1
    15    13    16    1
    16    16    17    1
    17    17    18    1
    18    18    19    1
    19    19    20    1
    20    20    21    1
    21    13    14    1
    22    14    15    1
    23     4     5   ar
    24     5     6   ar
    25    24    27    1
    26    27    28   ar
    27    28    29   ar
    28    29    30   ar
    29    30    31   ar
    30    31    32   ar
    31    32    33   ar
    32    33    34   ar
    33    34    35   ar
    34     6     1   ar
    35    35    27   ar
    36    15    10    1
    37    34    29   ar
    38    21    16    1
    39    25    26    1
@<TRIPOS>MOLECULE
*****
 35 39 0 0 0
SMALL
GASTEIGER

@<TRIPOS>ATOM
      1 C           0.7447    1.5126   26.4110 C.ar    1  UNL1       -0.0025
      2 C          -0.2567    1.1134   27.4539 C.ar    1  UNL1       -0.0013
      3 C           0.0806    1.2506   28.9091 C.ar    1  UNL1        0.0181
      4 C           1.4195    1.7870   29.3213 C.ar    1  UNL1        0.1056
      5 C           2.4209    2.1862   28.2783 C.ar    1  UNL1        0.0181
      6 C           2.0836    2.0490   26.8232 C.ar    1  UNL1       -0.0013
      7 S           1.7568    1.9241   30.7764 S.O2    1  UNL1        0.0071
      8 O           1.7595    3.4174   30.6350 O.2     1  UNL1       -0.1687
      9 O           1.7542    0.4309   30.9178 O.2     1  UNL1       -0.1687
     10 C           2.0942    2.0613   32.2315 C.3     1  UNL1        0.1366
     11 C           1.4856    3.1675   33.0415 C.3     1  UNL1        0.0413
     12 C           1.8229    3.3046   34.4966 C.3     1  UNL1        0.0738
     13 N           2.7690    2.3357   35.1417 N.3     1  UNL1       -0.2737
     14 C           3.3776    1.2296   34.3318 C.3     1  UNL1        0.0738
     15 C           3.0402    1.0924   32.8766 C.3     1  UNL1        0.0413
     16 C           3.1063    2.4729   36.5968 C.3     1  UNL1        0.0625
     17 C           3.5626    1.2757   37.3770 C.3     1  UNL1        0.0481
     18 C           3.9000    1.4129   38.8321 C.3     1  UNL1        0.1435
     19 O           3.7811    2.7472   39.5070 O.3     1  UNL1       -0.3537
     20 C           3.3248    3.9443   38.7269 C.3     1  UNL1        0.1435
     21 C           2.9874    3.8072   37.2717 C.3     1  UNL1        0.0481
     22 C           0.4074    1.3755   24.9559 C.3     1  UNL1        0.1167
     23 O           2.7436    1.9638   23.1683 O.2     1  UNL1       -0.2668
     24 C           2.1934    0.5707   23.2493 C.2     1  UNL1        0.2808
     25 N           1.0253    0.2766   24.1431 N.am    1  UNL1       -0.2944
     26 H           0.6641   -0.6378   24.1963 H       1  UNL1        0.1501
     27 C           2.8113   -0.5282   22.4365 C.ar    1  UNL1        0.1984
     28 C           2.6397   -0.7370   20.9611 C.ar    1  UNL1        0.0453
     29 C           3.4317   -1.9491   20.5692 C.ar    1  UNL1        0.0409
     30 C           3.6362   -2.6305   19.2487 C.ar    1  UNL1        0.0238
     31 C           4.5019   -3.8524   19.1615 C.ar    1  UNL1        0.0991
     32 N           5.1630   -4.3928   20.3947 N.ar    1  UNL1       -0.2391
     33 C           4.9584   -3.7113   21.7152 C.ar    1  UNL1        0.1362
     34 C           4.0928   -2.4895   21.8024 C.ar    1  UNL1        0.1646
     35 O           3.7094   -1.6113   22.9565 O.2     1  UNL1       -0.4473
@<TRIPOS>BOND
     1    23    24    2
     2    24    25   am
     3    25    22    1
     4    22     1    1
     5     1     2   ar
     6     2     3   ar
     7     3     4   ar
     8     4     7    1
     9     7     8    2
    10     7     9    2
    11     7    10    1
    12    10    11    1
    13    11    12    1
    14    12    13    1
    15    13    16    1
    16    16    17    1
    17    17    18    1
    18    18    19    1
    19    19    20    1
    20    20    21    1
    21    13    14    1
    22    14    15    1
    23     4     5   ar
    24     5     6   ar
    25    24    27    1
    26    27    28   ar
    27    28    29   ar
    28    29    30   ar
    29    30    31   ar
    30    31    32   ar
    31    32    33   ar
    32    33    34   ar
    33    34    35   ar
    34     6     1   ar
    35    35    27   ar
    36    15    10    1
    37    34    29   ar
    38    21    16    1
    39    25    26    1
@<TRIPOS>MOLECULE
*****
 35 39 0 0 0
SMALL
GASTEIGER

@<TRIPOS>ATOM
      1 C           6.5908   -4.1122   27.6333 C.ar    1  UNL1       -0.0025
      2 C           6.1954   -2.6655   27.6619 C.ar    1  UNL1       -0.0013
      3 C           6.0136   -1.9635   28.9750 C.ar    1  UNL1        0.0181
      4 C           6.2273   -2.7081   30.2594 C.ar    1  UNL1        0.1056
      5 C           6.6227   -4.1549   30.2308 C.ar    1  UNL1        0.0181
      6 C           6.8045   -4.8568   28.9177 C.ar    1  UNL1       -0.0013
      7 S           6.0455   -2.0062   31.5725 S.O2    1  UNL1        0.0071
      8 O           7.1528   -2.8268   32.1645 O.2     1  UNL1       -0.1687
      9 O           4.9382   -1.1855   30.9805 O.2     1  UNL1       -0.1687
     10 C           5.8637   -1.3042   32.8855 C.3     1  UNL1        0.1366
     11 C           6.9169   -0.3588   33.3827 C.3     1  UNL1        0.0413
     12 C           6.7351    0.3432   34.6957 C.3     1  UNL1        0.0738
     13 N           5.5002    0.0998   35.5117 N.3     1  UNL1       -0.2737
     14 C           4.4471   -0.8455   35.0146 C.3     1  UNL1        0.0738
     15 C           4.6288   -1.5476   33.7014 C.3     1  UNL1        0.0413
     16 C           5.3184    0.8018   36.8247 C.3     1  UNL1        0.0625
     17 C           6.4553    1.5737   37.4263 C.3     1  UNL1        0.0481
     18 C           6.2735    2.2757   38.7393 C.3     1  UNL1        0.1435
     19 O           4.9549    2.2058   39.4509 O.3     1  UNL1       -0.3537
     20 C           3.8180    1.4340   38.8494 C.3     1  UNL1        0.1435
     21 C           3.9998    0.7320   37.5363 C.3     1  UNL1        0.0481
     22 C           6.7726   -4.8142   26.3202 C.3     1  UNL1        0.1167
     23 O           7.8075   -5.7155   23.6525 O.2     1  UNL1       -0.2668
     24 C           6.7530   -4.6515   23.7273 C.2     1  UNL1        0.2808
     25 N           6.2355   -4.2009   25.0611 N.am    1  UNL1       -0.2944
     26 H           5.5433   -3.5025   25.1102 H       1  UNL1        0.1501
     27 C           6.2158   -4.0381   22.4682 C.ar    1  UNL1        0.1984
     28 C           4.8369   -3.4790   22.2784 C.ar    1  UNL1        0.0453
     29 C           4.7321   -2.9715   20.8708 C.ar    1  UNL1        0.0409
     30 C           3.6099   -2.3176   20.1206 C.ar    1  UNL1        0.0238
     31 C           3.8018   -1.9092   18.6901 C.ar    1  UNL1        0.0991
     32 N           5.1160   -2.1546   18.0099 N.ar    1  UNL1       -0.2391
     33 C           6.2382   -2.8085   18.7601 C.ar    1  UNL1        0.1362
     34 C           6.0463   -3.2169   20.1906 C.ar    1  UNL1        0.1646
     35 O           6.9633   -3.8761   21.1779 O.2     1  UNL1       -0.4473
@<TRIPOS>BOND
     1    23    24    2
     2    24    25   am
     3    25    22    1
     4    22     1    1
     5     1     2   ar
     6     2     3   ar
     7     3     4   ar
     8     4     7    1
     9     7     8    2
    10     7     9    2
    11     7    10    1
    12    10    11    1
    13    11    12    1
    14    12    13    1
    15    13    16    1
    16    16    17    1
    17    17    18    1
    18    18    19    1
    19    19    20    1
    20    20    21    1
    21    13    14    1
    22    14    15    1
    23     4     5   ar
    24     5     6   ar
    25    24    27    1
    26    27    28   ar
    27    28    29   ar
    28    29    30   ar
    29    30    31   ar
    30    31    32   ar
    31    32    33   ar
    32    33    34   ar
    33    34    35   ar
    34     6     1   ar
    35    35    27   ar
    36    15    10    1
    37    34    29   ar
    38    21    16    1
    39    25    26    1
@<TRIPOS>MOLECULE
*****
 35 39 0 0 0
SMALL
GASTEIGER

@<TRIPOS>ATOM
      1 C           6.4076   -2.8602   30.8343 C.ar    1  UNL1       -0.0025
      2 C           5.8493   -1.6190   30.2037 C.ar    1  UNL1       -0.0013
      3 C           5.7172   -1.5298   28.7122 C.ar    1  UNL1        0.0181
      4 C           6.1435   -2.6819   27.8513 C.ar    1  UNL1        0.1056
      5 C           6.7018   -3.9231   28.4820 C.ar    1  UNL1        0.0181
      6 C           6.8339   -4.0123   29.9735 C.ar    1  UNL1       -0.0013
      7 S           6.0115   -2.5927   26.3598 S.O2    1  UNL1        0.0071
      8 O           4.9760   -1.5187   26.5157 O.2     1  UNL1       -0.1687
      9 O           7.0469   -3.6668   26.2040 O.2     1  UNL1       -0.1687
     10 C           5.8794   -2.5036   24.8683 C.3     1  UNL1        0.1366
     11 C           7.0552   -2.8172   23.9912 C.3     1  UNL1        0.0413
     12 C           6.9231   -2.7280   22.4997 C.3     1  UNL1        0.0738
     13 N           5.6154   -2.3253   21.8853 N.3     1  UNL1       -0.2737
     14 C           4.4396   -2.0117   22.7623 C.3     1  UNL1        0.0738
     15 C           4.5716   -2.1009   24.2539 C.3     1  UNL1        0.0413
     16 C           5.4833   -2.2361   20.3938 C.3     1  UNL1        0.0625
     17 C           6.7004   -2.3526   19.5248 C.3     1  UNL1        0.0481
     18 C           6.5684   -2.2635   18.0333 C.3     1  UNL1        0.1435
     19 O           5.2193   -2.0578   17.4107 O.3     1  UNL1       -0.3537
     20 C           4.0022   -1.9414   18.2797 C.3     1  UNL1        0.1435
     21 C           4.1342   -2.0305   19.7712 C.3     1  UNL1        0.0481
     22 C           6.5397   -2.9494   32.3259 C.3     1  UNL1        0.1167
     23 O           3.8399   -2.8128   33.6268 O.2     1  UNL1       -0.2668
     24 C           4.8287   -1.7039   33.8330 C.2     1  UNL1        0.2808
     25 N           6.1786   -1.7722   33.1825 N.am    1  UNL1       -0.2944
     26 H           6.8276   -1.0444   33.3178 H       1  UNL1        0.1501
     27 C           4.4677   -0.5266   34.6896 C.ar    1  UNL1        0.1984
     28 C           4.7234   -0.3960   36.1618 C.ar    1  UNL1        0.0453
     29 C           4.2013    0.9380   36.6065 C.ar    1  UNL1        0.0409
     30 C           4.1778    1.6105   37.9471 C.ar    1  UNL1        0.0238
     31 C           3.5759    2.9769   38.0902 C.ar    1  UNL1        0.0991
     32 N           2.9975    3.6708   36.8927 N.ar    1  UNL1       -0.2391
     33 C           3.0209    2.9983   35.5522 C.ar    1  UNL1        0.1362
     34 C           3.6228    1.6319   35.4091 C.ar    1  UNL1        0.1646
     35 O           3.7875    0.7267   34.2244 O.2     1  UNL1       -0.4473
@<TRIPOS>BOND
     1    23    24    2
     2    24    25   am
     3    25    22    1
     4    22     1    1
     5     1     2   ar
     6     2     3   ar
     7     3     4   ar
     8     4     7    1
     9     7     8    2
    10     7     9    2
    11     7    10    1
    12    10    11    1
    13    11    12    1
    14    12    13    1
    15    13    16    1
    16    16    17    1
    17    17    18    1
    18    18    19    1
    19    19    20    1
    20    20    21    1
    21    13    14    1
    22    14    15    1
    23     4     5   ar
    24     5     6   ar
    25    24    27    1
    26    27    28   ar
    27    28    29   ar
    28    29    30   ar
    29    30    31   ar
    30    31    32   ar
    31    32    33   ar
    32    33    34   ar
    33    34    35   ar
    34     6     1   ar
    35    35    27   ar
    36    15    10    1
    37    34    29   ar
    38    21    16    1
    39    25    26    1
@<TRIPOS>MOLECULE
*****
 35 39 0 0 0
SMALL
GASTEIGER

@<TRIPOS>ATOM
      1 C           0.6467    1.9741   29.3372 C.ar    1  UNL1       -0.0025
      2 C          -0.3574    1.8543   28.2294 C.ar    1  UNL1       -0.0013
      3 C           0.0866    1.4478   26.8554 C.ar    1  UNL1        0.0181
      4 C           1.5347    1.1611   26.5894 C.ar    1  UNL1        0.1056
      5 C           2.5388    1.2810   27.6973 C.ar    1  UNL1        0.0181
      6 C           2.0949    1.6875   29.0712 C.ar    1  UNL1       -0.0013
      7 S           1.9786    0.7546   25.2155 S.O2    1  UNL1        0.0071
      8 O           0.5678    0.8813   24.7221 O.2     1  UNL1       -0.1687
      9 O           3.3895    0.6280   25.7089 O.2     1  UNL1       -0.1687
     10 C           2.4226    0.3482   23.8416 C.3     1  UNL1        0.1366
     11 C           3.3333   -0.8308   23.6658 C.3     1  UNL1        0.0413
     12 C           3.7773   -1.2373   22.2919 C.3     1  UNL1        0.0738
     13 N           3.3106   -0.4649   21.0938 N.3     1  UNL1       -0.2737
     14 C           2.4000    0.7140   21.2695 C.3     1  UNL1        0.0738
     15 C           1.9560    1.1206   22.6434 C.3     1  UNL1        0.0413
     16 C           3.7546   -0.8714   19.7199 C.3     1  UNL1        0.0625
     17 C           4.7432   -1.9867   19.5505 C.3     1  UNL1        0.0481
     18 C           5.1872   -2.3932   18.1766 C.3     1  UNL1        0.1435
     19 O           4.6426   -1.6844   16.9721 O.3     1  UNL1       -0.3537
     20 C           3.6540   -0.5691   17.1414 C.3     1  UNL1        0.1435
     21 C           3.2100   -0.1625   18.5153 C.3     1  UNL1        0.0481
     22 C           0.2028    2.3806   30.7112 C.3     1  UNL1        0.1167
     23 O           0.8954    4.4008   32.8181 O.2     1  UNL1       -0.2668
     24 C           1.3502    2.9789   32.9641 C.2     1  UNL1        0.2808
     25 N           1.0039    1.9688   31.9107 N.am    1  UNL1       -0.2944
     26 H           1.3023    1.0356   32.0065 H       1  UNL1        0.1501
     27 C           2.1512    2.5671   34.1636 C.ar    1  UNL1        0.1984
     28 C           3.2897    1.5905   34.1705 C.ar    1  UNL1        0.0453
     29 C           3.7966    1.4794   35.5779 C.ar    1  UNL1        0.0409
     30 C           4.9029    0.6688   36.1852 C.ar    1  UNL1        0.0238
     31 C           5.1840    0.7662   37.6554 C.ar    1  UNL1        0.0991
     32 N           4.3588    1.6741   38.5183 N.ar    1  UNL1       -0.2391
     33 C           3.2525    2.4848   37.9110 C.ar    1  UNL1        0.1362
     34 C           2.9714    2.3874   36.4408 C.ar    1  UNL1        0.1646
     35 O           1.9545    3.0596   35.5667 O.2     1  UNL1       -0.4473
@<TRIPOS>BOND
     1    23    24    2
     2    24    25   am
     3    25    22    1
     4    22     1    1
     5     1     2   ar
     6     2     3   ar
     7     3     4   ar
     8     4     7    1
     9     7     8    2
    10     7     9    2
    11     7    10    1
    12    10    11    1
    13    11    12    1
    14    12    13    1
    15    13    16    1
    16    16    17    1
    17    17    18    1
    18    18    19    1
    19    19    20    1
    20    20    21    1
    21    13    14    1
    22    14    15    1
    23     4     5   ar
    24     5     6   ar
    25    24    27    1
    26    27    28   ar
    27    28    29   ar
    28    29    30   ar
    29    30    31   ar
    30    31    32   ar
    31    32    33   ar
    32    33    34   ar
    33    34    35   ar
    34     6     1   ar
    35    35    27   ar
    36    15    10    1
    37    34    29   ar
    38    21    16    1
    39    25    26    1
@<TRIPOS>MOLECULE
*****
 35 39 0 0 0
SMALL
GASTEIGER

@<TRIPOS>ATOM
      1 C           3.3969   -0.3813   30.7534 C.ar    1  UNL1       -0.0025
      2 C           4.7582   -0.6279   30.1736 C.ar    1  UNL1       -0.0013
      3 C           4.9177   -0.8375   28.6968 C.ar    1  UNL1        0.0181
      4 C           3.7159   -0.8006   27.8000 C.ar    1  UNL1        0.1056
      5 C           2.3546   -0.5541   28.3798 C.ar    1  UNL1        0.0181
      6 C           2.1952   -0.3444   29.8565 C.ar    1  UNL1       -0.0013
      7 S           3.8754   -1.0103   26.3233 S.O2    1  UNL1        0.0071
      8 O           4.9684   -2.0042   26.5824 O.2     1  UNL1       -0.1687
      9 O           2.7823   -0.0163   26.0642 O.2     1  UNL1       -0.1687
     10 C           4.0348   -1.2199   24.8466 C.3     1  UNL1        0.1366
     11 C           5.1270   -2.1082   24.3288 C.3     1  UNL1        0.0413
     12 C           5.2865   -2.3178   22.8521 C.3     1  UNL1        0.0738
     13 N           4.3538   -1.6392   21.8932 N.3     1  UNL1       -0.2737
     14 C           3.2616   -0.7510   22.4110 C.3     1  UNL1        0.0738
     15 C           3.1021   -0.5413   23.8877 C.3     1  UNL1        0.0413
     16 C           4.5132   -1.8489   20.4166 C.3     1  UNL1        0.0625
     17 C           5.4836   -2.8718   19.9047 C.3     1  UNL1        0.0481
     18 C           5.6431   -3.0815   18.4280 C.3     1  UNL1        0.1435
     19 O           4.8321   -2.2682   17.4632 O.3     1  UNL1       -0.3537
     20 C           3.8618   -1.2453   17.9750 C.3     1  UNL1        0.1435
     21 C           3.7023   -1.0356   19.4517 C.3     1  UNL1        0.0481
     22 C           3.2374   -0.1717   32.2301 C.3     1  UNL1        0.1167
     23 O           4.4472    1.7157   34.2236 O.2     1  UNL1       -0.2668
     24 C           3.0454    1.9358   33.7373 C.2     1  UNL1        0.2808
     25 N           2.4405    0.9921   32.7406 N.am    1  UNL1       -0.2944
     26 H           1.5204    1.1365   32.4215 H       1  UNL1        0.1501
     27 C           2.2485    3.0995   34.2479 C.ar    1  UNL1        0.1984
     28 C           2.2575    3.6260   35.6524 C.ar    1  UNL1        0.0453
     29 C           1.3172    4.7930   35.7161 C.ar    1  UNL1        0.0409
     30 C           0.9222    5.7034   36.8408 C.ar    1  UNL1        0.0238
     31 C          -0.0631    6.8086   36.6003 C.ar    1  UNL1        0.0991
     32 N          -0.6532    7.0033   35.2351 N.ar    1  UNL1       -0.2391
     33 C          -0.2582    6.0929   34.1104 C.ar    1  UNL1        0.1362
     34 C           0.7270    4.9877   34.3509 C.ar    1  UNL1        0.1646
     35 O           1.3026    3.9411   33.4435 O.2     1  UNL1       -0.4473
@<TRIPOS>BOND
     1    23    24    2
     2    24    25   am
     3    25    22    1
     4    22     1    1
     5     1     2   ar
     6     2     3   ar
     7     3     4   ar
     8     4     7    1
     9     7     8    2
    10     7     9    2
    11     7    10    1
    12    10    11    1
    13    11    12    1
    14    12    13    1
    15    13    16    1
    16    16    17    1
    17    17    18    1
    18    18    19    1
    19    19    20    1
    20    20    21    1
    21    13    14    1
    22    14    15    1
    23     4     5   ar
    24     5     6   ar
    25    24    27    1
    26    27    28   ar
    27    28    29   ar
    28    29    30   ar
    29    30    31   ar
    30    31    32   ar
    31    32    33   ar
    32    33    34   ar
    33    34    35   ar
    34     6     1   ar
    35    35    27   ar
    36    15    10    1
    37    34    29   ar
    38    21    16    1
    39    25    26    1
