@<TRIPOS>MOLECULE
*****
 28 30 0 0 0
SMALL
GASTEIGER

@<TRIPOS>ATOM
      1 C          -8.0469  -18.5716   21.5562 C.ar    1  UNL1        0.1190
      2 C          -9.3797  -18.9170   20.9609 C.ar    1  UNL1        0.0336
      3 C         -10.4525  -17.8728   20.8674 C.ar    1  UNL1        0.0783
      4 CL        -11.7853  -18.2181   20.2720 Cl      1  UNL1       -0.0806
      5 C         -10.1926  -16.4834   21.3693 C.ar    1  UNL1        0.1135
      6 N          -8.8599  -16.1381   21.9647 N.ar    1  UNL1       -0.2078
      7 C          -7.7871  -17.1822   22.0582 C.ar    1  UNL1        0.2446
      8 N          -6.9740  -19.6158   21.6497 N.pl3   1  UNL1       -0.2104
      9 H          -7.2024  -20.5330   21.9252 H       1  UNL1        0.1739
     10 O          -5.1233  -19.7400   22.6790 O.2     1  UNL1       -0.1499
     11 S          -5.5532  -19.2624   21.3236 S.O2    1  UNL1        0.0737
     12 O          -5.9831  -18.7849   19.9682 O.2     1  UNL1       -0.1499
     13 C          -4.1323  -18.9091   20.9973 C.ar    1  UNL1        0.1261
     14 C          -3.0865  -18.9383   22.0723 C.ar    1  UNL1        0.0211
     15 C          -1.6657  -18.5849   21.7461 C.ar    1  UNL1        0.0136
     16 C          -1.2907  -18.2024   20.3450 C.ar    1  UNL1        0.0683
     17 CL          0.1302  -17.8491   20.0188 Cl      1  UNL1       -0.0814
     18 C          -2.3365  -18.1733   19.2701 C.ar    1  UNL1        0.0695
     19 CL         -1.9615  -17.7907   17.8690 Cl      1  UNL1       -0.0813
     20 C          -3.7573  -18.5266   19.5963 C.ar    1  UNL1        0.0324
     21 O          -6.4542  -16.8369   22.6536 O.3     1  UNL1       -0.4334
     22 C          -6.3808  -16.2024   24.0108 C.ar    1  UNL1        0.1672
     23 C          -5.1982  -15.3569   24.3804 C.ar    1  UNL1        0.1363
     24 N          -5.1248  -14.7224   25.7376 N.ar    1  UNL1       -0.2382
     25 C          -6.2341  -14.9333   26.7251 C.ar    1  UNL1        0.1104
     26 C          -7.4166  -15.7787   26.3554 C.ar    1  UNL1        0.0798
     27 CL         -8.5259  -15.9896   27.3429 Cl      1  UNL1       -0.0805
     28 C          -7.4900  -16.4132   24.9982 C.ar    1  UNL1        0.0521
@<TRIPOS>BOND
     1    10    11    2
     2    11    12    2
     3    11     8    1
     4     8     1    1
     5     1     2   ar
     6     2     3   ar
     7     3     4    1
     8     3     5   ar
     9     5     6   ar
    10     6     7   ar
    11     7    21    1
    12    21    22    1
    13    22    23   ar
    14    23    24   ar
    15    24    25   ar
    16    25    26   ar
    17    26    27    1
    18    26    28   ar
    19    11    13    1
    20    13    14   ar
    21    14    15   ar
    22    15    16   ar
    23    16    17    1
    24    16    18   ar
    25    18    19    1
    26    18    20   ar
    27     7     1   ar
    28    28    22   ar
    29    20    13   ar
    30     8     9    1
@<TRIPOS>MOLECULE
*****
 28 30 0 0 0
SMALL
GASTEIGER

@<TRIPOS>ATOM
      1 C          -4.0089  -19.1356   20.7584 C.ar    1  UNL1        0.1190
      2 C          -3.2467  -19.0405   19.4700 C.ar    1  UNL1        0.0336
      3 C          -2.2439  -17.9428   19.2712 C.ar    1  UNL1        0.0783
      4 CL         -1.4816  -17.8477   17.9828 Cl      1  UNL1       -0.0806
      5 C          -2.0034  -16.9403   20.3607 C.ar    1  UNL1        0.1135
      6 N          -2.7656  -17.0355   21.6491 N.ar    1  UNL1       -0.2078
      7 C          -3.7684  -18.1331   21.8479 C.ar    1  UNL1        0.2446
      8 N          -5.0118  -20.2333   20.9572 N.pl3   1  UNL1       -0.2104
      9 H          -4.7106  -21.1675   21.0324 H       1  UNL1        0.1739
     10 O          -6.5876  -20.7407   22.2836 O.2     1  UNL1       -0.1499
     11 S          -6.4735  -19.9075   21.0416 S.O2    1  UNL1        0.0737
     12 O          -6.3594  -19.0742   19.7996 O.2     1  UNL1       -0.1499
     13 C          -7.9353  -19.5816   21.1259 C.ar    1  UNL1        0.1261
     14 C          -8.6724  -19.1198   19.9038 C.ar    1  UNL1        0.0211
     15 C         -10.1342  -18.7940   19.9881 C.ar    1  UNL1        0.0136
     16 C         -10.8587  -18.9299   21.2944 C.ar    1  UNL1        0.0683
     17 CL        -12.3206  -18.6041   21.3787 Cl      1  UNL1       -0.0814
     18 C         -10.1216  -19.3917   22.5164 C.ar    1  UNL1        0.0695
     19 CL        -10.8463  -19.5277   23.8227 Cl      1  UNL1       -0.0813
     20 C          -8.6599  -19.7176   22.4322 C.ar    1  UNL1        0.0324
     21 O          -4.5307  -18.2283   23.1363 O.3     1  UNL1       -0.4334
     22 C          -5.4265  -17.1032   23.5626 C.ar    1  UNL1        0.1672
     23 C          -4.8654  -15.9530   24.3452 C.ar    1  UNL1        0.1363
     24 N          -5.7612  -14.8279   24.7714 N.ar    1  UNL1       -0.2382
     25 C          -7.2181  -14.8530   24.4151 C.ar    1  UNL1        0.1104
     26 C          -7.7791  -16.0031   23.6325 C.ar    1  UNL1        0.0798
     27 CL         -9.2360  -16.0282   23.2762 Cl      1  UNL1       -0.0805
     28 C          -6.8833  -17.1282   23.2063 C.ar    1  UNL1        0.0521
@<TRIPOS>BOND
     1    10    11    2
     2    11    12    2
     3    11     8    1
     4     8     1    1
     5     1     2   ar
     6     2     3   ar
     7     3     4    1
     8     3     5   ar
     9     5     6   ar
    10     6     7   ar
    11     7    21    1
    12    21    22    1
    13    22    23   ar
    14    23    24   ar
    15    24    25   ar
    16    25    26   ar
    17    26    27    1
    18    26    28   ar
    19    11    13    1
    20    13    14   ar
    21    14    15   ar
    22    15    16   ar
    23    16    17    1
    24    16    18   ar
    25    18    19    1
    26    18    20   ar
    27     7     1   ar
    28    28    22   ar
    29    20    13   ar
    30     8     9    1
@<TRIPOS>MOLECULE
*****
 28 30 0 0 0
SMALL
GASTEIGER

@<TRIPOS>ATOM
      1 C          -4.0031  -18.9311   20.9746 C.ar    1  UNL1        0.1190
      2 C          -3.3375  -18.8535   19.6326 C.ar    1  UNL1        0.0336
      3 C          -2.3035  -17.7996   19.3681 C.ar    1  UNL1        0.0783
      4 CL         -1.6379  -17.7219   18.0260 Cl      1  UNL1       -0.0806
      5 C          -1.9350  -16.8232   20.4456 C.ar    1  UNL1        0.1135
      6 N          -2.6006  -16.9008   21.7876 N.ar    1  UNL1       -0.2078
      7 C          -3.6346  -17.9548   22.0521 C.ar    1  UNL1        0.2446
      8 N          -5.0372  -19.9851   21.2391 N.pl3   1  UNL1       -0.2104
      9 H          -4.7599  -20.9122   21.4203 H       1  UNL1        0.1739
     10 O          -6.2536  -18.6885   20.0820 O.2     1  UNL1       -0.1499
     11 S          -6.4936  -19.6264   21.2277 S.O2    1  UNL1        0.0737
     12 O          -6.7335  -20.5643   22.3734 O.2     1  UNL1       -0.1499
     13 C          -7.9501  -19.2678   21.2163 C.ar    1  UNL1        0.1261
     14 C          -8.7220  -19.3067   19.9307 C.ar    1  UNL1        0.0211
     15 C         -10.1784  -18.9481   19.9193 C.ar    1  UNL1        0.0136
     16 C         -10.8629  -18.5506   21.1934 C.ar    1  UNL1        0.0683
     17 CL        -12.3194  -18.1920   21.1820 Cl      1  UNL1       -0.0814
     18 C         -10.0910  -18.5117   22.4789 C.ar    1  UNL1        0.0695
     19 CL        -10.7756  -18.1142   23.7531 Cl      1  UNL1       -0.0813
     20 C          -8.6346  -18.8703   22.4904 C.ar    1  UNL1        0.0324
     21 O          -4.3002  -18.0324   23.3941 O.3     1  UNL1       -0.4334
     22 C          -5.2660  -16.9647   23.8152 C.ar    1  UNL1        0.1672
     23 C          -6.2115  -16.3712   22.8133 C.ar    1  UNL1        0.1363
     24 N          -7.1773  -15.3035   23.2343 N.ar    1  UNL1       -0.2382
     25 C          -7.1975  -14.8292   24.6573 C.ar    1  UNL1        0.1104
     26 C          -6.2520  -15.4227   25.6591 C.ar    1  UNL1        0.0798
     27 CL         -6.2722  -14.9485   27.0821 Cl      1  UNL1       -0.0805
     28 C          -5.2862  -16.4904   25.2381 C.ar    1  UNL1        0.0521
@<TRIPOS>BOND
     1    10    11    2
     2    11    12    2
     3    11     8    1
     4     8     1    1
     5     1     2   ar
     6     2     3   ar
     7     3     4    1
     8     3     5   ar
     9     5     6   ar
    10     6     7   ar
    11     7    21    1
    12    21    22    1
    13    22    23   ar
    14    23    24   ar
    15    24    25   ar
    16    25    26   ar
    17    26    27    1
    18    26    28   ar
    19    11    13    1
    20    13    14   ar
    21    14    15   ar
    22    15    16   ar
    23    16    17    1
    24    16    18   ar
    25    18    19    1
    26    18    20   ar
    27     7     1   ar
    28    28    22   ar
    29    20    13   ar
    30     8     9    1
@<TRIPOS>MOLECULE
*****
 28 30 0 0 0
SMALL
GASTEIGER

@<TRIPOS>ATOM
      1 C          -7.0576  -18.8323   20.6196 C.ar    1  UNL1        0.1190
      2 C          -5.6121  -18.9106   21.0125 C.ar    1  UNL1        0.0336
      3 C          -4.8061  -20.1276   20.6676 C.ar    1  UNL1        0.0783
      4 CL         -3.3605  -20.2060   21.0606 Cl      1  UNL1       -0.0806
      5 C          -5.4454  -21.2663   19.9296 C.ar    1  UNL1        0.1135
      6 N          -6.8909  -21.1880   19.5366 N.ar    1  UNL1       -0.2078
      7 C          -7.6970  -19.9710   19.8816 C.ar    1  UNL1        0.2446
      8 N          -7.8638  -17.6152   20.9645 N.pl3   1  UNL1       -0.2104
      9 H          -8.4356  -17.1941   20.2827 H       1  UNL1        0.1739
     10 O          -7.6874  -15.6605   21.7694 O.2     1  UNL1       -0.1499
     11 S          -7.7986  -17.0398   22.3482 S.O2    1  UNL1        0.0737
     12 O          -7.9098  -18.4192   22.9270 O.2     1  UNL1       -0.1499
     13 C          -7.7334  -16.4645   23.7320 C.ar    1  UNL1        0.1261
     14 C          -8.9704  -16.4044   24.5783 C.ar    1  UNL1        0.0211
     15 C          -8.9053  -15.8290   25.9620 C.ar    1  UNL1        0.0136
     16 C          -7.6032  -15.3139   26.4995 C.ar    1  UNL1        0.0683
     17 CL         -7.5380  -14.7385   27.8833 Cl      1  UNL1       -0.0814
     18 C          -6.3661  -15.3740   25.6532 C.ar    1  UNL1        0.0695
     19 CL         -5.0639  -14.8588   26.1908 Cl      1  UNL1       -0.0813
     20 C          -6.4312  -15.9493   24.2695 C.ar    1  UNL1        0.0324
     21 O          -9.1425  -19.8926   19.4886 O.3     1  UNL1       -0.4334
     22 C         -10.1499  -19.3258   20.4446 C.ar    1  UNL1        0.1672
     23 C         -10.4107  -20.0114   21.7531 C.ar    1  UNL1        0.1363
     24 N         -11.4181  -19.4447   22.7091 N.ar    1  UNL1       -0.2382
     25 C         -12.1648  -18.1923   22.3566 C.ar    1  UNL1        0.1104
     26 C         -11.9040  -17.5068   21.0481 C.ar    1  UNL1        0.0798
     27 CL        -12.6507  -16.2545   20.6956 Cl      1  UNL1       -0.0805
     28 C         -10.8966  -18.0736   20.0922 C.ar    1  UNL1        0.0521
@<TRIPOS>BOND
     1    10    11    2
     2    11    12    2
     3    11     8    1
     4     8     1    1
     5     1     2   ar
     6     2     3   ar
     7     3     4    1
     8     3     5   ar
     9     5     6   ar
    10     6     7   ar
    11     7    21    1
    12    21    22    1
    13    22    23   ar
    14    23    24   ar
    15    24    25   ar
    16    25    26   ar
    17    26    27    1
    18    26    28   ar
    19    11    13    1
    20    13    14   ar
    21    14    15   ar
    22    15    16   ar
    23    16    17    1
    24    16    18   ar
    25    18    19    1
    26    18    20   ar
    27     7     1   ar
    28    28    22   ar
    29    20    13   ar
    30     8     9    1
@<TRIPOS>MOLECULE
*****
 28 30 0 0 0
SMALL
GASTEIGER

@<TRIPOS>ATOM
      1 C          -6.9320  -17.8173   23.0840 C.ar    1  UNL1        0.1190
      2 C          -5.9974  -16.8180   23.6986 C.ar    1  UNL1        0.0336
      3 C          -6.5329  -15.7473   24.6023 C.ar    1  UNL1        0.0783
      4 CL         -5.5983  -14.7479   25.2170 Cl      1  UNL1       -0.0806
      5 C          -8.0030  -15.6759   24.8914 C.ar    1  UNL1        0.1135
      6 N          -8.9377  -16.6752   24.2768 N.ar    1  UNL1       -0.2078
      7 C          -8.4021  -17.7459   23.3731 C.ar    1  UNL1        0.2446
      8 N          -6.3964  -18.8881   22.1802 N.pl3   1  UNL1       -0.2104
      9 H          -6.9550  -19.6669   21.9550 H       1  UNL1        0.1739
     10 O          -5.5819  -18.4237   20.2774 O.2     1  UNL1       -0.1499
     11 S          -5.0100  -18.7722   21.6196 S.O2    1  UNL1        0.0737
     12 O          -4.4382  -19.1206   22.9618 O.2     1  UNL1       -0.1499
     13 C          -3.6235  -18.6563   21.0590 C.ar    1  UNL1        0.1261
     14 C          -2.4370  -18.9683   21.9221 C.ar    1  UNL1        0.0211
     15 C          -1.0506  -18.8524   21.3616 C.ar    1  UNL1        0.0136
     16 C          -0.8505  -18.4245   19.9380 C.ar    1  UNL1        0.0683
     17 CL          0.5360  -18.3086   19.3774 Cl      1  UNL1       -0.0814
     18 C          -2.0370  -18.1125   19.0748 C.ar    1  UNL1        0.0695
     19 CL         -1.8369  -17.6845   17.6511 Cl      1  UNL1       -0.0813
     20 C          -3.4234  -18.2283   19.6354 C.ar    1  UNL1        0.0324
     21 O          -9.3367  -18.7453   22.7584 O.3     1  UNL1       -0.4334
     22 C         -10.7537  -18.3586   22.4540 C.ar    1  UNL1        0.1672
     23 C         -11.1267  -17.9023   21.0746 C.ar    1  UNL1        0.1363
     24 N         -12.5437  -17.5156   20.7701 N.ar    1  UNL1       -0.2382
     25 C         -13.5876  -17.5853   21.8451 C.ar    1  UNL1        0.1104
     26 C         -13.2146  -18.0416   23.2244 C.ar    1  UNL1        0.0798
     27 CL        -14.2585  -18.1112   24.2994 Cl      1  UNL1       -0.0805
     28 C         -11.7976  -18.4283   23.5288 C.ar    1  UNL1        0.0521
@<TRIPOS>BOND
     1    10    11    2
     2    11    12    2
     3    11     8    1
     4     8     1    1
     5     1     2   ar
     6     2     3   ar
     7     3     4    1
     8     3     5   ar
     9     5     6   ar
    10     6     7   ar
    11     7    21    1
    12    21    22    1
    13    22    23   ar
    14    23    24   ar
    15    24    25   ar
    16    25    26   ar
    17    26    27    1
    18    26    28   ar
    19    11    13    1
    20    13    14   ar
    21    14    15   ar
    22    15    16   ar
    23    16    17    1
    24    16    18   ar
    25    18    19    1
    26    18    20   ar
    27     7     1   ar
    28    28    22   ar
    29    20    13   ar
    30     8     9    1
@<TRIPOS>MOLECULE
*****
 28 30 0 0 0
SMALL
GASTEIGER

@<TRIPOS>ATOM
      1 C          -8.0736  -18.7099   20.5325 C.ar    1  UNL1        0.1190
      2 C          -6.6275  -19.0064   20.7988 C.ar    1  UNL1        0.0336
      3 C          -5.9904  -20.2273   20.2044 C.ar    1  UNL1        0.0783
      4 CL         -4.5442  -20.5237   20.4707 Cl      1  UNL1       -0.0806
      5 C          -6.7993  -21.1517   19.3436 C.ar    1  UNL1        0.1135
      6 N          -8.2454  -20.8553   19.0773 N.ar    1  UNL1       -0.2078
      7 C          -8.8825  -19.6344   19.6717 C.ar    1  UNL1        0.2446
      8 N          -8.7108  -17.4890   21.1269 N.pl3   1  UNL1       -0.2104
      9 H          -9.4542  -17.0444   20.6590 H       1  UNL1        0.1739
     10 O          -7.8170  -15.6700   21.7531 O.2     1  UNL1       -0.1499
     11 S          -8.2154  -16.9455   22.4343 S.O2    1  UNL1        0.0737
     12 O          -8.6138  -18.2211   23.1155 O.2     1  UNL1       -0.1499
     13 C          -7.7200  -16.4021   23.7417 C.ar    1  UNL1        0.1261
     14 C          -6.4294  -15.6396   23.7962 C.ar    1  UNL1        0.0211
     15 C          -5.9340  -15.0962   25.1036 C.ar    1  UNL1        0.0136
     16 C          -6.7292  -15.3152   26.3564 C.ar    1  UNL1        0.0683
     17 CL         -6.2338  -14.7718   27.6639 Cl      1  UNL1       -0.0814
     18 C          -8.0198  -16.0777   26.3019 C.ar    1  UNL1        0.0695
     19 CL         -8.8150  -16.2967   27.5548 Cl      1  UNL1       -0.0813
     20 C          -8.5152  -16.6211   24.9946 C.ar    1  UNL1        0.0324
     21 O         -10.3287  -19.3380   19.4054 O.3     1  UNL1       -0.4334
     22 C         -11.0899  -18.4302   20.3254 C.ar    1  UNL1        0.1672
     23 C         -11.4778  -17.0546   19.8700 C.ar    1  UNL1        0.1363
     24 N         -12.2391  -16.1469   20.7900 N.ar    1  UNL1       -0.2382
     25 C         -12.6125  -16.6147   22.1655 C.ar    1  UNL1        0.1104
     26 C         -12.2246  -17.9902   22.6208 C.ar    1  UNL1        0.0798
     27 CL        -12.5979  -18.4581   23.9963 Cl      1  UNL1       -0.0805
     28 C         -11.4633  -18.8980   21.7008 C.ar    1  UNL1        0.0521
@<TRIPOS>BOND
     1    10    11    2
     2    11    12    2
     3    11     8    1
     4     8     1    1
     5     1     2   ar
     6     2     3   ar
     7     3     4    1
     8     3     5   ar
     9     5     6   ar
    10     6     7   ar
    11     7    21    1
    12    21    22    1
    13    22    23   ar
    14    23    24   ar
    15    24    25   ar
    16    25    26   ar
    17    26    27    1
    18    26    28   ar
    19    11    13    1
    20    13    14   ar
    21    14    15   ar
    22    15    16   ar
    23    16    17    1
    24    16    18   ar
    25    18    19    1
    26    18    20   ar
    27     7     1   ar
    28    28    22   ar
    29    20    13   ar
    30     8     9    1
@<TRIPOS>MOLECULE
*****
 28 30 0 0 0
SMALL
GASTEIGER

@<TRIPOS>ATOM
      1 C          -7.9405  -16.5790   24.7957 C.ar    1  UNL1        0.1190
      2 C          -7.3409  -15.5360   25.6916 C.ar    1  UNL1        0.0336
      3 C          -7.6705  -15.5249   27.1549 C.ar    1  UNL1        0.0783
      4 CL         -7.0708  -14.4819   28.0508 Cl      1  UNL1       -0.0806
      5 C          -8.5997  -16.5567   27.7223 C.ar    1  UNL1        0.1135
      6 N          -9.1993  -17.5996   26.8264 N.ar    1  UNL1       -0.2078
      7 C          -8.8697  -17.6108   25.3631 C.ar    1  UNL1        0.2446
      8 N          -7.6109  -16.5902   23.3324 N.pl3   1  UNL1       -0.2104
      9 H          -8.2111  -16.1482   22.6892 H       1  UNL1        0.1739
     10 O          -5.5461  -16.1046   23.3039 O.2     1  UNL1       -0.1499
     11 S          -6.3669  -17.2748   22.8490 S.O2    1  UNL1        0.0737
     12 O          -7.1876  -18.4450   22.3941 O.2     1  UNL1       -0.1499
     13 C          -5.1228  -17.9595   22.3656 C.ar    1  UNL1        0.1261
     14 C          -3.7844  -17.5535   22.9076 C.ar    1  UNL1        0.0211
     15 C          -2.5404  -18.2382   22.4243 C.ar    1  UNL1        0.0136
     16 C          -2.6349  -19.3288   21.3989 C.ar    1  UNL1        0.0683
     17 CL         -1.3908  -20.0136   20.9155 Cl      1  UNL1       -0.0814
     18 C          -3.9733  -19.7349   20.8568 C.ar    1  UNL1        0.0695
     19 CL         -4.0676  -20.8256   19.8314 Cl      1  UNL1       -0.0813
     20 C          -5.2173  -19.0502   21.3402 C.ar    1  UNL1        0.0324
     21 O          -9.4693  -18.6538   24.4672 O.3     1  UNL1       -0.4334
     22 C         -10.7169  -18.3493   23.6920 C.ar    1  UNL1        0.1672
     23 C         -10.6248  -17.9523   22.2484 C.ar    1  UNL1        0.1363
     24 N         -11.8724  -17.6478   21.4732 N.ar    1  UNL1       -0.2382
     25 C         -13.2120  -17.7403   22.1417 C.ar    1  UNL1        0.1104
     26 C         -13.3041  -18.1372   23.5853 C.ar    1  UNL1        0.0798
     27 CL        -14.6438  -18.2297   24.2538 Cl      1  UNL1       -0.0805
     28 C         -12.0565  -18.4417   24.3604 C.ar    1  UNL1        0.0521
@<TRIPOS>BOND
     1    10    11    2
     2    11    12    2
     3    11     8    1
     4     8     1    1
     5     1     2   ar
     6     2     3   ar
     7     3     4    1
     8     3     5   ar
     9     5     6   ar
    10     6     7   ar
    11     7    21    1
    12    21    22    1
    13    22    23   ar
    14    23    24   ar
    15    24    25   ar
    16    25    26   ar
    17    26    27    1
    18    26    28   ar
    19    11    13    1
    20    13    14   ar
    21    14    15   ar
    22    15    16   ar
    23    16    17    1
    24    16    18   ar
    25    18    19    1
    26    18    20   ar
    27     7     1   ar
    28    28    22   ar
    29    20    13   ar
    30     8     9    1
@<TRIPOS>MOLECULE
*****
 28 30 0 0 0
SMALL
GASTEIGER

@<TRIPOS>ATOM
      1 C          -5.1905  -17.0244   23.1324 C.ar    1  UNL1        0.1190
      2 C          -3.9468  -16.2143   22.9158 C.ar    1  UNL1        0.0336
      3 C          -2.8243  -16.7697   22.0903 C.ar    1  UNL1        0.0783
      4 CL         -1.5806  -15.9595   21.8737 Cl      1  UNL1       -0.0806
      5 C          -2.9455  -18.1352   21.4814 C.ar    1  UNL1        0.1135
      6 N          -4.1891  -18.9453   21.6980 N.ar    1  UNL1       -0.2078
      7 C          -5.3116  -18.3899   22.5234 C.ar    1  UNL1        0.2446
      8 N          -6.3131  -16.4691   23.9579 N.pl3   1  UNL1       -0.2104
      9 H          -6.1338  -16.1180   24.8600 H       1  UNL1        0.1739
     10 O          -8.1834  -17.2485   24.5858 O.2     1  UNL1       -0.1499
     11 S          -7.7089  -16.4487   23.4089 S.O2    1  UNL1        0.0737
     12 O          -7.2343  -15.6489   22.2320 O.2     1  UNL1       -0.1499
     13 C          -9.1047  -16.4283   22.8599 C.ar    1  UNL1        0.1261
     14 C         -10.2561  -16.8531   23.7223 C.ar    1  UNL1        0.0211
     15 C         -11.6519  -16.8327   23.1733 C.ar    1  UNL1        0.0136
     16 C         -11.8962  -16.3875   21.7619 C.ar    1  UNL1        0.0683
     17 CL        -13.2920  -16.3671   21.2129 Cl      1  UNL1       -0.0814
     18 C         -10.7448  -15.9627   20.8995 C.ar    1  UNL1        0.0695
     19 CL        -10.9892  -15.5175   19.4880 Cl      1  UNL1       -0.0813
     20 C          -9.3490  -15.9831   21.4485 C.ar    1  UNL1        0.0324
     21 O          -6.5554  -19.2000   22.7400 O.3     1  UNL1       -0.4334
     22 C          -7.5786  -19.3097   21.6487 C.ar    1  UNL1        0.1672
     23 C          -7.1683  -19.1383   20.2160 C.ar    1  UNL1        0.1363
     24 N          -8.1914  -19.2479   19.1246 N.ar    1  UNL1       -0.2382
     25 C          -9.6249  -19.5291   19.4659 C.ar    1  UNL1        0.1104
     26 C         -10.0351  -19.7005   20.8984 C.ar    1  UNL1        0.0798
     27 CL        -11.4685  -19.9816   21.2397 Cl      1  UNL1       -0.0805
     28 C          -9.0119  -19.5908   21.9898 C.ar    1  UNL1        0.0521
@<TRIPOS>BOND
     1    10    11    2
     2    11    12    2
     3    11     8    1
     4     8     1    1
     5     1     2   ar
     6     2     3   ar
     7     3     4    1
     8     3     5   ar
     9     5     6   ar
    10     6     7   ar
    11     7    21    1
    12    21    22    1
    13    22    23   ar
    14    23    24   ar
    15    24    25   ar
    16    25    26   ar
    17    26    27    1
    18    26    28   ar
    19    11    13    1
    20    13    14   ar
    21    14    15   ar
    22    15    16   ar
    23    16    17    1
    24    16    18   ar
    25    18    19    1
    26    18    20   ar
    27     7     1   ar
    28    28    22   ar
    29    20    13   ar
    30     8     9    1
@<TRIPOS>MOLECULE
*****
 28 30 0 0 0
SMALL
GASTEIGER

@<TRIPOS>ATOM
      1 C          -6.7080  -15.7348   24.9373 C.ar    1  UNL1        0.1190
      2 C          -7.0757  -15.6700   26.3900 C.ar    1  UNL1        0.0336
      3 C          -8.3230  -16.3448   26.8787 C.ar    1  UNL1        0.0783
      4 CL         -8.6907  -16.2801   28.3316 Cl      1  UNL1       -0.0806
      5 C          -9.2026  -17.0844   25.9147 C.ar    1  UNL1        0.1135
      6 N          -8.8349  -17.1491   24.4619 N.ar    1  UNL1       -0.2078
      7 C          -7.5876  -16.4744   23.9732 C.ar    1  UNL1        0.2446
      8 N          -5.4606  -15.0600   24.4485 N.pl3   1  UNL1       -0.2104
      9 H          -5.2634  -14.1342   24.7191 H       1  UNL1        0.1739
     10 O          -4.4489  -14.6023   22.6411 O.2     1  UNL1       -0.1499
     11 S          -4.5138  -15.7958   23.5474 S.O2    1  UNL1        0.0737
     12 O          -4.5786  -16.9892   24.4537 O.2     1  UNL1       -0.1499
     13 C          -3.5669  -16.5316   22.6462 C.ar    1  UNL1        0.1261
     14 C          -2.4279  -15.8015   21.9984 C.ar    1  UNL1        0.0211
     15 C          -1.4810  -16.5372   21.0973 C.ar    1  UNL1        0.0136
     16 C          -1.6731  -18.0031   20.8441 C.ar    1  UNL1        0.0683
     17 CL         -0.7262  -18.7390   19.9429 Cl      1  UNL1       -0.0814
     18 C          -2.8120  -18.7333   21.4919 C.ar    1  UNL1        0.0695
     19 CL         -3.0041  -20.1993   21.2386 Cl      1  UNL1       -0.0813
     20 C          -3.7589  -17.9975   22.3930 C.ar    1  UNL1        0.0324
     21 O          -7.2198  -16.5391   22.5204 O.3     1  UNL1       -0.4334
     22 C          -7.9042  -17.5214   21.6166 C.ar    1  UNL1        0.1672
     23 C          -7.1264  -18.6532   21.0131 C.ar    1  UNL1        0.1363
     24 N          -7.8108  -19.6355   20.1093 N.ar    1  UNL1       -0.2382
     25 C          -9.2728  -19.4859   19.8090 C.ar    1  UNL1        0.1104
     26 C         -10.0505  -18.3541   20.4125 C.ar    1  UNL1        0.0798
     27 CL        -11.5125  -18.2044   20.1122 Cl      1  UNL1       -0.0805
     28 C          -9.3661  -17.3718   21.3163 C.ar    1  UNL1        0.0521
@<TRIPOS>BOND
     1    10    11    2
     2    11    12    2
     3    11     8    1
     4     8     1    1
     5     1     2   ar
     6     2     3   ar
     7     3     4    1
     8     3     5   ar
     9     5     6   ar
    10     6     7   ar
    11     7    21    1
    12    21    22    1
    13    22    23   ar
    14    23    24   ar
    15    24    25   ar
    16    25    26   ar
    17    26    27    1
    18    26    28   ar
    19    11    13    1
    20    13    14   ar
    21    14    15   ar
    22    15    16   ar
    23    16    17    1
    24    16    18   ar
    25    18    19    1
    26    18    20   ar
    27     7     1   ar
    28    28    22   ar
    29    20    13   ar
    30     8     9    1
