@<TRIPOS>MOLECULE
*****
 30 33 0 0 0
SMALL
GASTEIGER

@<TRIPOS>ATOM
      1 O           7.2184   -0.4719   19.7435 O.2     1  UNL1       -0.1683
      2 S           6.9250   -1.4031   18.6048 S.O2    1  UNL1        0.0143
      3 O           6.6316   -2.3344   17.4660 O.2     1  UNL1       -0.1683
      4 C           7.3990   -2.5622   19.4305 C.ar    1  UNL1        0.1253
      5 C           8.8684   -2.7980   19.6184 C.ar    1  UNL1        0.0247
      6 C           9.3424   -3.9571   20.4441 C.ar    1  UNL1        0.0594
      7 C           8.3471   -4.8803   21.0821 C.ar    1  UNL1        0.2298
      8 N           6.8776   -4.6445   20.8943 N.ar    1  UNL1       -0.2085
      9 C           6.4036   -3.4854   20.0685 C.ar    1  UNL1        0.1203
     10 O           8.8210   -6.0394   21.9079 O.3     1  UNL1       -0.4361
     11 C           8.3881   -6.1677   23.3383 C.ar    1  UNL1        0.1473
     12 C           8.4030   -7.5093   24.0090 C.ar    1  UNL1        0.0399
     13 C           7.9702   -7.6376   25.4394 C.ar    1  UNL1        0.0328
     14 C           7.5224   -6.4243   26.1992 C.ar    1  UNL1        0.1403
     15 F           7.0895   -6.5526   27.6297 F       1  UNL1       -0.2042
     16 C           7.5075   -5.0826   25.5285 C.ar    1  UNL1        0.0328
     17 C           7.9403   -4.9544   24.0981 C.ar    1  UNL1        0.0399
     18 C           6.4509   -0.2441   17.7790 C.3     1  UNL1        0.1823
     19 C           5.1987    0.4874   18.1623 C.ar    1  UNL1        0.0014
     20 C           5.0732    1.9560   17.8842 C.ar    1  UNL1       -0.0029
     21 C           3.8209    2.6876   18.2674 C.ar    1  UNL1       -0.0048
     22 C           2.6943    1.9504   18.9288 C.ar    1  UNL1       -0.0247
     23 C           2.8199    0.4818   19.2068 C.ar    1  UNL1       -0.0250
     24 C           4.0721   -0.2497   18.8236 C.ar    1  UNL1       -0.0071
     25 C           1.8244   -0.4364   19.8518 C.3     1  UNL1        0.0431
     26 C           0.4574   -0.1127   20.3779 C.3     1  UNL1        0.0733
     27 N          -0.2515    1.2090   20.3890 N.3     1  UNL1       -0.2969
     28 C           0.2312    2.5336   19.8768 C.3     1  UNL1        0.0733
     29 C           1.5422    2.8636   19.2269 C.3     1  UNL1        0.0431
     30 H          -0.4632    1.3771   21.3725 H       1  UNL1        0.1233
@<TRIPOS>BOND
     1     1     2    2
     2     2     3    2
     3     2    18    1
     4    18    19    1
     5    19    20   ar
     6    20    21   ar
     7    21    22   ar
     8    22    23   ar
     9    23    24   ar
    10    23    25    1
    11    25    26    1
    12    26    27    1
    13    27    28    1
    14    28    29    1
    15     2     4    1
    16     4     5   ar
    17     5     6   ar
    18     6     7   ar
    19     7    10    1
    20    10    11    1
    21    11    12   ar
    22    12    13   ar
    23    13    14   ar
    24    14    15    1
    25    14    16   ar
    26    16    17   ar
    27     7     8   ar
    28     8     9   ar
    29    24    19   ar
    30     9     4   ar
    31    29    22    1
    32    17    11   ar
    33    27    30    1
@<TRIPOS>MOLECULE
*****
 30 33 0 0 0
SMALL
GASTEIGER

@<TRIPOS>ATOM
      1 O          -0.4272    0.9122   20.5491 O.2     1  UNL1       -0.1683
      2 S           0.7483    1.7982   20.8379 S.O2    1  UNL1        0.0143
      3 O           1.9237    2.6841   21.1267 O.2     1  UNL1       -0.1683
      4 C           0.1884    2.0981   22.1968 C.ar    1  UNL1        0.1253
      5 C           0.7021    1.3622   23.3988 C.ar    1  UNL1        0.0247
      6 C           0.1421    1.6622   24.7576 C.ar    1  UNL1        0.0594
      7 C          -0.9314    2.6979   24.9146 C.ar    1  UNL1        0.2298
      8 N          -1.4452    3.4338   23.7127 N.ar    1  UNL1       -0.2085
      9 C          -0.8853    3.1339   22.3538 C.ar    1  UNL1        0.1203
     10 O          -1.4914    2.9979   26.2735 O.3     1  UNL1       -0.4361
     11 C          -0.7662    2.5350   27.5023 C.ar    1  UNL1        0.1473
     12 C           0.2468    3.4272   28.1562 C.ar    1  UNL1        0.0399
     13 C           0.9719    2.9644   29.3849 C.ar    1  UNL1        0.0328
     14 C           0.6840    1.6092   29.9598 C.ar    1  UNL1        0.1403
     15 F           1.4091    1.1463   31.1886 F       1  UNL1       -0.2042
     16 C          -0.3291    0.7168   29.3060 C.ar    1  UNL1        0.0328
     17 C          -1.0542    1.1798   28.0772 C.ar    1  UNL1        0.0399
     18 C           1.3082    1.4982   19.4790 C.3     1  UNL1        0.1823
     19 C           2.2537    0.3485   19.2946 C.ar    1  UNL1        0.0014
     20 C           2.8316    0.0627   17.9402 C.ar    1  UNL1       -0.0029
     21 C           3.7772   -1.0870   17.7556 C.ar    1  UNL1       -0.0048
     22 C           4.1449   -1.9509   18.9256 C.ar    1  UNL1       -0.0247
     23 C           3.5670   -1.6650   20.2798 C.ar    1  UNL1       -0.0250
     24 C           2.6214   -0.5154   20.4644 C.ar    1  UNL1       -0.0071
     25 C           3.7995   -2.3957   21.5691 C.3     1  UNL1        0.0431
     26 C           4.6673   -3.5928   21.8223 C.3     1  UNL1        0.0733
     27 N           5.5169   -4.3546   20.8489 N.3     1  UNL1       -0.2969
     28 C           5.7086   -4.1078   19.3818 C.3     1  UNL1        0.0733
     29 C           5.0980   -3.0380   18.5258 C.3     1  UNL1        0.0431
     30 H           5.1716   -5.3128   20.9038 H       1  UNL1        0.1233
@<TRIPOS>BOND
     1     1     2    2
     2     2     3    2
     3     2    18    1
     4    18    19    1
     5    19    20   ar
     6    20    21   ar
     7    21    22   ar
     8    22    23   ar
     9    23    24   ar
    10    23    25    1
    11    25    26    1
    12    26    27    1
    13    27    28    1
    14    28    29    1
    15     2     4    1
    16     4     5   ar
    17     5     6   ar
    18     6     7   ar
    19     7    10    1
    20    10    11    1
    21    11    12   ar
    22    12    13   ar
    23    13    14   ar
    24    14    15    1
    25    14    16   ar
    26    16    17   ar
    27     7     8   ar
    28     8     9   ar
    29    24    19   ar
    30     9     4   ar
    31    29    22    1
    32    17    11   ar
    33    27    30    1
@<TRIPOS>MOLECULE
*****
 30 33 0 0 0
SMALL
GASTEIGER

@<TRIPOS>ATOM
      1 O           6.1895   -4.6475   20.5224 O.2     1  UNL1       -0.1683
      2 S           6.6578   -3.3237   21.0500 S.O2    1  UNL1        0.0143
      3 O           7.1262   -2.0000   21.5777 O.2     1  UNL1       -0.1683
      4 C           5.3191   -2.7247   20.7354 C.ar    1  UNL1        0.1253
      5 C           4.5071   -2.0892   21.8248 C.ar    1  UNL1        0.0247
      6 C           3.1684   -1.4902   21.5101 C.ar    1  UNL1        0.0594
      7 C           2.6417   -1.5265   20.1061 C.ar    1  UNL1        0.2298
      8 N           3.4537   -2.1620   19.0167 N.ar    1  UNL1       -0.2085
      9 C           4.7924   -2.7610   19.3313 C.ar    1  UNL1        0.1203
     10 O           1.3030   -0.9275   19.7914 O.3     1  UNL1       -0.4361
     11 C           1.1678    0.5561   19.6160 C.ar    1  UNL1        0.1473
     12 C           0.1239    1.3103   20.3850 C.ar    1  UNL1        0.0399
     13 C          -0.0112    2.7938   20.2096 C.ar    1  UNL1        0.0328
     14 C           0.8976    3.5232   19.2652 C.ar    1  UNL1        0.1403
     15 F           0.7625    5.0068   19.0898 F       1  UNL1       -0.2042
     16 C           1.9417    2.7691   18.4961 C.ar    1  UNL1        0.0328
     17 C           2.0767    1.2855   18.6716 C.ar    1  UNL1        0.0399
     18 C           7.9965   -3.9228   21.3647 C.3     1  UNL1        0.1823
     19 C           8.1287   -4.9215   22.4761 C.ar    1  UNL1        0.0014
     20 C           8.8899   -6.1947   22.2536 C.ar    1  UNL1       -0.0029
     21 C           9.0221   -7.1934   23.3650 C.ar    1  UNL1       -0.0048
     22 C           8.3931   -6.9188   24.6988 C.ar    1  UNL1       -0.0247
     23 C           7.6320   -5.6457   24.9212 C.ar    1  UNL1       -0.0250
     24 C           7.4998   -4.6469   23.8099 C.ar    1  UNL1       -0.0071
     25 C           6.9332   -5.1786   26.1637 C.3     1  UNL1        0.0431
     26 C           6.8230   -5.8696   27.4905 C.3     1  UNL1        0.0733
     27 N           7.3843   -7.1981   27.9026 N.3     1  UNL1       -0.2969
     28 C           8.1946   -8.1639   27.0897 C.3     1  UNL1        0.0733
     29 C           8.6435   -8.0396   25.6638 C.3     1  UNL1        0.0431
     30 H           6.5720   -7.7363   28.2039 H       1  UNL1        0.1233
@<TRIPOS>BOND
     1     1     2    2
     2     2     3    2
     3     2    18    1
     4    18    19    1
     5    19    20   ar
     6    20    21   ar
     7    21    22   ar
     8    22    23   ar
     9    23    24   ar
    10    23    25    1
    11    25    26    1
    12    26    27    1
    13    27    28    1
    14    28    29    1
    15     2     4    1
    16     4     5   ar
    17     5     6   ar
    18     6     7   ar
    19     7    10    1
    20    10    11    1
    21    11    12   ar
    22    12    13   ar
    23    13    14   ar
    24    14    15    1
    25    14    16   ar
    26    16    17   ar
    27     7     8   ar
    28     8     9   ar
    29    24    19   ar
    30     9     4   ar
    31    29    22    1
    32    17    11   ar
    33    27    30    1
@<TRIPOS>MOLECULE
*****
 30 33 0 0 0
SMALL
GASTEIGER

@<TRIPOS>ATOM
      1 O           6.5937   -4.8007   25.0021 O.2     1  UNL1       -0.1683
      2 S           7.6478   -3.9726   24.3290 S.O2    1  UNL1        0.0143
      3 O           8.7019   -3.1445   23.6558 O.2     1  UNL1       -0.1683
      4 C           6.7660   -3.8296   23.1240 C.ar    1  UNL1        0.1253
      5 C           5.2989   -3.5680   23.2950 C.ar    1  UNL1        0.0247
      6 C           4.4172   -3.4250   22.0900 C.ar    1  UNL1        0.0594
      7 C           5.0024   -3.5436   20.7140 C.ar    1  UNL1        0.2298
      8 N           6.4695   -3.8053   20.5429 N.ar    1  UNL1       -0.2085
      9 C           7.3513   -3.9483   21.7479 C.ar    1  UNL1        0.1203
     10 O           4.1207   -3.4007   19.5089 O.3     1  UNL1       -0.4361
     11 C           3.5345   -2.0640   19.1630 C.ar    1  UNL1        0.1473
     12 C           2.4508   -1.4763   20.0175 C.ar    1  UNL1        0.0399
     13 C           1.8647   -0.1397   19.6715 C.ar    1  UNL1        0.0328
     14 C           2.3622    0.6094   18.4710 C.ar    1  UNL1        0.1403
     15 F           1.7760    1.9461   18.1250 F       1  UNL1       -0.2042
     16 C           3.4460    0.0218   17.6164 C.ar    1  UNL1        0.0328
     17 C           4.0321   -1.3149   17.9624 C.ar    1  UNL1        0.0399
     18 C           8.5296   -4.1156   25.5339 C.3     1  UNL1        0.1823
     19 C           7.9882   -3.8126   26.8996 C.ar    1  UNL1        0.0014
     20 C           7.4770   -2.4383   27.2158 C.ar    1  UNL1       -0.0029
     21 C           6.9356   -2.1353   28.5815 C.ar    1  UNL1       -0.0048
     22 C           6.9054   -3.2067   29.6310 C.ar    1  UNL1       -0.0247
     23 C           7.4166   -4.5808   29.3148 C.ar    1  UNL1       -0.0250
     24 C           7.9581   -4.8839   27.9492 C.ar    1  UNL1       -0.0071
     25 C           7.4774   -5.7846   30.2078 C.3     1  UNL1        0.0431
     26 C           7.0419   -5.9112   31.6377 C.3     1  UNL1        0.0733
     27 N           6.4381   -4.8655   32.5275 N.3     1  UNL1       -0.2969
     28 C           6.1207   -3.4348   32.2074 C.3     1  UNL1        0.0733
     29 C           6.3286   -2.6965   30.9183 C.3     1  UNL1        0.0431
     30 H           7.0698   -4.8143   33.3267 H       1  UNL1        0.1233
@<TRIPOS>BOND
     1     1     2    2
     2     2     3    2
     3     2    18    1
     4    18    19    1
     5    19    20   ar
     6    20    21   ar
     7    21    22   ar
     8    22    23   ar
     9    23    24   ar
    10    23    25    1
    11    25    26    1
    12    26    27    1
    13    27    28    1
    14    28    29    1
    15     2     4    1
    16     4     5   ar
    17     5     6   ar
    18     6     7   ar
    19     7    10    1
    20    10    11    1
    21    11    12   ar
    22    12    13   ar
    23    13    14   ar
    24    14    15    1
    25    14    16   ar
    26    16    17   ar
    27     7     8   ar
    28     8     9   ar
    29    24    19   ar
    30     9     4   ar
    31    29    22    1
    32    17    11   ar
    33    27    30    1
@<TRIPOS>MOLECULE
*****
 30 33 0 0 0
SMALL
GASTEIGER

@<TRIPOS>ATOM
      1 O           6.1237   -0.7081   19.5441 O.2     1  UNL1       -0.1683
      2 S           5.8025   -1.8767   18.6603 S.O2    1  UNL1        0.0143
      3 O           5.4813   -3.0453   17.7764 O.2     1  UNL1       -0.1683
      4 C           6.7358   -2.7375   19.4592 C.ar    1  UNL1        0.1253
      5 C           8.2177   -2.5255   19.3646 C.ar    1  UNL1        0.0247
      6 C           9.1509   -3.3863   20.1636 C.ar    1  UNL1        0.0594
      7 C           8.6022   -4.4590   21.0570 C.ar    1  UNL1        0.2298
      8 N           7.1203   -4.6710   21.1515 N.ar    1  UNL1       -0.2085
      9 C           6.1870   -3.8102   20.3526 C.ar    1  UNL1        0.1203
     10 O           9.5354   -5.3197   21.8559 O.3     1  UNL1       -0.4361
     11 C           9.1304   -5.8018   23.2174 C.ar    1  UNL1        0.1473
     12 C           8.8351   -7.2553   23.4414 C.ar    1  UNL1        0.0399
     13 C           8.4302   -7.7373   24.8028 C.ar    1  UNL1        0.0328
     14 C           8.3206   -6.7658   25.9405 C.ar    1  UNL1        0.1403
     15 F           7.9157   -7.2478   27.3020 F       1  UNL1       -0.2042
     16 C           8.6160   -5.3122   25.7166 C.ar    1  UNL1        0.0328
     17 C           9.0209   -4.8303   24.3551 C.ar    1  UNL1        0.0399
     18 C           4.8693   -1.0160   17.8614 C.3     1  UNL1        0.1823
     19 C           3.6490   -0.4314   18.5087 C.ar    1  UNL1        0.0014
     20 C           2.8182   -1.2681   19.4359 C.ar    1  UNL1       -0.0029
     21 C           1.5978   -0.6836   20.0833 C.ar    1  UNL1       -0.0048
     22 C           1.2082    0.7377   19.8033 C.ar    1  UNL1       -0.0247
     23 C           2.0390    1.5743   18.8762 C.ar    1  UNL1       -0.0250
     24 C           3.2593    0.9898   18.2288 C.ar    1  UNL1       -0.0071
     25 C           1.8303    3.0014   18.4638 C.3     1  UNL1        0.0431
     26 C           0.7391    3.9442   18.8770 C.3     1  UNL1        0.0733
     27 N          -0.4126    3.6928   19.8044 N.3     1  UNL1       -0.2969
     28 C          -0.7578    2.4365   20.5478 C.3     1  UNL1        0.0733
     29 C          -0.0365    1.1213   20.5474 C.3     1  UNL1        0.0431
     30 H          -1.2406    3.8936   19.2437 H       1  UNL1        0.1233
@<TRIPOS>BOND
     1     1     2    2
     2     2     3    2
     3     2    18    1
     4    18    19    1
     5    19    20   ar
     6    20    21   ar
     7    21    22   ar
     8    22    23   ar
     9    23    24   ar
    10    23    25    1
    11    25    26    1
    12    26    27    1
    13    27    28    1
    14    28    29    1
    15     2     4    1
    16     4     5   ar
    17     5     6   ar
    18     6     7   ar
    19     7    10    1
    20    10    11    1
    21    11    12   ar
    22    12    13   ar
    23    13    14   ar
    24    14    15    1
    25    14    16   ar
    26    16    17   ar
    27     7     8   ar
    28     8     9   ar
    29    24    19   ar
    30     9     4   ar
    31    29    22    1
    32    17    11   ar
    33    27    30    1
@<TRIPOS>MOLECULE
*****
 30 33 0 0 0
SMALL
GASTEIGER

@<TRIPOS>ATOM
      1 O           6.8245   -2.2710   20.2159 O.2     1  UNL1       -0.1683
      2 S           5.8756   -3.4054   20.4665 S.O2    1  UNL1        0.0143
      3 O           4.9267   -4.5397   20.7172 O.2     1  UNL1       -0.1683
      4 C           6.5189   -3.6489   21.7995 C.ar    1  UNL1        0.1253
      5 C           5.7014   -3.5609   23.0541 C.ar    1  UNL1        0.0247
      6 C           6.3447   -3.8045   24.3870 C.ar    1  UNL1        0.0594
      7 C           7.8055   -4.1361   24.4655 C.ar    1  UNL1        0.2298
      8 N           8.6230   -4.2241   23.2110 N.ar    1  UNL1       -0.2085
      9 C           7.9797   -3.9805   21.8780 C.ar    1  UNL1        0.1203
     10 O           8.4488   -4.3797   25.7985 O.3     1  UNL1       -0.4361
     11 C           8.4395   -5.7558   26.3954 C.ar    1  UNL1        0.1473
     12 C           8.1494   -6.9466   25.5306 C.ar    1  UNL1        0.0399
     13 C           8.1401   -8.3226   26.1275 C.ar    1  UNL1        0.0328
     14 C           8.4209   -8.5079   27.5893 C.ar    1  UNL1        0.1403
     15 F           8.4116   -9.8840   28.1862 F       1  UNL1       -0.2042
     16 C           8.7110   -7.3171   28.4542 C.ar    1  UNL1        0.0328
     17 C           8.7203   -5.9411   27.8572 C.ar    1  UNL1        0.0399
     18 C           5.2323   -3.1618   19.1335 C.3     1  UNL1        0.1823
     19 C           4.2609   -2.0313   18.9650 C.ar    1  UNL1        0.0014
     20 C           4.1703   -1.3098   17.6531 C.ar    1  UNL1       -0.0029
     21 C           3.1989   -0.1793   17.4844 C.ar    1  UNL1       -0.0048
     22 C           2.3182    0.2296   18.6278 C.ar    1  UNL1       -0.0247
     23 C           2.4089   -0.4919   19.9396 C.ar    1  UNL1       -0.0250
     24 C           3.3802   -1.6224   20.1083 C.ar    1  UNL1       -0.0071
     25 C           1.6294   -0.2470   21.1976 C.3     1  UNL1        0.0431
     26 C           0.5667    0.7802   21.4543 C.3     1  UNL1        0.0733
     27 N           0.0211    1.8158   20.5165 N.3     1  UNL1       -0.2969
     28 C           0.4033    2.0803   19.0903 C.3     1  UNL1        0.0733
     29 C           1.4256    1.3744   18.2498 C.3     1  UNL1        0.0431
     30 H           0.1832    2.7029   20.9932 H       1  UNL1        0.1233
@<TRIPOS>BOND
     1     1     2    2
     2     2     3    2
     3     2    18    1
     4    18    19    1
     5    19    20   ar
     6    20    21   ar
     7    21    22   ar
     8    22    23   ar
     9    23    24   ar
    10    23    25    1
    11    25    26    1
    12    26    27    1
    13    27    28    1
    14    28    29    1
    15     2     4    1
    16     4     5   ar
    17     5     6   ar
    18     6     7   ar
    19     7    10    1
    20    10    11    1
    21    11    12   ar
    22    12    13   ar
    23    13    14   ar
    24    14    15    1
    25    14    16   ar
    26    16    17   ar
    27     7     8   ar
    28     8     9   ar
    29    24    19   ar
    30     9     4   ar
    31    29    22    1
    32    17    11   ar
    33    27    30    1
@<TRIPOS>MOLECULE
*****
 30 33 0 0 0
SMALL
GASTEIGER

@<TRIPOS>ATOM
      1 O           4.9053   -4.7867   20.3531 O.2     1  UNL1       -0.1683
      2 S           5.8463   -3.6461   20.1011 S.O2    1  UNL1        0.0143
      3 O           6.7873   -2.5055   19.8490 O.2     1  UNL1       -0.1683
      4 C           6.5657   -3.9570   21.3801 C.ar    1  UNL1        0.1253
      5 C           5.8651   -3.7856   22.6954 C.ar    1  UNL1        0.0247
      6 C           6.5845   -4.0965   23.9743 C.ar    1  UNL1        0.0594
      7 C           8.0044   -4.5787   23.9382 C.ar    1  UNL1        0.2298
      8 N           8.7050   -4.7501   22.6229 N.ar    1  UNL1       -0.2085
      9 C           7.9856   -4.4393   21.3439 C.ar    1  UNL1        0.1203
     10 O           8.7238   -4.8896   25.2171 O.3     1  UNL1       -0.4361
     11 C           8.0831   -4.5691   26.5350 C.ar    1  UNL1        0.1473
     12 C           7.2110   -5.5847   27.2118 C.ar    1  UNL1        0.0399
     13 C           6.5703   -5.2641   28.5296 C.ar    1  UNL1        0.0328
     14 C           6.8016   -3.9278   29.1706 C.ar    1  UNL1        0.1403
     15 F           6.1609   -3.6073   30.4885 F       1  UNL1       -0.2042
     16 C           7.6737   -2.9122   28.4939 C.ar    1  UNL1        0.0328
     17 C           8.3144   -3.2328   27.1761 C.ar    1  UNL1        0.0399
     18 C           5.1269   -3.3353   18.8220 C.3     1  UNL1        0.1823
     19 C           4.2139   -2.1477   18.7447 C.ar    1  UNL1        0.0014
     20 C           4.2134   -1.2805   17.5208 C.ar    1  UNL1       -0.0029
     21 C           3.3003   -0.0929   17.4434 C.ar    1  UNL1       -0.0048
     22 C           2.3877    0.2275   18.5900 C.ar    1  UNL1       -0.0247
     23 C           2.3883   -0.6397   19.8138 C.ar    1  UNL1       -0.0250
     24 C           3.3013   -1.8273   19.8913 C.ar    1  UNL1       -0.0071
     25 C           1.5645   -0.4997   21.0596 C.3     1  UNL1        0.0431
     26 C           0.5368    0.5422   21.3891 C.3     1  UNL1        0.0733
     27 N           0.0791    1.7011   20.5542 N.3     1  UNL1       -0.2969
     28 C           0.5359    2.1047   19.1836 C.3     1  UNL1        0.0733
     29 C           1.5634    1.4488   18.3094 C.3     1  UNL1        0.0431
     30 H           0.2579    2.5205   21.1347 H       1  UNL1        0.1233
@<TRIPOS>BOND
     1     1     2    2
     2     2     3    2
     3     2    18    1
     4    18    19    1
     5    19    20   ar
     6    20    21   ar
     7    21    22   ar
     8    22    23   ar
     9    23    24   ar
    10    23    25    1
    11    25    26    1
    12    26    27    1
    13    27    28    1
    14    28    29    1
    15     2     4    1
    16     4     5   ar
    17     5     6   ar
    18     6     7   ar
    19     7    10    1
    20    10    11    1
    21    11    12   ar
    22    12    13   ar
    23    13    14   ar
    24    14    15    1
    25    14    16   ar
    26    16    17   ar
    27     7     8   ar
    28     8     9   ar
    29    24    19   ar
    30     9     4   ar
    31    29    22    1
    32    17    11   ar
    33    27    30    1
@<TRIPOS>MOLECULE
*****
 30 33 0 0 0
SMALL
GASTEIGER

@<TRIPOS>ATOM
      1 O           2.8711    2.3933   25.1827 O.2     1  UNL1       -0.1683
      2 S           1.5756    1.6581   25.0066 S.O2    1  UNL1        0.0143
      3 O           0.2800    0.9229   24.8304 O.2     1  UNL1       -0.1683
      4 C           1.4950    1.4448   26.4891 C.ar    1  UNL1        0.1253
      5 C           0.1780    1.1204   27.1297 C.ar    1  UNL1        0.0247
      6 C           0.0975    0.9071   28.6123 C.ar    1  UNL1        0.0594
      7 C           1.3338    1.0182   29.4543 C.ar    1  UNL1        0.2298
      8 N           2.6508    1.3426   28.8137 N.ar    1  UNL1       -0.2085
      9 C           2.7314    1.5559   27.3312 C.ar    1  UNL1        0.1203
     10 O           1.2533    0.8049   30.9369 O.3     1  UNL1       -0.4361
     11 C           1.1896    1.9842   31.8618 C.ar    1  UNL1        0.1473
     12 C           0.3053    3.1497   31.5312 C.ar    1  UNL1        0.0399
     13 C           0.2415    4.3289   32.4561 C.ar    1  UNL1        0.0328
     14 C           1.0622    4.3425   33.7116 C.ar    1  UNL1        0.1403
     15 F           0.9985    5.5218   34.6365 F       1  UNL1       -0.2042
     16 C           1.9466    3.1769   34.0422 C.ar    1  UNL1        0.0328
     17 C           2.0103    1.9978   33.1173 C.ar    1  UNL1        0.0399
     18 C           1.6561    1.8714   23.5240 C.3     1  UNL1        0.1823
     19 C           2.0786    0.7464   22.6263 C.ar    1  UNL1        0.0014
     20 C           1.6125    0.7086   21.2011 C.ar    1  UNL1       -0.0029
     21 C           2.0349   -0.4165   20.3034 C.ar    1  UNL1       -0.0048
     22 C           2.9236   -1.5037   20.8310 C.ar    1  UNL1       -0.0247
     23 C           3.3896   -1.4659   22.2561 C.ar    1  UNL1       -0.0250
     24 C           2.9672   -0.3409   23.1539 C.ar    1  UNL1       -0.0071
     25 C           4.2721   -2.4410   22.9777 C.3     1  UNL1        0.0431
     26 C           4.9064   -3.6946   22.4522 C.3     1  UNL1        0.0733
     27 N           4.8148   -4.2828   21.0754 N.3     1  UNL1       -0.2969
     28 C           4.0664   -3.7627   19.8840 C.3     1  UNL1        0.0733
     29 C           3.2247   -2.5259   19.7752 C.3     1  UNL1        0.0431
     30 H           4.4411   -5.2204   21.2225 H       1  UNL1        0.1233
@<TRIPOS>BOND
     1     1     2    2
     2     2     3    2
     3     2    18    1
     4    18    19    1
     5    19    20   ar
     6    20    21   ar
     7    21    22   ar
     8    22    23   ar
     9    23    24   ar
    10    23    25    1
    11    25    26    1
    12    26    27    1
    13    27    28    1
    14    28    29    1
    15     2     4    1
    16     4     5   ar
    17     5     6   ar
    18     6     7   ar
    19     7    10    1
    20    10    11    1
    21    11    12   ar
    22    12    13   ar
    23    13    14   ar
    24    14    15    1
    25    14    16   ar
    26    16    17   ar
    27     7     8   ar
    28     8     9   ar
    29    24    19   ar
    30     9     4   ar
    31    29    22    1
    32    17    11   ar
    33    27    30    1
@<TRIPOS>MOLECULE
*****
 30 33 0 0 0
SMALL
GASTEIGER

@<TRIPOS>ATOM
      1 O          -0.4760    0.6889   20.4154 O.2     1  UNL1       -0.1683
      2 S           0.5929    1.7284   20.2523 S.O2    1  UNL1        0.0143
      3 O           1.6619    2.7680   20.0892 O.2     1  UNL1       -0.1683
      4 C           1.5334    0.6803   19.7357 C.ar    1  UNL1        0.1253
      5 C           1.7294   -0.5946   20.5014 C.ar    1  UNL1        0.0247
      6 C           2.6699   -1.6427   19.9848 C.ar    1  UNL1        0.0594
      7 C           3.4144   -1.4160   18.7025 C.ar    1  UNL1        0.2298
      8 N           3.2185   -0.1411   17.9368 N.ar    1  UNL1       -0.2085
      9 C           2.2780    0.9070   18.4534 C.ar    1  UNL1        0.1203
     10 O           4.3549   -2.4641   18.1859 O.3     1  UNL1       -0.4361
     11 C           5.6502   -2.7251   18.8960 C.ar    1  UNL1        0.1473
     12 C           6.9103   -2.0609   18.4262 C.ar    1  UNL1        0.0399
     13 C           8.2055   -2.3220   19.1363 C.ar    1  UNL1        0.0328
     14 C           8.2405   -3.2473   20.3164 C.ar    1  UNL1        0.1403
     15 F           9.5357   -3.5083   21.0266 F       1  UNL1       -0.2042
     16 C           6.9803   -3.9115   20.7863 C.ar    1  UNL1        0.0328
     17 C           5.6852   -3.6504   20.0761 C.ar    1  UNL1        0.0399
     18 C          -0.3476    2.7766   20.7689 C.3     1  UNL1        0.1823
     19 C          -1.4357    3.3093   19.8845 C.ar    1  UNL1        0.0014
     20 C          -1.0915    3.9308   18.5634 C.ar    1  UNL1       -0.0029
     21 C          -2.1796    4.4636   17.6789 C.ar    1  UNL1       -0.0048
     22 C          -3.6119    4.3749   18.1156 C.ar    1  UNL1       -0.0247
     23 C          -3.9560    3.7535   19.4367 C.ar    1  UNL1       -0.0250
     24 C          -2.8680    3.2207   20.3212 C.ar    1  UNL1       -0.0071
     25 C          -5.3084    3.5664   20.0583 C.3     1  UNL1        0.0431
     26 C          -6.6505    3.9547   19.5123 C.3     1  UNL1        0.0733
     27 N          -6.9716    4.6258   18.2099 N.3     1  UNL1       -0.2969
     28 C          -6.0302    5.0745   17.1317 C.3     1  UNL1        0.0733
     29 C          -4.5349    4.9628   17.0898 C.3     1  UNL1        0.0431
     30 H          -7.4770    5.4710   18.4758 H       1  UNL1        0.1233
@<TRIPOS>BOND
     1     1     2    2
     2     2     3    2
     3     2    18    1
     4    18    19    1
     5    19    20   ar
     6    20    21   ar
     7    21    22   ar
     8    22    23   ar
     9    23    24   ar
    10    23    25    1
    11    25    26    1
    12    26    27    1
    13    27    28    1
    14    28    29    1
    15     2     4    1
    16     4     5   ar
    17     5     6   ar
    18     6     7   ar
    19     7    10    1
    20    10    11    1
    21    11    12   ar
    22    12    13   ar
    23    13    14   ar
    24    14    15    1
    25    14    16   ar
    26    16    17   ar
    27     7     8   ar
    28     8     9   ar
    29    24    19   ar
    30     9     4   ar
    31    29    22    1
    32    17    11   ar
    33    27    30    1
