@<TRIPOS>MOLECULE
*****
 26 28 0 0 0
SMALL
GASTEIGER

@<TRIPOS>ATOM
      1 C         -10.1067  -18.6826   24.1039 C.ar    1  UNL1        0.1386
      2 C          -9.5055  -17.4053   23.5968 C.ar    1  UNL1        0.0369
      3 C          -8.2633  -17.4428   22.7569 C.ar    1  UNL1        0.0043
      4 C          -7.6223  -18.7574   22.4240 C.ar    1  UNL1        0.0153
      5 C          -8.2235  -20.0347   22.9312 C.ar    1  UNL1        0.0043
      6 C          -9.4657  -19.9972   23.7711 C.ar    1  UNL1        0.0369
      7 C          -6.3801  -18.7948   21.5841 C.2     1  UNL1        0.0767
      8 N          -6.4710  -18.5893   20.1010 N.2     1  UNL1       -0.1836
      9 N          -5.2288  -18.6267   19.2611 N.am    1  UNL1       -0.2062
     10 C          -3.8956  -18.8696   19.9042 C.2     1  UNL1        0.2405
     11 O          -2.6534  -18.9070   19.0643 O.2     1  UNL1       -0.2734
     12 C          -3.8047  -19.0751   21.3873 C.3     1  UNL1        0.0761
     13 C          -3.2106  -19.3235   22.7421 C.3     1  UNL1        0.0095
     14 C          -2.3561  -19.1988   21.0179 C.3     1  UNL1        0.0095
     15 C          -5.0469  -19.0377   22.2272 C.3     1  UNL1        0.0560
     16 H          -5.2885  -18.4918   18.2877 H       1  UNL1        0.1772
     17 O         -11.3490  -18.6452   24.9439 O.3     1  UNL1       -0.4754
     18 C         -12.6958  -18.5704   24.2880 C.3     1  UNL1        0.2068
     19 C         -12.9762  -17.5050   23.2699 C.3     1  UNL1        0.0646
     20 C         -13.1556  -17.8747   21.8273 C.3     1  UNL1        0.0759
     21 C         -11.3303  -16.0041   19.8731 C.3     1  UNL1        0.0173
     22 C         -11.1390  -17.4713   20.1199 C.3     1  UNL1        0.0576
     23 C         -10.0751  -18.3362   19.5116 C.3     1  UNL1        0.0174
     24 C         -10.2564  -19.7306   20.0340 C.3     1  UNL1        0.0187
     25 C         -11.4325  -19.7274   20.9651 C.3     1  UNL1        0.0721
     26 N         -11.9779  -18.3311   21.0181 N.3     1  UNL1       -0.2738
@<TRIPOS>BOND
     1    22    21    1
     2    22    23    1
     3    23    24    1
     4    24    25    1
     5    25    26    1
     6    26    20    1
     7    20    19    1
     8    19    18    1
     9    18    17    1
    10    17     1    1
    11     1     2   ar
    12     2     3   ar
    13     3     4   ar
    14     4     7    1
    15     7     8    2
    16     8     9    1
    17     9    10   am
    18    10    11    2
    19    10    12    1
    20    12    13    1
    21    12    14    1
    22    12    15    1
    23     4     5   ar
    24     5     6   ar
    25    26    22    1
    26     6     1   ar
    27    15     7    1
    28     9    16    1
@<TRIPOS>MOLECULE
*****
 26 28 0 0 0
SMALL
GASTEIGER

@<TRIPOS>ATOM
      1 C         -10.4768  -19.5470   21.2715 C.ar    1  UNL1        0.1386
      2 C          -9.7203  -19.7599   22.5492 C.ar    1  UNL1        0.0369
      3 C          -8.2204  -19.7735   22.5393 C.ar    1  UNL1        0.0043
      4 C          -7.4770  -19.5742   21.2518 C.ar    1  UNL1        0.0153
      5 C          -8.2335  -19.3613   19.9742 C.ar    1  UNL1        0.0043
      6 C          -9.7334  -19.3477   19.9840 C.ar    1  UNL1        0.0369
      7 C          -5.9771  -19.5878   21.2419 C.2     1  UNL1        0.0767
      8 N          -5.2414  -20.4698   20.2772 N.2     1  UNL1       -0.1836
      9 N          -3.7414  -20.4834   20.2674 N.am    1  UNL1       -0.2062
     10 C          -2.9773  -19.6150   21.2223 C.2     1  UNL1        0.2405
     11 O          -1.4774  -19.6285   21.2125 O.2     1  UNL1       -0.2734
     12 C          -3.7131  -18.7329   22.1870 C.3     1  UNL1        0.0761
     13 C          -3.9574  -17.7352   23.2802 C.3     1  UNL1        0.0095
     14 C          -2.2980  -18.4000   22.5569 C.3     1  UNL1        0.0095
     15 C          -5.2129  -18.7193   22.1968 C.3     1  UNL1        0.0560
     16 H          -3.2585  -21.0623   19.6342 H       1  UNL1        0.1772
     17 O         -11.9767  -19.5334   21.2814 O.3     1  UNL1       -0.4754
     18 C         -12.7137  -18.2448   21.4962 C.3     1  UNL1        0.2068
     19 C         -12.7817  -17.6391   22.8669 C.3     1  UNL1        0.0646
     20 C         -12.0654  -16.3531   23.1550 C.3     1  UNL1        0.0759
     21 C         -10.3633  -15.7037   20.4476 C.3     1  UNL1        0.0173
     22 C          -9.7884  -15.9885   21.8034 C.3     1  UNL1        0.0576
     23 C          -8.3301  -16.0247   22.1528 C.3     1  UNL1        0.0174
     24 C          -8.2112  -16.3456   23.6133 C.3     1  UNL1        0.0187
     25 C          -9.5960  -16.5077   24.1665 C.3     1  UNL1        0.0721
     26 N         -10.5708  -16.2870   23.0479 N.3     1  UNL1       -0.2738
@<TRIPOS>BOND
     1    22    21    1
     2    22    23    1
     3    23    24    1
     4    24    25    1
     5    25    26    1
     6    26    20    1
     7    20    19    1
     8    19    18    1
     9    18    17    1
    10    17     1    1
    11     1     2   ar
    12     2     3   ar
    13     3     4   ar
    14     4     7    1
    15     7     8    2
    16     8     9    1
    17     9    10   am
    18    10    11    2
    19    10    12    1
    20    12    13    1
    21    12    14    1
    22    12    15    1
    23     4     5   ar
    24     5     6   ar
    25    26    22    1
    26     6     1   ar
    27    15     7    1
    28     9    16    1
@<TRIPOS>MOLECULE
*****
 26 28 0 0 0
SMALL
GASTEIGER

@<TRIPOS>ATOM
      1 C          -6.2474  -18.8546   20.2801 C.ar    1  UNL1        0.1386
      2 C          -7.5592  -19.3288   19.7284 C.ar    1  UNL1        0.0369
      3 C          -8.7862  -19.3101   20.5910 C.ar    1  UNL1        0.0043
      4 C          -8.7015  -18.8174   22.0052 C.ar    1  UNL1        0.0153
      5 C          -7.3897  -18.3432   22.5569 C.ar    1  UNL1        0.0043
      6 C          -6.1627  -18.3619   21.6943 C.ar    1  UNL1        0.0369
      7 C          -9.9286  -18.7987   22.8678 C.2     1  UNL1        0.0767
      8 N          -9.8887  -19.3993   24.2417 N.2     1  UNL1       -0.1836
      9 N         -11.1159  -19.3807   25.1042 N.am    1  UNL1       -0.2062
     10 C         -12.3827  -18.7615   24.5928 C.2     1  UNL1        0.2405
     11 O         -13.6098  -18.7428   25.4553 O.2     1  UNL1       -0.2734
     12 C         -12.4225  -18.1609   23.2188 C.3     1  UNL1        0.0761
     13 C         -12.9524  -17.4706   21.9970 C.3     1  UNL1        0.0095
     14 C         -13.8337  -17.9025   23.6570 C.3     1  UNL1        0.0095
     15 C         -11.1955  -18.1795   22.3563 C.3     1  UNL1        0.0560
     16 H         -11.0897  -19.7749   26.0060 H       1  UNL1        0.1772
     17 O          -5.0203  -18.8733   19.4175 O.3     1  UNL1       -0.4754
     18 C          -4.0206  -19.9825   19.5594 C.3     1  UNL1        0.2068
     19 C          -3.6748  -20.5110   20.9200 C.3     1  UNL1        0.0646
     20 C          -2.5157  -19.9333   21.6767 C.3     1  UNL1        0.0759
     21 C          -3.4622  -17.2992   23.3546 C.3     1  UNL1        0.0173
     22 C          -2.5162  -17.3102   22.1905 C.3     1  UNL1        0.0576
     23 C          -1.8391  -16.1123   21.5934 C.3     1  UNL1        0.0174
     24 C          -0.9856  -16.5827   20.4530 C.3     1  UNL1        0.0187
     25 C          -1.1352  -18.0713   20.3455 C.3     1  UNL1        0.0721
     26 N          -2.0812  -18.5209   21.4193 N.3     1  UNL1       -0.2738
@<TRIPOS>BOND
     1    22    21    1
     2    22    23    1
     3    23    24    1
     4    24    25    1
     5    25    26    1
     6    26    20    1
     7    20    19    1
     8    19    18    1
     9    18    17    1
    10    17     1    1
    11     1     2   ar
    12     2     3   ar
    13     3     4   ar
    14     4     7    1
    15     7     8    2
    16     8     9    1
    17     9    10   am
    18    10    11    2
    19    10    12    1
    20    12    13    1
    21    12    14    1
    22    12    15    1
    23     4     5   ar
    24     5     6   ar
    25    26    22    1
    26     6     1   ar
    27    15     7    1
    28     9    16    1
@<TRIPOS>MOLECULE
*****
 26 28 0 0 0
SMALL
GASTEIGER

@<TRIPOS>ATOM
      1 C          -8.9890  -19.6446   21.0945 C.ar    1  UNL1        0.1386
      2 C          -8.4053  -19.5265   19.7179 C.ar    1  UNL1        0.0369
      3 C          -6.9212  -19.4000   19.5409 C.ar    1  UNL1        0.0043
      4 C          -6.0208  -19.3916   20.7406 C.ar    1  UNL1        0.0153
      5 C          -6.6046  -19.5096   22.1173 C.ar    1  UNL1        0.0043
      6 C          -8.0887  -19.6361   22.2942 C.ar    1  UNL1        0.0369
      7 C          -4.5366  -19.2651   20.5636 C.2     1  UNL1        0.0767
      8 N          -3.6075  -20.0713   21.4219 N.2     1  UNL1       -0.1836
      9 N          -2.1233  -19.9448   21.2449 N.am    1  UNL1       -0.2062
     10 C          -1.5683  -19.0120   20.2096 C.2     1  UNL1        0.2405
     11 O          -0.0842  -18.8855   20.0326 O.2     1  UNL1       -0.2734
     12 C          -2.4975  -18.2058   19.3513 C.3     1  UNL1        0.0761
     13 C          -2.9679  -17.2389   18.3053 C.3     1  UNL1        0.0095
     14 C          -1.1767  -17.7435   18.8110 C.3     1  UNL1        0.0095
     15 C          -3.9816  -18.3323   19.5283 C.3     1  UNL1        0.0560
     16 H          -1.5135  -20.4740   21.8083 H       1  UNL1        0.1772
     17 O         -10.4732  -19.7711   21.2715 O.3     1  UNL1       -0.4754
     18 C         -11.0716  -19.7211   22.6461 C.3     1  UNL1        0.2068
     19 C         -11.6997  -18.4536   23.1450 C.3     1  UNL1        0.0646
     20 C         -10.9388  -17.5544   24.0737 C.3     1  UNL1        0.0759
     21 C          -8.4843  -16.3605   25.8623 C.3     1  UNL1        0.0173
     22 C          -8.6545  -16.2007   24.3806 C.3     1  UNL1        0.0576
     23 C          -7.7263  -15.4641   23.4609 C.3     1  UNL1        0.0174
     24 C          -8.2809  -15.5576   22.0702 C.3     1  UNL1        0.0187
     25 C          -9.5519  -16.3521   22.1306 C.3     1  UNL1        0.0721
     26 N          -9.7827  -16.7495   23.5584 N.3     1  UNL1       -0.2738
@<TRIPOS>BOND
     1    22    21    1
     2    22    23    1
     3    23    24    1
     4    24    25    1
     5    25    26    1
     6    26    20    1
     7    20    19    1
     8    19    18    1
     9    18    17    1
    10    17     1    1
    11     1     2   ar
    12     2     3   ar
    13     3     4   ar
    14     4     7    1
    15     7     8    2
    16     8     9    1
    17     9    10   am
    18    10    11    2
    19    10    12    1
    20    12    13    1
    21    12    14    1
    22    12    15    1
    23     4     5   ar
    24     5     6   ar
    25    26    22    1
    26     6     1   ar
    27    15     7    1
    28     9    16    1
@<TRIPOS>MOLECULE
*****
 26 28 0 0 0
SMALL
GASTEIGER

@<TRIPOS>ATOM
      1 C         -13.2549   -2.5745   18.4235 C.ar    1  UNL1        0.1386
      2 C         -12.8083   -3.4313   19.5709 C.ar    1  UNL1        0.0369
      3 C         -13.3857   -4.8040   19.7510 C.ar    1  UNL1        0.0043
      4 C         -14.4095   -5.3198   18.7837 C.ar    1  UNL1        0.0153
      5 C         -14.8561   -4.4630   17.6363 C.ar    1  UNL1        0.0043
      6 C         -14.2787   -3.0903   17.4563 C.ar    1  UNL1        0.0369
      7 C         -14.9869   -6.6925   18.9638 C.2     1  UNL1        0.0767
      8 N         -14.1130   -7.9009   18.8019 N.2     1  UNL1       -0.1836
      9 N         -14.6904   -9.2736   18.9820 N.am    1  UNL1       -0.2062
     10 C         -16.1416   -9.4379   19.3241 C.2     1  UNL1        0.2405
     11 O         -16.7190  -10.8105   19.5042 O.2     1  UNL1       -0.2734
     12 C         -17.0155   -8.2294   19.4860 C.3     1  UNL1        0.0761
     13 C         -18.2372   -7.3974   19.7413 C.3     1  UNL1        0.0095
     14 C         -18.0171   -9.3132   19.7548 C.3     1  UNL1        0.0095
     15 C         -16.4381   -6.8568   19.3059 C.3     1  UNL1        0.0560
     16 H         -14.1168  -10.0667   18.8757 H       1  UNL1        0.1772
     17 O         -12.6775   -1.2018   18.2434 O.3     1  UNL1       -0.4754
     18 C         -11.2587   -1.0391   17.7847 C.3     1  UNL1        0.2068
     19 C         -10.6975   -1.9595   16.7416 C.3     1  UNL1        0.0646
     20 C          -9.9043   -3.1644   17.1528 C.3     1  UNL1        0.0759
     21 C          -9.4197   -5.6325   19.2320 C.3     1  UNL1        0.0173
     22 C         -10.2900   -5.6664   18.0107 C.3     1  UNL1        0.0576
     23 C         -11.0903   -6.8407   17.5308 C.3     1  UNL1        0.0174
     24 C         -11.8077   -6.4321   16.2784 C.3     1  UNL1        0.0187
     25 C         -11.4508   -5.0051   15.9844 C.3     1  UNL1        0.0721
     26 N         -10.5127   -4.5319   17.0551 N.3     1  UNL1       -0.2738
@<TRIPOS>BOND
     1    22    21    1
     2    22    23    1
     3    23    24    1
     4    24    25    1
     5    25    26    1
     6    26    20    1
     7    20    19    1
     8    19    18    1
     9    18    17    1
    10    17     1    1
    11     1     2   ar
    12     2     3   ar
    13     3     4   ar
    14     4     7    1
    15     7     8    2
    16     8     9    1
    17     9    10   am
    18    10    11    2
    19    10    12    1
    20    12    13    1
    21    12    14    1
    22    12    15    1
    23     4     5   ar
    24     5     6   ar
    25    26    22    1
    26     6     1   ar
    27    15     7    1
    28     9    16    1
@<TRIPOS>MOLECULE
*****
 26 28 0 0 0
SMALL
GASTEIGER

@<TRIPOS>ATOM
      1 C          -8.9404  -17.3629   23.6552 C.ar    1  UNL1        0.1386
      2 C          -7.9281  -16.2959   23.9494 C.ar    1  UNL1        0.0369
      3 C          -6.5116  -16.4569   23.4830 C.ar    1  UNL1        0.0043
      4 C          -6.1074  -17.6850   22.7224 C.ar    1  UNL1        0.0153
      5 C          -7.1197  -18.7520   22.4282 C.ar    1  UNL1        0.0043
      6 C          -8.5362  -18.5910   22.8946 C.ar    1  UNL1        0.0369
      7 C          -4.6908  -17.8460   22.2561 C.2     1  UNL1        0.0767
      8 N          -3.6282  -16.9084   22.7476 N.2     1  UNL1       -0.1836
      9 N          -2.2116  -17.0694   22.2813 N.am    1  UNL1       -0.2062
     10 C          -1.8577  -18.1681   21.3233 C.2     1  UNL1        0.2405
     11 O          -0.4412  -18.3291   20.8569 O.2     1  UNL1       -0.2734
     12 C          -2.9204  -19.1057   20.8317 C.3     1  UNL1        0.0761
     13 C          -3.5694  -20.2356   20.0885 C.3     1  UNL1        0.0095
     14 C          -1.7292  -19.6592   20.1073 C.3     1  UNL1        0.0095
     15 C          -4.3369  -18.9447   21.2981 C.3     1  UNL1        0.0560
     16 H          -1.5142  -16.4540   22.6039 H       1  UNL1        0.1772
     17 O         -10.3570  -17.2019   24.1215 O.3     1  UNL1       -0.4754
     18 C         -11.3317  -16.4111   23.3002 C.3     1  UNL1        0.2068
     19 C         -12.7311  -16.9151   23.1059 C.3     1  UNL1        0.0646
     20 C         -13.0573  -17.7889   21.9312 C.3     1  UNL1        0.0759
     21 C         -11.4627  -16.1953   19.5717 C.3     1  UNL1        0.0173
     22 C         -11.2208  -17.6133   19.9969 C.3     1  UNL1        0.0576
     23 C         -10.2035  -18.5477   19.4122 C.3     1  UNL1        0.0174
     24 C         -10.3076  -19.8577   20.1354 C.3     1  UNL1        0.0187
     25 C         -11.3894  -19.7329   21.1670 C.3     1  UNL1        0.0721
     26 N         -11.9537  -18.3458   21.0815 N.3     1  UNL1       -0.2738
@<TRIPOS>BOND
     1    22    21    1
     2    22    23    1
     3    23    24    1
     4    24    25    1
     5    25    26    1
     6    26    20    1
     7    20    19    1
     8    19    18    1
     9    18    17    1
    10    17     1    1
    11     1     2   ar
    12     2     3   ar
    13     3     4   ar
    14     4     7    1
    15     7     8    2
    16     8     9    1
    17     9    10   am
    18    10    11    2
    19    10    12    1
    20    12    13    1
    21    12    14    1
    22    12    15    1
    23     4     5   ar
    24     5     6   ar
    25    26    22    1
    26     6     1   ar
    27    15     7    1
    28     9    16    1
@<TRIPOS>MOLECULE
*****
 26 28 0 0 0
SMALL
GASTEIGER

@<TRIPOS>ATOM
      1 C          -6.2639  -19.1284   20.1296 C.ar    1  UNL1        0.1386
      2 C          -7.4908  -19.5437   19.3732 C.ar    1  UNL1        0.0369
      3 C          -8.8493  -19.3313   19.9728 C.ar    1  UNL1        0.0043
      4 C          -8.9808  -18.7036   21.3288 C.ar    1  UNL1        0.0153
      5 C          -7.7539  -18.2882   22.0852 C.ar    1  UNL1        0.0043
      6 C          -6.3955  -18.5006   21.4856 C.ar    1  UNL1        0.0369
      7 C         -10.3393  -18.4912   21.9283 C.2     1  UNL1        0.0767
      8 N         -11.4475  -17.9230   21.0924 N.2     1  UNL1       -0.1836
      9 N         -12.8061  -17.7106   21.6919 N.am    1  UNL1       -0.2062
     10 C         -13.0563  -18.0664   23.1275 C.2     1  UNL1        0.2405
     11 O         -14.4147  -17.8541   23.7270 O.2     1  UNL1       -0.2734
     12 C         -11.9479  -18.6347   23.9634 C.3     1  UNL1        0.0761
     13 C         -11.2241  -19.1970   25.1509 C.3     1  UNL1        0.0095
     14 C         -13.0550  -18.6176   24.9754 C.3     1  UNL1        0.0095
     15 C         -10.5895  -18.8470   23.3639 C.3     1  UNL1        0.0560
     16 H         -13.5335  -17.3376   21.1432 H       1  UNL1        0.1772
     17 O          -4.9054  -19.3408   19.5301 O.3     1  UNL1       -0.4754
     18 C          -4.1554  -20.6108   19.8030 C.3     1  UNL1        0.2068
     19 C          -2.7283  -20.5552   20.2618 C.3     1  UNL1        0.0646
     20 C          -2.3826  -19.8829   21.5573 C.3     1  UNL1        0.0759
     21 C          -0.3817  -18.0470   19.7476 C.3     1  UNL1        0.0173
     22 C          -1.3408  -17.5453   20.7861 C.3     1  UNL1        0.0576
     23 C          -1.5486  -16.1116   21.1750 C.3     1  UNL1        0.0174
     24 C          -2.5968  -16.0694   22.2473 C.3     1  UNL1        0.0187
     25 C          -3.0367  -17.4770   22.5210 C.3     1  UNL1        0.0721
     26 N          -2.2605  -18.3892   21.6179 N.3     1  UNL1       -0.2738
@<TRIPOS>BOND
     1    22    21    1
     2    22    23    1
     3    23    24    1
     4    24    25    1
     5    25    26    1
     6    26    20    1
     7    20    19    1
     8    19    18    1
     9    18    17    1
    10    17     1    1
    11     1     2   ar
    12     2     3   ar
    13     3     4   ar
    14     4     7    1
    15     7     8    2
    16     8     9    1
    17     9    10   am
    18    10    11    2
    19    10    12    1
    20    12    13    1
    21    12    14    1
    22    12    15    1
    23     4     5   ar
    24     5     6   ar
    25    26    22    1
    26     6     1   ar
    27    15     7    1
    28     9    16    1
@<TRIPOS>MOLECULE
*****
 26 28 0 0 0
SMALL
GASTEIGER

@<TRIPOS>ATOM
      1 C         -11.0953   -4.3490   17.6985 C.ar    1  UNL1        0.1386
      2 C         -11.0903   -5.1234   18.9831 C.ar    1  UNL1        0.0369
      3 C         -12.1706   -6.1271   19.2579 C.ar    1  UNL1        0.0043
      4 C         -13.2558   -6.3563   18.2481 C.ar    1  UNL1        0.0153
      5 C         -13.2608   -5.5819   16.9635 C.ar    1  UNL1        0.0043
      6 C         -12.1805   -4.5783   16.6887 C.ar    1  UNL1        0.0369
      7 C         -14.3362   -7.3601   18.5230 C.2     1  UNL1        0.0767
      8 N         -14.0892   -8.8171   18.2661 N.2     1  UNL1       -0.1836
      9 N         -15.1696   -9.8208   18.5410 N.am    1  UNL1       -0.2062
     10 C         -16.4968   -9.3674   19.0728 C.2     1  UNL1        0.2405
     11 O         -17.5771  -10.3711   19.3477 O.2     1  UNL1       -0.2734
     12 C         -16.7437   -7.9103   19.3298 C.3     1  UNL1        0.0761
     13 C         -17.4512   -6.6498   19.7305 C.3     1  UNL1        0.0095
     14 C         -18.0698   -8.4762   19.7439 C.3     1  UNL1        0.0095
     15 C         -15.6634   -6.9067   19.0549 C.3     1  UNL1        0.0560
     16 H         -15.0075  -10.7771   18.3724 H       1  UNL1        0.1772
     17 O         -10.0149   -3.3453   17.4236 O.3     1  UNL1       -0.4754
     18 C         -10.3567   -2.0312   16.7862 C.3     1  UNL1        0.2068
     19 C         -11.0789   -0.9800   17.5758 C.3     1  UNL1        0.0646
     20 C         -11.9170   -1.3723   18.7563 C.3     1  UNL1        0.0759
     21 C         -13.6569   -3.1641   20.8566 C.3     1  UNL1        0.0173
     22 C         -14.1228   -2.6764   19.5168 C.3     1  UNL1        0.0576
     23 C         -15.4703   -2.9267   18.9072 C.3     1  UNL1        0.0174
     24 C         -15.5033   -2.2577   17.5650 C.3     1  UNL1        0.0187
     25 C         -14.1763   -1.5940   17.3451 C.3     1  UNL1        0.0721
     26 N         -13.3230   -1.8528   18.5514 N.3     1  UNL1       -0.2738
@<TRIPOS>BOND
     1    22    21    1
     2    22    23    1
     3    23    24    1
     4    24    25    1
     5    25    26    1
     6    26    20    1
     7    20    19    1
     8    19    18    1
     9    18    17    1
    10    17     1    1
    11     1     2   ar
    12     2     3   ar
    13     3     4   ar
    14     4     7    1
    15     7     8    2
    16     8     9    1
    17     9    10   am
    18    10    11    2
    19    10    12    1
    20    12    13    1
    21    12    14    1
    22    12    15    1
    23     4     5   ar
    24     5     6   ar
    25    26    22    1
    26     6     1   ar
    27    15     7    1
    28     9    16    1
@<TRIPOS>MOLECULE
*****
 26 28 0 0 0
SMALL
GASTEIGER

@<TRIPOS>ATOM
      1 C          -8.1134  -18.1020   23.1610 C.ar    1  UNL1        0.1386
      2 C          -7.6101  -19.2827   22.3848 C.ar    1  UNL1        0.0369
      3 C          -6.1843  -19.3225   21.9205 C.ar    1  UNL1        0.0043
      4 C          -5.2619  -18.1815   22.2324 C.ar    1  UNL1        0.0153
      5 C          -5.7652  -17.0008   23.0086 C.ar    1  UNL1        0.0043
      6 C          -7.1909  -16.9610   23.4729 C.ar    1  UNL1        0.0369
      7 C          -3.8361  -18.2213   21.7681 C.2     1  UNL1        0.0767
      8 N          -2.7293  -18.4208   22.7607 N.2     1  UNL1       -0.1836
      9 N          -1.3035  -18.4606   22.2964 N.am    1  UNL1       -0.2062
     10 C          -0.9845  -18.3008   20.8394 C.2     1  UNL1        0.2405
     11 O           0.4412  -18.3406   20.3750 O.2     1  UNL1       -0.2734
     12 C          -2.0913  -18.1013   19.8468 C.3     1  UNL1        0.0761
     13 C          -2.7868  -17.8901   18.5346 C.3     1  UNL1        0.0095
     14 C          -0.9071  -18.0678   18.9267 C.3     1  UNL1        0.0095
     15 C          -3.5171  -18.0615   20.3111 C.3     1  UNL1        0.0560
     16 H          -0.5771  -18.5915   22.9478 H       1  UNL1        0.1772
     17 O          -9.5392  -18.0622   23.6254 O.3     1  UNL1       -0.4754
     18 C         -10.1607  -19.2791   24.2439 C.3     1  UNL1        0.2068
     19 C         -11.0613  -20.1585   23.4279 C.3     1  UNL1        0.0646
     20 C         -11.1254  -19.9903   21.9387 C.3     1  UNL1        0.0759
     21 C         -13.3143  -17.8563   23.0806 C.3     1  UNL1        0.0173
     22 C         -12.4446  -17.6665   21.8734 C.3     1  UNL1        0.0576
     23 C         -12.4283  -16.4624   20.9790 C.3     1  UNL1        0.0174
     24 C         -11.4121  -16.6991   19.9013 C.3     1  UNL1        0.0187
     25 C         -10.8003  -18.0495   20.1297 C.3     1  UNL1        0.0721
     26 N         -11.4384  -18.6473   21.3485 N.3     1  UNL1       -0.2738
@<TRIPOS>BOND
     1    22    21    1
     2    22    23    1
     3    23    24    1
     4    24    25    1
     5    25    26    1
     6    26    20    1
     7    20    19    1
     8    19    18    1
     9    18    17    1
    10    17     1    1
    11     1     2   ar
    12     2     3   ar
    13     3     4   ar
    14     4     7    1
    15     7     8    2
    16     8     9    1
    17     9    10   am
    18    10    11    2
    19    10    12    1
    20    12    13    1
    21    12    14    1
    22    12    15    1
    23     4     5   ar
    24     5     6   ar
    25    26    22    1
    26     6     1   ar
    27    15     7    1
    28     9    16    1
