@<TRIPOS>MOLECULE
*****
 39 42 0 0 0
SMALL
GASTEIGER

@<TRIPOS>ATOM
      1 C          -6.5829  -14.6335   27.6147 C.3     1  UNL1        0.0214
      2 C          -6.3320  -15.6502   26.5408 C.3     1  UNL1        0.0770
      3 N          -7.2777  -16.8007   26.3614 N.am    1  UNL1       -0.2902
      4 C          -8.4886  -16.6473   25.4895 C.2     1  UNL1        0.3044
      5 O          -8.7537  -15.3434   24.7969 O.2     1  UNL1       -0.2525
      6 N          -9.4343  -17.7977   25.3101 N.am    1  UNL1       -0.2683
      7 H          -7.1037  -17.6564   26.8160 H       1  UNL1        0.1509
      8 H          -9.2602  -18.6534   25.7646 H       1  UNL1        0.1564
      9 C         -10.6451  -17.6443   24.4381 C.ar    1  UNL1        0.0522
     10 C         -11.9745  -18.1608   24.9031 C.ar    1  UNL1        0.0214
     11 C         -13.1853  -18.0073   24.0311 C.ar    1  UNL1        0.0359
     12 BR        -14.5146  -18.5238   24.4961 Br      1  UNL1       -0.0490
     13 C         -13.0668  -17.3375   22.6942 C.ar    1  UNL1        0.0099
     14 C         -11.7375  -16.8210   22.2293 C.ar    1  UNL1        0.0391
     15 C         -10.5266  -16.9744   23.1013 C.ar    1  UNL1        0.0178
     16 C         -11.6191  -16.1511   20.8924 C.ar    1  UNL1        0.1839
     17 N         -12.6839  -16.0941   19.8374 N.ar    1  UNL1       -0.1081
     18 N         -12.1378  -15.3284   18.6688 N.ar    1  UNL1       -0.0227
     19 N         -10.7357  -14.9121   19.0016 N.ar    1  UNL1       -0.0429
     20 N         -10.4151  -15.4206   20.3759 N.ar    1  UNL1       -0.2113
     21 C          -9.1182  -15.2317   21.1055 C.3     1  UNL1        0.1573
     22 C          -5.1354  -15.5166   25.6462 C.3     1  UNL1        0.0661
     23 C          -5.2898  -15.6579   24.1609 C.3     1  UNL1        0.1738
     24 O          -6.0228  -14.6079   23.3797 O.3     1  UNL1       -0.3697
     25 H          -6.0315  -14.8507   22.4407 H       1  UNL1        0.2119
     26 N          -4.7113  -16.8493   23.4567 N.3     1  UNL1       -0.2511
     27 C          -3.2353  -16.9255   23.2006 C.3     1  UNL1        0.0742
     28 C          -2.6568  -18.1169   22.4964 C.3     1  UNL1        0.0175
     29 C          -3.5543  -19.2321   22.0483 C.3     1  UNL1        0.0031
     30 C          -5.0303  -19.1559   22.3043 C.3     1  UNL1        0.0205
     31 C          -5.6088  -17.9645   23.0085 C.3     1  UNL1        0.0745
     32 C          -5.9278  -20.2711   21.8562 C.3     1  UNL1        0.0277
     33 C          -7.2404  -19.9600   21.2002 C.ar    1  UNL1       -0.0220
     34 C          -8.4980  -19.9267   22.0172 C.ar    1  UNL1       -0.0020
     35 C          -9.8105  -19.6156   21.3612 C.ar    1  UNL1        0.0293
     36 C          -9.8655  -19.3377   19.8882 C.ar    1  UNL1        0.1401
     37 F         -11.1781  -19.0265   19.2321 F       1  UNL1       -0.2042
     38 C          -8.6080  -19.3709   19.0712 C.ar    1  UNL1        0.0293
     39 C          -7.2954  -19.6821   19.7272 C.ar    1  UNL1       -0.0020
@<TRIPOS>BOND
     1     2     1    1
     2     2    22    1
     3    22    23    1
     4    23    24    1
     5    23    26    1
     6    26    27    1
     7    27    28    1
     8    28    29    1
     9    29    30    1
    10    30    32    1
    11    32    33    1
    12    33    34   ar
    13    34    35   ar
    14    35    36   ar
    15    36    37    1
    16    36    38   ar
    17    38    39   ar
    18    30    31    1
    19     2     3    1
    20     3     4   am
    21     4     5    2
    22     4     6   am
    23     6     9    1
    24     9    10   ar
    25    10    11   ar
    26    11    12    1
    27    11    13   ar
    28    13    14   ar
    29    14    16    1
    30    16    17   ar
    31    17    18   ar
    32    18    19   ar
    33    19    20   ar
    34    20    21    1
    35    14    15   ar
    36    31    26    1
    37    15     9   ar
    38    39    33   ar
    39    20    16   ar
    40    24    25    1
    41     3     7    1
    42     6     8    1
@<TRIPOS>MOLECULE
*****
 39 42 0 0 0
SMALL
GASTEIGER

@<TRIPOS>ATOM
      1 C           9.2671   -4.9623   31.3796 C.3     1  UNL1        0.0214
      2 C           7.8772   -5.3592   30.9788 C.3     1  UNL1        0.0770
      3 N           6.7214   -5.0650   31.8885 N.am    1  UNL1       -0.2902
      4 C           6.2286   -3.6568   32.0435 C.2     1  UNL1        0.3044
      5 O           6.8916   -2.5429   31.2888 O.2     1  UNL1       -0.2525
      6 N           5.0728   -3.3625   32.9532 N.am    1  UNL1       -0.2683
      7 H           6.2863   -5.7961   32.3838 H       1  UNL1        0.1509
      8 H           4.6377   -4.0936   33.4485 H       1  UNL1        0.1564
      9 C           4.5800   -1.9543   33.1082 C.ar    1  UNL1        0.0522
     10 C           4.8745   -1.1907   34.3653 C.ar    1  UNL1        0.0214
     11 C           4.3817    0.2175   34.5203 C.ar    1  UNL1        0.0359
     12 BR          4.6762    0.9810   35.7773 Br      1  UNL1       -0.0490
     13 C           3.5944    0.8622   33.4182 C.ar    1  UNL1        0.0099
     14 C           3.2999    0.0987   32.1611 C.ar    1  UNL1        0.0391
     15 C           3.7927   -1.3096   32.0061 C.ar    1  UNL1        0.0178
     16 C           2.5126    0.7434   31.0591 C.ar    1  UNL1        0.1839
     17 N           1.0845    1.1948   31.1433 N.ar    1  UNL1       -0.1081
     18 N           0.7045    1.7802   29.8155 N.ar    1  UNL1       -0.0227
     19 N           1.8976    1.6906   28.9108 N.ar    1  UNL1       -0.0429
     20 N           3.0150    1.0498   29.6794 N.ar    1  UNL1       -0.2113
     21 C           4.3930    0.7654   29.1595 C.3     1  UNL1        0.1573
     22 C           7.6431   -6.0505   29.6682 C.3     1  UNL1        0.0661
     23 C           7.1499   -5.2699   28.4862 C.3     1  UNL1        0.1738
     24 O           6.3710   -4.0051   28.6947 O.3     1  UNL1       -0.3697
     25 H           6.1301   -3.6281   27.8340 H       1  UNL1        0.2119
     26 N           7.4358   -5.7540   27.0955 N.3     1  UNL1       -0.2511
     27 C           7.5713   -7.2233   26.8259 C.3     1  UNL1        0.0742
     28 C           7.8571   -7.7074   25.4352 C.3     1  UNL1        0.0175
     29 C           8.0074   -6.7222   24.3142 C.3     1  UNL1        0.0031
     30 C           7.8719   -5.2529   24.5838 C.3     1  UNL1        0.0205
     31 C           7.5861   -4.7688   25.9744 C.3     1  UNL1        0.0745
     32 C           8.0222   -4.2677   23.4627 C.3     1  UNL1        0.0277
     33 C           6.8748   -4.0104   22.5314 C.ar    1  UNL1       -0.0220
     34 C           5.5093   -3.7274   23.0840 C.ar    1  UNL1       -0.0020
     35 C           4.3619   -3.4701   22.1527 C.ar    1  UNL1        0.0293
     36 C           4.5800   -3.4959   20.6689 C.ar    1  UNL1        0.1401
     37 F           3.4326   -3.2386   19.7376 F       1  UNL1       -0.2042
     38 C           5.9455   -3.7789   20.1163 C.ar    1  UNL1        0.0293
     39 C           7.0929   -4.0362   21.0476 C.ar    1  UNL1       -0.0020
@<TRIPOS>BOND
     1     2     1    1
     2     2    22    1
     3    22    23    1
     4    23    24    1
     5    23    26    1
     6    26    27    1
     7    27    28    1
     8    28    29    1
     9    29    30    1
    10    30    32    1
    11    32    33    1
    12    33    34   ar
    13    34    35   ar
    14    35    36   ar
    15    36    37    1
    16    36    38   ar
    17    38    39   ar
    18    30    31    1
    19     2     3    1
    20     3     4   am
    21     4     5    2
    22     4     6   am
    23     6     9    1
    24     9    10   ar
    25    10    11   ar
    26    11    12    1
    27    11    13   ar
    28    13    14   ar
    29    14    16    1
    30    16    17   ar
    31    17    18   ar
    32    18    19   ar
    33    19    20   ar
    34    20    21    1
    35    14    15   ar
    36    31    26    1
    37    15     9   ar
    38    39    33   ar
    39    20    16   ar
    40    24    25    1
    41     3     7    1
    42     6     8    1
@<TRIPOS>MOLECULE
*****
 39 42 0 0 0
SMALL
GASTEIGER

@<TRIPOS>ATOM
      1 C          -1.4830    4.6058   18.9600 C.3     1  UNL1        0.0214
      2 C          -1.8352    3.7366   20.1305 C.3     1  UNL1        0.0770
      3 N          -1.5036    2.2739   20.1052 N.am    1  UNL1       -0.2902
      4 C          -0.1226    1.8116   20.4646 C.2     1  UNL1        0.3044
      5 O           0.9267    2.8121   20.8494 O.2     1  UNL1       -0.2525
      6 N           0.2090    0.3490   20.4393 N.am    1  UNL1       -0.2683
      7 H          -2.1923    1.6173   19.8527 H       1  UNL1        0.1509
      8 H          -0.4797   -0.3076   20.1868 H       1  UNL1        0.1564
      9 C           1.5899   -0.1133   20.7988 C.ar    1  UNL1        0.0522
     10 C           1.9716   -0.2871   22.2390 C.ar    1  UNL1        0.0214
     11 C           3.3525   -0.7494   22.5985 C.ar    1  UNL1        0.0359
     12 BR          3.7341   -0.9232   24.0387 Br      1  UNL1       -0.0490
     13 C           4.3519   -1.0378   21.5177 C.ar    1  UNL1        0.0099
     14 C           3.9704   -0.8640   20.0776 C.ar    1  UNL1        0.0391
     15 C           2.5893   -0.4017   19.7181 C.ar    1  UNL1        0.0178
     16 C           4.9698   -1.1524   18.9968 C.ar    1  UNL1        0.1839
     17 N           5.6892   -0.1315   18.1659 N.ar    1  UNL1       -0.1081
     18 N           6.5893   -0.8606   17.2128 N.ar    1  UNL1       -0.0227
     19 N           6.4262   -2.3320   17.4547 N.ar    1  UNL1       -0.0429
     20 N           5.4253   -2.5123   18.5573 N.ar    1  UNL1       -0.2113
     21 C           4.9614   -3.8225   19.1213 C.3     1  UNL1        0.1573
     22 C          -2.5192    4.3299   21.3264 C.3     1  UNL1        0.0661
     23 C          -3.4764    3.5014   22.1309 C.3     1  UNL1        0.1738
     24 O          -4.3422    2.4830   21.4502 O.3     1  UNL1       -0.3697
     25 H          -4.8979    2.0386   22.1094 H       1  UNL1        0.2119
     26 N          -3.5679    3.6911   23.6161 N.3     1  UNL1       -0.2511
     27 C          -4.9099    3.7489   24.2835 C.3     1  UNL1        0.0742
     28 C          -5.0013    3.9387   25.7686 C.3     1  UNL1        0.0175
     29 C          -3.7507    4.0706   26.5863 C.3     1  UNL1        0.0031
     30 C          -2.4087    4.0128   25.9188 C.3     1  UNL1        0.0205
     31 C          -2.3172    3.8231   24.4337 C.3     1  UNL1        0.0745
     32 C          -1.1580    4.1448   26.7365 C.3     1  UNL1        0.0277
     33 C          -0.4613    2.9175   27.2448 C.ar    1  UNL1       -0.0220
     34 C           1.0266    2.9241   27.4346 C.ar    1  UNL1       -0.0020
     35 C           1.7233    1.6969   27.9429 C.ar    1  UNL1        0.0293
     36 C           0.9321    0.4630   28.2615 C.ar    1  UNL1        0.1401
     37 F           1.6289   -0.7643   28.7698 F       1  UNL1       -0.2042
     38 C          -0.5558    0.4563   28.0717 C.ar    1  UNL1        0.0293
     39 C          -1.2526    1.6836   27.5634 C.ar    1  UNL1       -0.0020
@<TRIPOS>BOND
     1     2     1    1
     2     2    22    1
     3    22    23    1
     4    23    24    1
     5    23    26    1
     6    26    27    1
     7    27    28    1
     8    28    29    1
     9    29    30    1
    10    30    32    1
    11    32    33    1
    12    33    34   ar
    13    34    35   ar
    14    35    36   ar
    15    36    37    1
    16    36    38   ar
    17    38    39   ar
    18    30    31    1
    19     2     3    1
    20     3     4   am
    21     4     5    2
    22     4     6   am
    23     6     9    1
    24     9    10   ar
    25    10    11   ar
    26    11    12    1
    27    11    13   ar
    28    13    14   ar
    29    14    16    1
    30    16    17   ar
    31    17    18   ar
    32    18    19   ar
    33    19    20   ar
    34    20    21    1
    35    14    15   ar
    36    31    26    1
    37    15     9   ar
    38    39    33   ar
    39    20    16   ar
    40    24    25    1
    41     3     7    1
    42     6     8    1
@<TRIPOS>MOLECULE
*****
 39 42 0 0 0
SMALL
GASTEIGER

@<TRIPOS>ATOM
      1 C           8.7369   -2.7446   25.7290 C.3     1  UNL1        0.0214
      2 C           7.5522   -3.6026   26.0609 C.3     1  UNL1        0.0770
      3 N           6.1813   -3.1962   25.6075 N.am    1  UNL1       -0.2902
      4 C           5.8541   -3.1643   24.1440 C.2     1  UNL1        0.3044
      5 O           6.8978   -3.5388   23.1339 O.2     1  UNL1       -0.2525
      6 N           4.4832   -2.7580   23.6906 N.am    1  UNL1       -0.2683
      7 H           5.4963   -2.9504   26.2705 H       1  UNL1        0.1509
      8 H           3.7982   -2.5122   24.3536 H       1  UNL1        0.1564
      9 C           4.1561   -2.7261   22.2271 C.ar    1  UNL1        0.0522
     10 C           4.4763   -3.9083   21.3611 C.ar    1  UNL1        0.0214
     11 C           4.1491   -3.8764   19.8976 C.ar    1  UNL1        0.0359
     12 BR          4.4693   -5.0586   19.0316 Br      1  UNL1       -0.0490
     13 C           3.5017   -2.6624   19.3000 C.ar    1  UNL1        0.0099
     14 C           3.1816   -1.4802   20.1660 C.ar    1  UNL1        0.0391
     15 C           3.5087   -1.5121   21.6296 C.ar    1  UNL1        0.0178
     16 C           2.5342   -0.2662   19.5684 C.ar    1  UNL1        0.1839
     17 N           1.0598   -0.0438   19.4043 N.ar    1  UNL1       -0.1081
     18 N           0.8620    1.2985   18.7645 N.ar    1  UNL1       -0.0227
     19 N           2.2141    1.9056   18.5332 N.ar    1  UNL1       -0.0429
     20 N           3.2475    0.9385   19.0301 N.ar    1  UNL1       -0.2113
     21 C           4.7334    1.1408   18.9947 C.3     1  UNL1        0.1573
     22 C           7.7383   -4.8670   26.8462 C.3     1  UNL1        0.0661
     23 C           6.6811   -5.3120   27.8128 C.3     1  UNL1        0.1738
     24 O           5.5683   -6.2044   27.3488 O.3     1  UNL1       -0.3697
     25 H           4.9759   -6.3959   28.0927 H       1  UNL1        0.2119
     26 N           6.7368   -4.8646   29.2435 N.3     1  UNL1       -0.2511
     27 C           7.0860   -5.8457   30.3231 C.3     1  UNL1        0.0742
     28 C           7.1417   -5.3983   31.7537 C.3     1  UNL1        0.0175
     29 C           6.8480   -3.9699   32.1048 C.3     1  UNL1        0.0031
     30 C           6.4987   -2.9888   31.0252 C.3     1  UNL1        0.0205
     31 C           6.4431   -3.4362   29.5946 C.3     1  UNL1        0.0745
     32 C           6.2051   -1.5603   31.3763 C.3     1  UNL1        0.0277
     33 C           5.9778   -1.1711   32.8070 C.ar    1  UNL1       -0.0220
     34 C           4.6257   -1.3573   33.4292 C.ar    1  UNL1       -0.0020
     35 C           4.3984   -0.9680   34.8599 C.ar    1  UNL1        0.0293
     36 C           5.5233   -0.3926   35.6683 C.ar    1  UNL1        0.1401
     37 F           5.2959   -0.0034   37.0991 F       1  UNL1       -0.2042
     38 C           6.8754   -0.2064   35.0462 C.ar    1  UNL1        0.0293
     39 C           7.1027   -0.5957   33.6155 C.ar    1  UNL1       -0.0020
@<TRIPOS>BOND
     1     2     1    1
     2     2    22    1
     3    22    23    1
     4    23    24    1
     5    23    26    1
     6    26    27    1
     7    27    28    1
     8    28    29    1
     9    29    30    1
    10    30    32    1
    11    32    33    1
    12    33    34   ar
    13    34    35   ar
    14    35    36   ar
    15    36    37    1
    16    36    38   ar
    17    38    39   ar
    18    30    31    1
    19     2     3    1
    20     3     4   am
    21     4     5    2
    22     4     6   am
    23     6     9    1
    24     9    10   ar
    25    10    11   ar
    26    11    12    1
    27    11    13   ar
    28    13    14   ar
    29    14    16    1
    30    16    17   ar
    31    17    18   ar
    32    18    19   ar
    33    19    20   ar
    34    20    21    1
    35    14    15   ar
    36    31    26    1
    37    15     9   ar
    38    39    33   ar
    39    20    16   ar
    40    24    25    1
    41     3     7    1
    42     6     8    1
@<TRIPOS>MOLECULE
*****
 39 42 0 0 0
SMALL
GASTEIGER

@<TRIPOS>ATOM
      1 C           9.2036   -4.9976   31.4105 C.3     1  UNL1        0.0214
      2 C           7.7921   -5.3010   31.0037 C.3     1  UNL1        0.0770
      3 N           6.6609   -5.0075   31.9441 N.am    1  UNL1       -0.2902
      4 C           6.1740   -3.5992   32.1153 C.2     1  UNL1        0.3044
      5 O           6.8183   -2.4842   31.3460 O.2     1  UNL1       -0.2525
      6 N           5.0429   -3.3057   33.0557 N.am    1  UNL1       -0.2683
      7 H           6.2381   -5.7393   32.4490 H       1  UNL1        0.1509
      8 H           4.6200   -4.0375   33.5606 H       1  UNL1        0.1564
      9 C           4.5560   -1.8973   33.2268 C.ar    1  UNL1        0.0522
     10 C           3.7819   -1.2325   32.1273 C.ar    1  UNL1        0.0214
     11 C           3.2950    0.1758   32.2984 C.ar    1  UNL1        0.0359
     12 BR          2.5209    0.8406   31.1989 Br      1  UNL1       -0.0490
     13 C           3.5821    0.9195   33.5691 C.ar    1  UNL1        0.0099
     14 C           4.3561    0.2548   34.6686 C.ar    1  UNL1        0.0391
     15 C           4.8431   -1.1537   34.4975 C.ar    1  UNL1        0.0178
     16 C           4.6433    0.9984   35.9392 C.ar    1  UNL1        0.1839
     17 N           4.0674    0.6913   37.2899 N.ar    1  UNL1       -0.1081
     18 N           4.6250    1.6829   38.2677 N.ar    1  UNL1       -0.0227
     19 N           5.5453    2.6027   37.5214 N.ar    1  UNL1       -0.0429
     20 N           5.5566    2.1797   36.0824 N.ar    1  UNL1       -0.2113
     21 C           6.3432    2.8247   34.9800 C.3     1  UNL1        0.1573
     22 C           7.5117   -5.8979   29.6564 C.3     1  UNL1        0.0661
     23 C           7.4731   -5.0203   28.4406 C.3     1  UNL1        0.1738
     24 O           7.2533   -3.5438   28.5880 O.3     1  UNL1       -0.3697
     25 H           7.2561   -3.1274   27.7120 H       1  UNL1        0.2119
     26 N           7.6542   -5.6191   27.0772 N.3     1  UNL1       -0.2511
     27 C           7.6653   -7.1095   26.9081 C.3     1  UNL1        0.0742
     28 C           7.8465   -7.7082   25.5448 C.3     1  UNL1        0.0175
     29 C           8.0165   -6.8166   24.3506 C.3     1  UNL1        0.0031
     30 C           8.0054   -5.3263   24.5197 C.3     1  UNL1        0.0205
     31 C           7.8243   -4.7275   25.8830 C.3     1  UNL1        0.0745
     32 C           8.1755   -4.4346   23.3255 C.3     1  UNL1        0.0277
     33 C           6.9934   -4.1001   22.4650 C.ar    1  UNL1       -0.0220
     34 C           7.1468   -4.0292   20.9745 C.ar    1  UNL1       -0.0020
     35 C           5.9647   -3.6947   20.1139 C.ar    1  UNL1        0.0293
     36 C           4.6291   -3.4309   20.7437 C.ar    1  UNL1        0.1401
     37 F           3.4470   -3.0963   19.8831 F       1  UNL1       -0.2042
     38 C           4.4757   -3.5017   22.2341 C.ar    1  UNL1        0.0293
     39 C           5.6578   -3.8363   23.0948 C.ar    1  UNL1       -0.0020
@<TRIPOS>BOND
     1     2     1    1
     2     2    22    1
     3    22    23    1
     4    23    24    1
     5    23    26    1
     6    26    27    1
     7    27    28    1
     8    28    29    1
     9    29    30    1
    10    30    32    1
    11    32    33    1
    12    33    34   ar
    13    34    35   ar
    14    35    36   ar
    15    36    37    1
    16    36    38   ar
    17    38    39   ar
    18    30    31    1
    19     2     3    1
    20     3     4   am
    21     4     5    2
    22     4     6   am
    23     6     9    1
    24     9    10   ar
    25    10    11   ar
    26    11    12    1
    27    11    13   ar
    28    13    14   ar
    29    14    16    1
    30    16    17   ar
    31    17    18   ar
    32    18    19   ar
    33    19    20   ar
    34    20    21    1
    35    14    15   ar
    36    31    26    1
    37    15     9   ar
    38    39    33   ar
    39    20    16   ar
    40    24    25    1
    41     3     7    1
    42     6     8    1
@<TRIPOS>MOLECULE
*****
 39 42 0 0 0
SMALL
GASTEIGER

@<TRIPOS>ATOM
      1 C           2.6255   -0.2470   30.5972 C.3     1  UNL1        0.0214
      2 C           2.8660   -0.4884   29.1364 C.3     1  UNL1        0.0770
      3 N           1.7066   -0.5612   28.1875 N.am    1  UNL1       -0.2902
      4 C           1.2019    0.6853   27.5229 C.2     1  UNL1        0.3044
      5 O           1.8566    2.0045   27.8074 O.2     1  UNL1       -0.2525
      6 N           0.0425    0.6125   26.5740 N.am    1  UNL1       -0.2683
      7 H           1.2769   -1.4270   28.0008 H       1  UNL1        0.1509
      8 H          -0.3872   -0.2534   26.3873 H       1  UNL1        0.1564
      9 C          -0.4622    1.8589   25.9094 C.ar    1  UNL1        0.0522
     10 C           0.1221    2.3000   24.6001 C.ar    1  UNL1        0.0214
     11 C          -0.3826    3.5464   23.9356 C.ar    1  UNL1        0.0359
     12 BR          0.2016    3.9875   22.6264 Br      1  UNL1       -0.0490
     13 C          -1.4715    4.3518   24.5803 C.ar    1  UNL1        0.0099
     14 C          -2.0557    3.9108   25.8895 C.ar    1  UNL1        0.0391
     15 C          -1.5511    2.6643   26.5541 C.ar    1  UNL1        0.0178
     16 C          -3.1446    4.7162   26.5342 C.ar    1  UNL1        0.1839
     17 N          -2.9618    5.7409   27.6144 N.ar    1  UNL1       -0.1081
     18 N          -4.3117    6.2963   27.9596 N.ar    1  UNL1       -0.0227
     19 N          -5.3289    5.6149   27.0929 N.ar    1  UNL1       -0.0429
     20 N          -4.6075    4.6384   26.2120 N.ar    1  UNL1       -0.2113
     21 C          -5.2384    3.7415   25.1884 C.3     1  UNL1        0.1573
     22 C           4.2659   -0.6569   28.6245 C.3     1  UNL1        0.0661
     23 C           4.5052   -1.3137   27.2974 C.3     1  UNL1        0.1738
     24 O           4.9894   -2.7322   27.2390 O.3     1  UNL1       -0.3697
     25 H           5.0918   -3.0010   26.3127 H       1  UNL1        0.2119
     26 N           4.2602   -0.5520   26.0286 N.3     1  UNL1       -0.2511
     27 C           4.4889    0.9299   25.9874 C.3     1  UNL1        0.0742
     28 C           4.2439    1.6915   24.7186 C.3     1  UNL1        0.0175
     29 C           3.7704    0.9712   23.4910 C.3     1  UNL1        0.0031
     30 C           3.5417   -0.5106   23.5322 C.3     1  UNL1        0.0205
     31 C           3.7867   -1.2722   24.8010 C.3     1  UNL1        0.0745
     32 C           3.0682   -1.2309   22.3046 C.3     1  UNL1        0.0277
     33 C           2.3972   -0.4693   21.2002 C.ar    1  UNL1       -0.0220
     34 C           3.1200   -0.2294   19.9078 C.ar    1  UNL1       -0.0020
     35 C           2.4491    0.5322   18.8034 C.ar    1  UNL1        0.0293
     36 C           1.0553    1.0539   18.9912 C.ar    1  UNL1        0.1401
     37 F           0.3844    1.8155   17.8867 F       1  UNL1       -0.2042
     38 C           0.3325    0.8140   20.2835 C.ar    1  UNL1        0.0293
     39 C           1.0035    0.0524   21.3880 C.ar    1  UNL1       -0.0020
@<TRIPOS>BOND
     1     2     1    1
     2     2    22    1
     3    22    23    1
     4    23    24    1
     5    23    26    1
     6    26    27    1
     7    27    28    1
     8    28    29    1
     9    29    30    1
    10    30    32    1
    11    32    33    1
    12    33    34   ar
    13    34    35   ar
    14    35    36   ar
    15    36    37    1
    16    36    38   ar
    17    38    39   ar
    18    30    31    1
    19     2     3    1
    20     3     4   am
    21     4     5    2
    22     4     6   am
    23     6     9    1
    24     9    10   ar
    25    10    11   ar
    26    11    12    1
    27    11    13   ar
    28    13    14   ar
    29    14    16    1
    30    16    17   ar
    31    17    18   ar
    32    18    19   ar
    33    19    20   ar
    34    20    21    1
    35    14    15   ar
    36    31    26    1
    37    15     9   ar
    38    39    33   ar
    39    20    16   ar
    40    24    25    1
    41     3     7    1
    42     6     8    1
@<TRIPOS>MOLECULE
*****
 39 42 0 0 0
SMALL
GASTEIGER

@<TRIPOS>ATOM
      1 C           7.0622   -2.0529   29.5538 C.3     1  UNL1        0.0214
      2 C           6.5516   -2.9817   28.4924 C.3     1  UNL1        0.0770
      3 N           5.1780   -2.7863   27.9223 N.am    1  UNL1       -0.2902
      4 C           4.9522   -1.7718   26.8407 C.2     1  UNL1        0.3044
      5 O           6.1000   -0.9527   26.3294 O.2     1  UNL1       -0.2525
      6 N           3.5786   -1.5765   26.2706 N.am    1  UNL1       -0.2683
      7 H           4.4247   -3.3240   28.2579 H       1  UNL1        0.1509
      8 H           2.8253   -2.1141   26.6063 H       1  UNL1        0.1564
      9 C           3.3528   -0.5620   25.1891 C.ar    1  UNL1        0.0522
     10 C           2.8664    0.8129   25.5401 C.ar    1  UNL1        0.0214
     11 C           2.6406    1.8274   24.4585 C.ar    1  UNL1        0.0359
     12 BR          2.1541    3.2022   24.8096 Br      1  UNL1       -0.0490
     13 C           2.9012    1.4671   23.0260 C.ar    1  UNL1        0.0099
     14 C           3.3876    0.0923   22.6749 C.ar    1  UNL1        0.0391
     15 C           3.6134   -0.9223   23.7565 C.ar    1  UNL1        0.0178
     16 C           3.6482   -0.2680   21.2424 C.ar    1  UNL1        0.1839
     17 N           2.6071   -0.5740   20.2067 N.ar    1  UNL1       -0.1081
     18 N           3.3112   -0.8807   18.9182 N.ar    1  UNL1       -0.0227
     19 N           4.7874   -0.7642   19.1575 N.ar    1  UNL1       -0.0429
     20 N           4.9957   -0.3856   20.5939 N.ar    1  UNL1       -0.2113
     21 C           6.3191   -0.1635   21.2641 C.3     1  UNL1        0.1573
     22 C           7.4146   -4.1060   28.0011 C.3     1  UNL1        0.0661
     23 C           6.8207   -5.1927   27.1549 C.3     1  UNL1        0.1738
     24 O           5.6870   -6.0202   27.6838 O.3     1  UNL1       -0.3697
     25 H           5.4236   -6.6724   27.0158 H       1  UNL1        0.2119
     26 N           7.3606   -5.4520   25.7796 N.3     1  UNL1       -0.2511
     27 C           8.1550   -6.6950   25.5077 C.3     1  UNL1        0.0742
     28 C           8.6949   -6.9542   24.1325 C.3     1  UNL1        0.0175
     29 C           8.4403   -5.9705   23.0291 C.3     1  UNL1        0.0031
     30 C           7.6460   -4.7275   23.3009 C.3     1  UNL1        0.0205
     31 C           7.1061   -4.4683   24.6762 C.3     1  UNL1        0.0745
     32 C           7.3914   -3.7438   22.1975 C.3     1  UNL1        0.0277
     33 C           6.1940   -3.9066   21.3090 C.ar    1  UNL1       -0.0220
     34 C           4.8175   -3.9415   21.9043 C.ar    1  UNL1       -0.0020
     35 C           3.6200   -4.1043   21.0158 C.ar    1  UNL1        0.0293
     36 C           3.7989   -4.2323   19.5320 C.ar    1  UNL1        0.1401
     37 F           2.6013   -4.3951   18.6435 F       1  UNL1       -0.2042
     38 C           5.1753   -4.1974   18.9367 C.ar    1  UNL1        0.0293
     39 C           6.3728   -4.0346   19.8252 C.ar    1  UNL1       -0.0020
@<TRIPOS>BOND
     1     2     1    1
     2     2    22    1
     3    22    23    1
     4    23    24    1
     5    23    26    1
     6    26    27    1
     7    27    28    1
     8    28    29    1
     9    29    30    1
    10    30    32    1
    11    32    33    1
    12    33    34   ar
    13    34    35   ar
    14    35    36   ar
    15    36    37    1
    16    36    38   ar
    17    38    39   ar
    18    30    31    1
    19     2     3    1
    20     3     4   am
    21     4     5    2
    22     4     6   am
    23     6     9    1
    24     9    10   ar
    25    10    11   ar
    26    11    12    1
    27    11    13   ar
    28    13    14   ar
    29    14    16    1
    30    16    17   ar
    31    17    18   ar
    32    18    19   ar
    33    19    20   ar
    34    20    21    1
    35    14    15   ar
    36    31    26    1
    37    15     9   ar
    38    39    33   ar
    39    20    16   ar
    40    24    25    1
    41     3     7    1
    42     6     8    1
@<TRIPOS>MOLECULE
*****
 39 42 0 0 0
SMALL
GASTEIGER

@<TRIPOS>ATOM
      1 C           3.6300    2.5627   20.5068 C.3     1  UNL1        0.0214
      2 C           2.1527    2.8160   20.5649 C.3     1  UNL1        0.0770
      3 N           1.5993    3.8043   21.5482 N.am    1  UNL1       -0.2902
      4 C           0.6894    3.3402   22.6466 C.2     1  UNL1        0.3044
      5 O           0.3328    1.8878   22.7617 O.2     1  UNL1       -0.2525
      6 N           0.1359    4.3286   23.6299 N.am    1  UNL1       -0.2683
      7 H           1.8333    4.7576   21.4726 H       1  UNL1        0.1509
      8 H           0.3699    5.2819   23.5544 H       1  UNL1        0.1564
      9 C          -0.7740    3.8645   24.7284 C.ar    1  UNL1        0.0522
     10 C          -2.2149    4.2817   24.7352 C.ar    1  UNL1        0.0214
     11 C          -3.1248    3.8176   25.8337 C.ar    1  UNL1        0.0359
     12 BR         -4.5656    4.2348   25.8405 Br      1  UNL1       -0.0490
     13 C          -2.5940    2.9363   26.9253 C.ar    1  UNL1        0.0099
     14 C          -1.1532    2.5191   26.9184 C.ar    1  UNL1        0.0391
     15 C          -0.2432    2.9832   25.8199 C.ar    1  UNL1        0.0178
     16 C          -0.6224    1.6378   28.0100 C.ar    1  UNL1        0.1839
     17 N          -0.8886    0.1698   28.1658 N.ar    1  UNL1       -0.1081
     18 N          -0.1628   -0.3055   29.3896 N.ar    1  UNL1       -0.0227
     19 N           0.5518    0.8687   29.9900 N.ar    1  UNL1       -0.0429
     20 N           0.2678    2.0697   29.1374 N.ar    1  UNL1       -0.2113
     21 C           0.7835    3.4588   29.3711 C.3     1  UNL1        0.1573
     22 C           1.2287    2.0809   19.6396 C.3     1  UNL1        0.0661
     23 C           1.1061    0.5888   19.7316 C.3     1  UNL1        0.1738
     24 O          -0.0808   -0.0256   20.4127 O.3     1  UNL1       -0.3697
     25 H          -0.0052   -0.9922   20.3846 H       1  UNL1        0.2119
     26 N           2.1703   -0.2890   19.1425 N.3     1  UNL1       -0.2511
     27 C           2.8548    0.1133   17.8699 C.3     1  UNL1        0.0742
     28 C           3.9189   -0.7645   17.2809 C.3     1  UNL1        0.0175
     29 C           4.2986   -2.0446   17.9645 C.3     1  UNL1        0.0031
     30 C           3.6141   -2.4469   19.2371 C.3     1  UNL1        0.0205
     31 C           2.5499   -1.5691   19.8261 C.3     1  UNL1        0.0745
     32 C           3.9938   -3.7270   19.9207 C.3     1  UNL1        0.0277
     33 C           5.0147   -3.7162   21.0195 C.ar    1  UNL1       -0.0220
     34 C           6.4742   -3.8178   20.6882 C.ar    1  UNL1       -0.0020
     35 C           7.4952   -3.8070   21.7870 C.ar    1  UNL1        0.0293
     36 C           7.0568   -3.6947   23.2171 C.ar    1  UNL1        0.1401
     37 F           8.0779   -3.6840   24.3159 F       1  UNL1       -0.2042
     38 C           5.5974   -3.5932   23.5484 C.ar    1  UNL1        0.0293
     39 C           4.5763   -3.6039   22.4496 C.ar    1  UNL1       -0.0020
@<TRIPOS>BOND
     1     2     1    1
     2     2    22    1
     3    22    23    1
     4    23    24    1
     5    23    26    1
     6    26    27    1
     7    27    28    1
     8    28    29    1
     9    29    30    1
    10    30    32    1
    11    32    33    1
    12    33    34   ar
    13    34    35   ar
    14    35    36   ar
    15    36    37    1
    16    36    38   ar
    17    38    39   ar
    18    30    31    1
    19     2     3    1
    20     3     4   am
    21     4     5    2
    22     4     6   am
    23     6     9    1
    24     9    10   ar
    25    10    11   ar
    26    11    12    1
    27    11    13   ar
    28    13    14   ar
    29    14    16    1
    30    16    17   ar
    31    17    18   ar
    32    18    19   ar
    33    19    20   ar
    34    20    21    1
    35    14    15   ar
    36    31    26    1
    37    15     9   ar
    38    39    33   ar
    39    20    16   ar
    40    24    25    1
    41     3     7    1
    42     6     8    1
@<TRIPOS>MOLECULE
*****
 39 42 0 0 0
SMALL
GASTEIGER

@<TRIPOS>ATOM
      1 C           4.3448    0.2451   29.2999 C.3     1  UNL1        0.0214
      2 C           3.7418   -0.6239   28.2363 C.3     1  UNL1        0.0770
      3 N           2.2578   -0.6216   28.0181 N.am    1  UNL1       -0.2902
      4 C           1.6159    0.4882   27.2394 C.2     1  UNL1        0.3044
      5 O           2.4581    1.5957   26.6789 O.2     1  UNL1       -0.2525
      6 N           0.1319    0.4905   27.0212 N.am    1  UNL1       -0.2683
      7 H           1.7050   -1.3484   28.3860 H       1  UNL1        0.1509
      8 H          -0.4209   -0.2364   27.3891 H       1  UNL1        0.1564
      9 C          -0.5099    1.6003   26.2425 C.ar    1  UNL1        0.0522
     10 C          -0.1206    1.8363   24.8132 C.ar    1  UNL1        0.0214
     11 C          -0.7624    2.9461   24.0345 C.ar    1  UNL1        0.0359
     12 BR         -0.3730    3.1821   22.6053 Br      1  UNL1       -0.0490
     13 C          -1.7936    3.8199   24.6850 C.ar    1  UNL1        0.0099
     14 C          -2.1830    3.5838   26.1142 C.ar    1  UNL1        0.0391
     15 C          -1.5412    2.4740   26.8930 C.ar    1  UNL1        0.0178
     16 C          -3.2142    4.4576   26.7647 C.ar    1  UNL1        0.1839
     17 N          -4.6887    4.1877   26.8230 N.ar    1  UNL1       -0.1081
     18 N          -5.3377    5.3180   27.5655 N.ar    1  UNL1       -0.0227
     19 N          -4.2646    6.2864   27.9660 N.ar    1  UNL1       -0.0429
     20 N          -2.9522    5.7546   27.4711 N.ar    1  UNL1       -0.2113
     21 C          -1.6129    6.4057   27.6510 C.3     1  UNL1        0.1573
     22 C           4.6228   -1.4952   27.3909 C.3     1  UNL1        0.0661
     23 C           5.0053   -1.0579   26.0080 C.3     1  UNL1        0.1738
     24 O           4.8593    0.3807   25.6090 O.3     1  UNL1       -0.3697
     25 H           5.1484    0.4923   24.6899 H       1  UNL1        0.2119
     26 N           5.5337   -2.0592   25.0239 N.3     1  UNL1       -0.2511
     27 C           6.9232   -2.6022   25.1794 C.3     1  UNL1        0.0742
     28 C           7.4516   -3.6034   24.1954 C.3     1  UNL1        0.0175
     29 C           6.5904   -4.0617   23.0559 C.3     1  UNL1        0.0031
     30 C           5.2008   -3.5186   22.9005 C.3     1  UNL1        0.0205
     31 C           4.6725   -2.5174   23.8845 C.3     1  UNL1        0.0745
     32 C           4.3396   -3.9768   21.7610 C.3     1  UNL1        0.0277
     33 C           4.3050   -3.1910   20.4838 C.ar    1  UNL1       -0.0220
     34 C           3.4107   -1.9926   20.3645 C.ar    1  UNL1       -0.0020
     35 C           3.3762   -1.2068   19.0873 C.ar    1  UNL1        0.0293
     36 C           4.2359   -1.6194   17.9294 C.ar    1  UNL1        0.1401
     37 F           4.2013   -0.8335   16.6521 F       1  UNL1       -0.2042
     38 C           5.1301   -2.8177   18.0487 C.ar    1  UNL1        0.0293
     39 C           5.1647   -3.6036   19.3259 C.ar    1  UNL1       -0.0020
@<TRIPOS>BOND
     1     2     1    1
     2     2    22    1
     3    22    23    1
     4    23    24    1
     5    23    26    1
     6    26    27    1
     7    27    28    1
     8    28    29    1
     9    29    30    1
    10    30    32    1
    11    32    33    1
    12    33    34   ar
    13    34    35   ar
    14    35    36   ar
    15    36    37    1
    16    36    38   ar
    17    38    39   ar
    18    30    31    1
    19     2     3    1
    20     3     4   am
    21     4     5    2
    22     4     6   am
    23     6     9    1
    24     9    10   ar
    25    10    11   ar
    26    11    12    1
    27    11    13   ar
    28    13    14   ar
    29    14    16    1
    30    16    17   ar
    31    17    18   ar
    32    18    19   ar
    33    19    20   ar
    34    20    21    1
    35    14    15   ar
    36    31    26    1
    37    15     9   ar
    38    39    33   ar
    39    20    16   ar
    40    24    25    1
    41     3     7    1
    42     6     8    1
