@<TRIPOS>MOLECULE
*****
 24 26 0 0 0
SMALL
GASTEIGER

@<TRIPOS>ATOM
      1 P         -10.0973  -19.1677   22.3593 P.3     1  UNL1        0.2266
      2 O         -10.2674  -20.5842   22.8223 O.2     1  UNL1       -0.2903
      3 C         -11.3977  -18.7989   23.0096 C.ar    1  UNL1        0.0498
      4 C         -12.4939  -18.1782   22.1954 C.ar    1  UNL1        0.0046
      5 C         -13.7943  -17.8094   22.8457 C.ar    1  UNL1        0.0002
      6 C         -13.9986  -18.0613   24.3101 C.ar    1  UNL1        0.0000
      7 C         -12.9024  -18.6821   25.1243 C.ar    1  UNL1        0.0002
      8 C         -11.6019  -19.0509   24.4741 C.ar    1  UNL1        0.0046
      9 C          -8.7968  -19.5365   21.7090 C.ar    1  UNL1        0.0498
     10 C          -7.6300  -19.9585   22.5518 C.ar    1  UNL1        0.0046
     11 C          -6.3296  -20.3273   21.9015 C.ar    1  UNL1        0.0002
     12 C          -6.1959  -20.2740   20.4085 C.ar    1  UNL1        0.0000
     13 C          -7.3628  -19.8519   19.5657 C.ar    1  UNL1        0.0002
     14 C          -8.6632  -19.4832   20.2160 C.ar    1  UNL1        0.0046
     15 N          -9.9271  -17.7511   21.8963 N.pl3   1  UNL1       -0.2602
     16 C          -9.1396  -16.7805   22.7256 C.ar    1  UNL1        0.0724
     17 C          -9.6264  -16.3925   24.0903 C.ar    1  UNL1        0.0180
     18 C          -8.8389  -15.4219   24.9196 C.ar    1  UNL1        0.0220
     19 C          -7.5646  -14.8393   24.3842 C.ar    1  UNL1        0.0990
     20 N          -7.0777  -15.2273   23.0195 N.ar    1  UNL1       -0.2410
     21 C          -7.8653  -16.1979   22.1902 C.ar    1  UNL1        0.1136
     22 C         -10.5444  -17.3052   20.6040 C.3     1  UNL1        0.0975
     23 C         -11.7859  -15.4827   19.2302 C.3     1  UNL1        0.0018
     24 C         -10.9905  -15.8827   20.4374 C.3     1  UNL1        0.0218
@<TRIPOS>BOND
     1    23    24    1
     2    24    22    1
     3    22    15    1
     4    15    16    1
     5    16    17   ar
     6    17    18   ar
     7    18    19   ar
     8    19    20   ar
     9    20    21   ar
    10    15     1    1
    11     1     2    2
    12     1     3    1
    13     3     4   ar
    14     4     5   ar
    15     5     6   ar
    16     6     7   ar
    17     7     8   ar
    18     1     9    1
    19     9    10   ar
    20    10    11   ar
    21    11    12   ar
    22    12    13   ar
    23    13    14   ar
    24    21    16   ar
    25     8     3   ar
    26    14     9   ar
@<TRIPOS>MOLECULE
*****
 24 26 0 0 0
SMALL
GASTEIGER

@<TRIPOS>ATOM
      1 P         -10.0580  -19.1483   22.3343 P.3     1  UNL1        0.2266
      2 O         -10.2393  -20.5667   22.7873 O.2     1  UNL1       -0.2903
      3 C          -8.7529  -19.5192   21.6947 C.ar    1  UNL1        0.0498
      4 C          -8.6129  -19.4850   20.2017 C.ar    1  UNL1        0.0046
      5 C          -7.3078  -19.8560   19.5621 C.ar    1  UNL1        0.0002
      6 C          -6.1427  -20.2612   20.4155 C.ar    1  UNL1        0.0000
      7 C          -6.2828  -20.2954   21.9086 C.ar    1  UNL1        0.0002
      8 C          -7.5879  -19.9244   22.5482 C.ar    1  UNL1        0.0046
      9 C         -11.3631  -18.7773   22.9739 C.ar    1  UNL1        0.0498
     10 C         -11.5827  -19.0362   24.4350 C.ar    1  UNL1        0.0046
     11 C         -12.8878  -18.6652   25.0746 C.ar    1  UNL1        0.0002
     12 C         -13.9733  -18.0354   24.2532 C.ar    1  UNL1        0.0000
     13 C         -13.7538  -17.7764   22.7921 C.ar    1  UNL1        0.0002
     14 C         -12.4487  -18.1474   22.1525 C.ar    1  UNL1        0.0046
     15 N          -9.8768  -17.7298   21.8814 N.pl3   1  UNL1       -0.2602
     16 C          -9.1025  -16.7648   22.7295 C.ar    1  UNL1        0.0724
     17 C          -9.5967  -16.4067   24.0998 C.ar    1  UNL1        0.0180
     18 C          -8.8224  -15.4418   24.9478 C.ar    1  UNL1        0.0220
     19 C          -7.5539  -14.8348   24.4256 C.ar    1  UNL1        0.0990
     20 N          -7.0598  -15.1929   23.0554 N.ar    1  UNL1       -0.2410
     21 C          -7.8341  -16.1579   22.2073 C.ar    1  UNL1        0.1136
     22 C         -10.4699  -17.2764   20.5804 C.3     1  UNL1        0.0975
     23 C         -11.8896  -15.5258   19.2882 C.3     1  UNL1        0.0018
     24 C         -11.0039  -15.8811   20.4454 C.3     1  UNL1        0.0218
@<TRIPOS>BOND
     1    23    24    1
     2    24    22    1
     3    22    15    1
     4    15    16    1
     5    16    17   ar
     6    17    18   ar
     7    18    19   ar
     8    19    20   ar
     9    20    21   ar
    10    15     1    1
    11     1     2    2
    12     1     3    1
    13     3     4   ar
    14     4     5   ar
    15     5     6   ar
    16     6     7   ar
    17     7     8   ar
    18     1     9    1
    19     9    10   ar
    20    10    11   ar
    21    11    12   ar
    22    12    13   ar
    23    13    14   ar
    24    21    16   ar
    25     8     3   ar
    26    14     9   ar
@<TRIPOS>MOLECULE
*****
 24 26 0 0 0
SMALL
GASTEIGER

@<TRIPOS>ATOM
      1 P          -8.6433  -18.7431   20.8979 P.3     1  UNL1        0.2266
      2 O          -8.9254  -18.7358   19.4247 O.2     1  UNL1       -0.2903
      3 C          -9.9772  -18.1077   21.1566 C.ar    1  UNL1        0.0498
      4 C         -10.1484  -16.6273   20.9858 C.ar    1  UNL1        0.0046
      5 C         -11.4823  -15.9918   21.2445 C.ar    1  UNL1        0.0002
      6 C         -12.6449  -16.8367   21.6739 C.ar    1  UNL1        0.0000
      7 C         -12.4737  -18.3170   21.8446 C.ar    1  UNL1        0.0002
      8 C         -11.1398  -18.9525   21.5860 C.ar    1  UNL1        0.0046
      9 C          -7.3094  -19.3786   20.6393 C.ar    1  UNL1        0.0498
     10 C          -6.0669  -18.5383   20.6327 C.ar    1  UNL1        0.0046
     11 C          -4.7330  -19.1738   20.3741 C.ar    1  UNL1        0.0002
     12 C          -4.6416  -20.6496   20.1219 C.ar    1  UNL1        0.0000
     13 C          -5.8841  -21.4899   20.1285 C.ar    1  UNL1        0.0002
     14 C          -7.2180  -20.8544   20.3871 C.ar    1  UNL1        0.0046
     15 N          -8.3611  -18.7505   22.3711 N.pl3   1  UNL1       -0.2602
     16 C          -8.1344  -17.4580   23.0978 C.ar    1  UNL1        0.0724
     17 C          -9.1189  -16.9955   24.1306 C.ar    1  UNL1        0.0180
     18 C          -8.8922  -15.7030   24.8572 C.ar    1  UNL1        0.0220
     19 C          -7.6809  -14.8730   24.5510 C.ar    1  UNL1        0.0990
     20 N          -6.6963  -15.3354   23.5182 N.ar    1  UNL1       -0.2410
     21 C          -6.9231  -16.6279   22.7916 C.ar    1  UNL1        0.1136
     22 C          -8.3057  -20.0503   23.1176 C.3     1  UNL1        0.0975
     23 C         -10.0933  -20.0195   25.0027 C.3     1  UNL1        0.0018
     24 C          -9.5506  -20.6134   23.7367 C.3     1  UNL1        0.0218
@<TRIPOS>BOND
     1    23    24    1
     2    24    22    1
     3    22    15    1
     4    15    16    1
     5    16    17   ar
     6    17    18   ar
     7    18    19   ar
     8    19    20   ar
     9    20    21   ar
    10    15     1    1
    11     1     2    2
    12     1     3    1
    13     3     4   ar
    14     4     5   ar
    15     5     6   ar
    16     6     7   ar
    17     7     8   ar
    18     1     9    1
    19     9    10   ar
    20    10    11   ar
    21    11    12   ar
    22    12    13   ar
    23    13    14   ar
    24    21    16   ar
    25     8     3   ar
    26    14     9   ar
@<TRIPOS>MOLECULE
*****
 24 26 0 0 0
SMALL
GASTEIGER

@<TRIPOS>ATOM
      1 P          -8.3743  -17.7070   22.2205 P.3     1  UNL1        0.2266
      2 O          -8.0227  -17.2436   20.8378 O.2     1  UNL1       -0.2903
      3 C          -9.8245  -17.4471   21.9388 C.ar    1  UNL1        0.0498
      4 C         -10.5134  -16.2752   22.5728 C.ar    1  UNL1        0.0046
      5 C         -11.9636  -16.0153   22.2912 C.ar    1  UNL1        0.0002
      6 C         -12.7250  -16.9273   21.3755 C.ar    1  UNL1        0.0000
      7 C         -12.0361  -18.0992   20.7415 C.ar    1  UNL1        0.0002
      8 C         -10.5859  -18.3591   21.0231 C.ar    1  UNL1        0.0046
      9 C          -6.9241  -17.9669   22.5021 C.ar    1  UNL1        0.0498
     10 C          -6.0874  -16.9115   23.1622 C.ar    1  UNL1        0.0046
     11 C          -4.6372  -17.1714   23.4439 C.ar    1  UNL1        0.0002
     12 C          -4.0237  -18.4868   23.0654 C.ar    1  UNL1        0.0000
     13 C          -4.8604  -19.5423   22.4053 C.ar    1  UNL1        0.0002
     14 C          -6.3106  -19.2823   22.1236 C.ar    1  UNL1        0.0046
     15 N          -8.7259  -18.1704   23.6031 N.pl3   1  UNL1       -0.2602
     16 C          -8.5769  -17.2367   24.7676 C.ar    1  UNL1        0.0724
     17 C          -8.8124  -17.7343   26.1629 C.ar    1  UNL1        0.0180
     18 C          -8.6634  -16.8006   27.3273 C.ar    1  UNL1        0.0220
     19 C          -8.2790  -15.3692   27.0964 C.ar    1  UNL1        0.0990
     20 N          -8.0436  -14.8715   25.7011 N.ar    1  UNL1       -0.2410
     21 C          -8.1926  -15.8052   24.5367 C.ar    1  UNL1        0.1136
     22 C          -9.2264  -19.5675   23.8213 C.3     1  UNL1        0.0975
     23 C         -11.7169  -19.1368   24.4230 C.3     1  UNL1        0.0018
     24 C         -10.4082  -19.8102   24.7126 C.3     1  UNL1        0.0218
@<TRIPOS>BOND
     1    23    24    1
     2    24    22    1
     3    22    15    1
     4    15    16    1
     5    16    17   ar
     6    17    18   ar
     7    18    19   ar
     8    19    20   ar
     9    20    21   ar
    10    15     1    1
    11     1     2    2
    12     1     3    1
    13     3     4   ar
    14     4     5   ar
    15     5     6   ar
    16     6     7   ar
    17     7     8   ar
    18     1     9    1
    19     9    10   ar
    20    10    11   ar
    21    11    12   ar
    22    12    13   ar
    23    13    14   ar
    24    21    16   ar
    25     8     3   ar
    26    14     9   ar
@<TRIPOS>MOLECULE
*****
 24 26 0 0 0
SMALL
GASTEIGER

@<TRIPOS>ATOM
      1 P           6.0419   -1.2203   18.4456 P.3     1  UNL1        0.2266
      2 O           6.6970   -2.1677   17.4847 O.2     1  UNL1       -0.2903
      3 C           5.3348   -2.3711   19.0981 C.ar    1  UNL1        0.0498
      4 C           5.7060   -2.7874   20.4905 C.ar    1  UNL1        0.0046
      5 C           4.9989   -3.9381   21.1429 C.ar    1  UNL1        0.0002
      6 C           3.9205   -4.6726   20.4030 C.ar    1  UNL1        0.0000
      7 C           3.5492   -4.2563   19.0106 C.ar    1  UNL1        0.0002
      8 C           4.2564   -3.1056   18.3581 C.ar    1  UNL1        0.0046
      9 C           6.7490   -0.0695   17.7932 C.ar    1  UNL1        0.0498
     10 C           6.1146    0.6410   16.6345 C.ar    1  UNL1        0.0046
     11 C           6.8217    1.7917   15.9820 C.ar    1  UNL1        0.0002
     12 C           8.1633    2.2320   16.4883 C.ar    1  UNL1        0.0000
     13 C           8.7977    1.5215   17.6470 C.ar    1  UNL1        0.0002
     14 C           8.0906    0.3707   18.2994 C.ar    1  UNL1        0.0046
     15 N           5.3868   -0.2729   19.4065 N.pl3   1  UNL1       -0.2602
     16 C           3.8941   -0.1243   19.4131 C.ar    1  UNL1        0.0724
     17 C           3.1024   -0.5583   20.6109 C.ar    1  UNL1        0.0180
     18 C           1.6099   -0.4096   20.6174 C.ar    1  UNL1        0.0220
     19 C           0.9090    0.1730   19.4261 C.ar    1  UNL1        0.0990
     20 N           1.7006    0.6070   18.2283 N.ar    1  UNL1       -0.2410
     21 C           3.1932    0.4584   18.2217 C.ar    1  UNL1        0.1136
     22 C           6.2242    0.5257   20.3608 C.3     1  UNL1        0.0975
     23 C           5.8971    3.0242   19.7277 C.3     1  UNL1        0.0018
     24 C           5.8112    1.9179   20.7370 C.3     1  UNL1        0.0218
@<TRIPOS>BOND
     1    23    24    1
     2    24    22    1
     3    22    15    1
     4    15    16    1
     5    16    17   ar
     6    17    18   ar
     7    18    19   ar
     8    19    20   ar
     9    20    21   ar
    10    15     1    1
    11     1     2    2
    12     1     3    1
    13     3     4   ar
    14     4     5   ar
    15     5     6   ar
    16     6     7   ar
    17     7     8   ar
    18     1     9    1
    19     9    10   ar
    20    10    11   ar
    21    11    12   ar
    22    12    13   ar
    23    13    14   ar
    24    21    16   ar
    25     8     3   ar
    26    14     9   ar
@<TRIPOS>MOLECULE
*****
 24 26 0 0 0
SMALL
GASTEIGER

@<TRIPOS>ATOM
      1 P           6.0376   -1.2138   18.4492 P.3     1  UNL1        0.2266
      2 O           6.6951   -2.1598   17.4885 O.2     1  UNL1       -0.2903
      3 C           6.7368   -0.0607   17.7923 C.ar    1  UNL1        0.0498
      4 C           6.0900    0.6516   16.6416 C.ar    1  UNL1        0.0046
      5 C           6.7891    1.8047   15.9847 C.ar    1  UNL1        0.0002
      6 C           8.1351    2.2455   16.4785 C.ar    1  UNL1        0.0000
      7 C           8.7820    1.5332   17.6292 C.ar    1  UNL1        0.0002
      8 C           8.0828    0.3801   18.2861 C.ar    1  UNL1        0.0046
      9 C           5.3385   -2.3669   19.1061 C.ar    1  UNL1        0.0498
     10 C           5.7016   -2.7654   20.5058 C.ar    1  UNL1        0.0046
     11 C           5.0025   -3.9185   21.1627 C.ar    1  UNL1        0.0002
     12 C           3.9401   -4.6732   20.4198 C.ar    1  UNL1        0.0000
     13 C           3.5770   -4.2747   19.0201 C.ar    1  UNL1        0.0002
     14 C           4.2761   -3.1216   18.3632 C.ar    1  UNL1        0.0046
     15 N           5.3801   -0.2679   19.4099 N.pl3   1  UNL1       -0.2602
     16 C           3.8870   -0.1235   19.4168 C.ar    1  UNL1        0.0724
     17 C           3.0993   -0.5366   20.6246 C.ar    1  UNL1        0.0180
     18 C           1.6063   -0.3922   20.6316 C.ar    1  UNL1        0.0220
     19 C           0.9011    0.1652   19.4307 C.ar    1  UNL1        0.0990
     20 N           1.6888    0.5782   18.2230 N.ar    1  UNL1       -0.2410
     21 C           3.1818    0.4339   18.2160 C.ar    1  UNL1        0.1136
     22 C           6.2156    0.5336   20.3635 C.3     1  UNL1        0.0975
     23 C           5.8110    3.0076   19.6811 C.3     1  UNL1        0.0018
     24 C           5.8081    1.9311   20.7256 C.3     1  UNL1        0.0218
@<TRIPOS>BOND
     1    23    24    1
     2    24    22    1
     3    22    15    1
     4    15    16    1
     5    16    17   ar
     6    17    18   ar
     7    18    19   ar
     8    19    20   ar
     9    20    21   ar
    10    15     1    1
    11     1     2    2
    12     1     3    1
    13     3     4   ar
    14     4     5   ar
    15     5     6   ar
    16     6     7   ar
    17     7     8   ar
    18     1     9    1
    19     9    10   ar
    20    10    11   ar
    21    11    12   ar
    22    12    13   ar
    23    13    14   ar
    24    21    16   ar
    25     8     3   ar
    26    14     9   ar
@<TRIPOS>MOLECULE
*****
 24 26 0 0 0
SMALL
GASTEIGER

@<TRIPOS>ATOM
      1 P           3.1979   -0.4432   18.6465 P.3     1  UNL1        0.2266
      2 O           3.2673   -0.5205   17.1501 O.2     1  UNL1       -0.2903
      3 C           2.5904    0.9247   18.5476 C.ar    1  UNL1        0.0498
      4 C           1.1064    1.0767   18.3902 C.ar    1  UNL1        0.0046
      5 C           0.4989    2.4446   18.2913 C.ar    1  UNL1        0.0002
      6 C           1.3753    3.6605   18.3500 C.ar    1  UNL1        0.0000
      7 C           2.8592    3.5085   18.5074 C.ar    1  UNL1        0.0002
      8 C           3.4667    2.1406   18.6063 C.ar    1  UNL1        0.0046
      9 C           3.8054   -1.8111   18.7453 C.ar    1  UNL1        0.0498
     10 C           5.2325   -2.0291   18.3383 C.ar    1  UNL1        0.0046
     11 C           5.8401   -3.3970   18.4371 C.ar    1  UNL1        0.0002
     12 C           5.0205   -4.5469   18.9430 C.ar    1  UNL1        0.0000
     13 C           3.5933   -4.3289   19.3500 C.ar    1  UNL1        0.0002
     14 C           2.9858   -2.9610   19.2512 C.ar    1  UNL1        0.0046
     15 N           3.1285   -0.3659   20.1429 N.pl3   1  UNL1       -0.2602
     16 C           4.3904   -0.3765   20.9538 C.ar    1  UNL1        0.0724
     17 C           4.6251   -1.4621   21.9618 C.ar    1  UNL1        0.0180
     18 C           5.8870   -1.4726   22.7726 C.ar    1  UNL1        0.0220
     19 C           6.9142   -0.3974   22.5754 C.ar    1  UNL1        0.0990
     20 N           6.6795    0.6883   21.5674 N.ar    1  UNL1       -0.2410
     21 C           5.4176    0.6987   20.7565 C.ar    1  UNL1        0.1136
     22 C           1.7972   -0.2781   20.8284 C.3     1  UNL1        0.0975
     23 C           1.7133    2.0604   21.9573 C.3     1  UNL1        0.0018
     24 C           1.6414    0.5656   22.0588 C.3     1  UNL1        0.0218
@<TRIPOS>BOND
     1    23    24    1
     2    24    22    1
     3    22    15    1
     4    15    16    1
     5    16    17   ar
     6    17    18   ar
     7    18    19   ar
     8    19    20   ar
     9    20    21   ar
    10    15     1    1
    11     1     2    2
    12     1     3    1
    13     3     4   ar
    14     4     5   ar
    15     5     6   ar
    16     6     7   ar
    17     7     8   ar
    18     1     9    1
    19     9    10   ar
    20    10    11   ar
    21    11    12   ar
    22    12    13   ar
    23    13    14   ar
    24    21    16   ar
    25     8     3   ar
    26    14     9   ar
@<TRIPOS>MOLECULE
*****
 24 26 0 0 0
SMALL
GASTEIGER

@<TRIPOS>ATOM
      1 P           2.1059   -0.2519   20.2886 P.3     1  UNL1        0.2266
      2 O           0.8987   -1.1404   20.2320 O.2     1  UNL1       -0.2903
      3 C           2.9523   -1.4268   20.6803 C.ar    1  UNL1        0.0498
      4 C           3.4928   -1.5298   22.0757 C.ar    1  UNL1        0.0046
      5 C           4.3391   -2.7047   22.4673 C.ar    1  UNL1        0.0002
      6 C           4.6449   -3.7766   21.4636 C.ar    1  UNL1        0.0000
      7 C           4.1044   -3.6736   20.0682 C.ar    1  UNL1        0.0002
      8 C           3.2581   -2.4987   19.6765 C.ar    1  UNL1        0.0046
      9 C           1.2596    0.9230   19.8969 C.ar    1  UNL1        0.0498
     10 C           0.3566    1.5667   20.9069 C.ar    1  UNL1        0.0046
     11 C          -0.4898    2.7415   20.5152 C.ar    1  UNL1        0.0002
     12 C          -0.4330    3.2727   19.1136 C.ar    1  UNL1        0.0000
     13 C           0.4701    2.6290   18.1037 C.ar    1  UNL1        0.0002
     14 C           1.3164    1.4541   18.4953 C.ar    1  UNL1        0.0046
     15 N           3.3132    0.6365   20.3452 N.pl3   1  UNL1       -0.2602
     16 C           4.4554    0.4110   19.3994 C.ar    1  UNL1        0.0724
     17 C           4.2121    0.3972   17.9193 C.ar    1  UNL1        0.0180
     18 C           5.3543    0.1716   16.9736 C.ar    1  UNL1        0.0220
     19 C           6.7398   -0.0402   17.5079 C.ar    1  UNL1        0.0990
     20 N           6.9831   -0.0265   18.9880 N.ar    1  UNL1       -0.2410
     21 C           5.8409    0.1991   19.9337 C.ar    1  UNL1        0.1136
     22 C           3.3782    1.7506   21.3475 C.3     1  UNL1        0.0975
     23 C           2.9920    4.2016   20.5772 C.3     1  UNL1        0.0018
     24 C           3.9265    3.0883   20.9475 C.3     1  UNL1        0.0218
@<TRIPOS>BOND
     1    23    24    1
     2    24    22    1
     3    22    15    1
     4    15    16    1
     5    16    17   ar
     6    17    18   ar
     7    18    19   ar
     8    19    20   ar
     9    20    21   ar
    10    15     1    1
    11     1     2    2
    12     1     3    1
    13     3     4   ar
    14     4     5   ar
    15     5     6   ar
    16     6     7   ar
    17     7     8   ar
    18     1     9    1
    19     9    10   ar
    20    10    11   ar
    21    11    12   ar
    22    12    13   ar
    23    13    14   ar
    24    21    16   ar
    25     8     3   ar
    26    14     9   ar
@<TRIPOS>MOLECULE
*****
 24 26 0 0 0
SMALL
GASTEIGER

@<TRIPOS>ATOM
      1 P           2.1182   -0.2154   20.3098 P.3     1  UNL1        0.2266
      2 O           0.9065   -1.0984   20.2640 O.2     1  UNL1       -0.2903
      3 C           1.2760    0.9608   19.9133 C.ar    1  UNL1        0.0498
      4 C           1.2515    1.4182   18.4849 C.ar    1  UNL1        0.0046
      5 C           0.4093    2.5944   18.0884 C.ar    1  UNL1        0.0002
      6 C          -0.4084    3.3133   19.1203 C.ar    1  UNL1        0.0000
      7 C          -0.3838    2.8559   20.5486 C.ar    1  UNL1        0.0002
      8 C           0.4584    1.6797   20.9451 C.ar    1  UNL1        0.0046
      9 C           2.9604   -1.3916   20.7063 C.ar    1  UNL1        0.0498
     10 C           3.2735   -2.4620   19.7032 C.ar    1  UNL1        0.0046
     11 C           4.1157   -3.6383   20.0997 C.ar    1  UNL1        0.0002
     12 C           4.6448   -3.7441   21.4993 C.ar    1  UNL1        0.0000
     13 C           4.3317   -2.6737   22.5023 C.ar    1  UNL1        0.0002
     14 C           3.4895   -1.4975   22.1058 C.ar    1  UNL1        0.0046
     15 N           3.3299    0.6676   20.3556 N.pl3   1  UNL1       -0.2602
     16 C           4.4645    0.4342   19.4025 C.ar    1  UNL1        0.0724
     17 C           4.2149    0.4405   17.9234 C.ar    1  UNL1        0.0180
     18 C           5.3494    0.2071   16.9704 C.ar    1  UNL1        0.0220
     19 C           6.7336   -0.0326   17.4964 C.ar    1  UNL1        0.0990
     20 N           6.9832   -0.0389   18.9755 N.ar    1  UNL1       -0.2410
     21 C           5.8486    0.1945   19.9285 C.ar    1  UNL1        0.1136
     22 C           3.4070    1.7840   21.3544 C.3     1  UNL1        0.0975
     23 C           3.2461    4.1001   20.1883 C.3     1  UNL1        0.0018
     24 C           4.0339    3.0916   20.9708 C.3     1  UNL1        0.0218
@<TRIPOS>BOND
     1    23    24    1
     2    24    22    1
     3    22    15    1
     4    15    16    1
     5    16    17   ar
     6    17    18   ar
     7    18    19   ar
     8    19    20   ar
     9    20    21   ar
    10    15     1    1
    11     1     2    2
    12     1     3    1
    13     3     4   ar
    14     4     5   ar
    15     5     6   ar
    16     6     7   ar
    17     7     8   ar
    18     1     9    1
    19     9    10   ar
    20    10    11   ar
    21    11    12   ar
    22    12    13   ar
    23    13    14   ar
    24    21    16   ar
    25     8     3   ar
    26    14     9   ar
