@<TRIPOS>MOLECULE
*****
 12 13 0 0 0
SMALL
GASTEIGER

@<TRIPOS>ATOM
      1 C           6.1487  -12.2416   28.8906 C.ar    1  UNL1        0.0207
      2 C           6.8775  -12.6454   27.6434 C.ar    1  UNL1        0.0989
      3 N           6.1519  -13.3800   26.5553 N.ar    1  UNL1       -0.2423
      4 C           4.6975  -13.7108   26.7145 C.ar    1  UNL1        0.1003
      5 C           3.9687  -13.3069   27.9617 C.ar    1  UNL1        0.0363
      6 C           4.6943  -12.5723   29.0498 C.ar    1  UNL1        0.0046
      7 C           2.5143  -13.6376   28.1209 C.ar    1  UNL1        0.0787
      8 C           1.9081  -15.0076   28.0451 C.ar    1  UNL1        0.1176
      9 N           0.4299  -14.8731   28.2612 N.ar    1  UNL1       -0.2225
     10 C           0.1224  -13.4199   28.4706 C.ar    1  UNL1        0.1750
     11 N           1.4106  -12.6564   28.3839 N.ar    1  UNL1       -0.3348
     12 H           1.5137  -11.6822   28.4824 H       1  UNL1        0.1675
@<TRIPOS>BOND
     1     1     2   ar
     2     2     3   ar
     3     3     4   ar
     4     4     5   ar
     5     5     7    1
     6     7     8   ar
     7     8     9   ar
     8     9    10   ar
     9    10    11   ar
    10     5     6   ar
    11     6     1   ar
    12    11     7   ar
    13    11    12    1
@<TRIPOS>MOLECULE
*****
 12 13 0 0 0
SMALL
GASTEIGER

@<TRIPOS>ATOM
      1 C          -1.7762  -17.8030   18.7808 C.ar    1  UNL1        0.0207
      2 C          -0.7041  -18.1412   19.7738 C.ar    1  UNL1        0.0989
      3 N          -1.0662  -18.7915   21.0761 N.ar    1  UNL1       -0.2423
      4 C          -2.5004  -19.1037   21.3853 C.ar    1  UNL1        0.1003
      5 C          -3.5725  -18.7655   20.3923 C.ar    1  UNL1        0.0363
      6 C          -3.2103  -18.1151   19.0900 C.ar    1  UNL1        0.0046
      7 C          -5.0067  -19.0776   20.7015 C.ar    1  UNL1        0.0787
      8 C          -5.5051  -19.8513   21.8859 C.ar    1  UNL1        0.1176
      9 N          -7.0008  -19.9227   21.7970 N.ar    1  UNL1       -0.2225
     10 C          -7.4267  -19.1931   20.5575 C.ar    1  UNL1        0.1750
     11 N          -6.1944  -18.6708   19.8805 N.ar    1  UNL1       -0.3348
     12 H          -6.1694  -18.1521   19.0441 H       1  UNL1        0.1675
@<TRIPOS>BOND
     1     1     2   ar
     2     2     3   ar
     3     3     4   ar
     4     4     5   ar
     5     5     7    1
     6     7     8   ar
     7     8     9   ar
     8     9    10   ar
     9    10    11   ar
    10     5     6   ar
    11     6     1   ar
    12    11     7   ar
    13    11    12    1
@<TRIPOS>MOLECULE
*****
 12 13 0 0 0
SMALL
GASTEIGER

@<TRIPOS>ATOM
      1 C          -7.1846  -15.7686   27.2319 C.ar    1  UNL1        0.0207
      2 C          -6.0335  -15.1276   26.5148 C.ar    1  UNL1        0.0989
      3 N          -6.0697  -14.9765   25.0229 N.ar    1  UNL1       -0.2423
      4 C          -7.2569  -15.4665   24.2480 C.ar    1  UNL1        0.1003
      5 C          -8.4079  -16.1074   24.9650 C.ar    1  UNL1        0.0363
      6 C          -8.3718  -16.2585   26.4570 C.ar    1  UNL1        0.0046
      7 C          -9.5952  -16.5974   24.1901 C.ar    1  UNL1        0.0787
      8 C         -10.2135  -17.9602   24.2925 C.ar    1  UNL1        0.1176
      9 N         -11.3730  -18.0157   23.3425 N.ar    1  UNL1       -0.2225
     10 C         -11.4713  -16.6871   22.6531 C.ar    1  UNL1        0.1750
     11 N         -10.3726  -15.8106   23.1769 N.ar    1  UNL1       -0.3348
     12 H         -10.1932  -14.8820   22.9037 H       1  UNL1        0.1675
@<TRIPOS>BOND
     1     1     2   ar
     2     2     3   ar
     3     3     4   ar
     4     4     5   ar
     5     5     7    1
     6     7     8   ar
     7     8     9   ar
     8     9    10   ar
     9    10    11   ar
    10     5     6   ar
    11     6     1   ar
    12    11     7   ar
    13    11    12    1
@<TRIPOS>MOLECULE
*****
 12 13 0 0 0
SMALL
GASTEIGER

@<TRIPOS>ATOM
      1 C          -7.6168  -15.7858   27.1096 C.ar    1  UNL1        0.0207
      2 C          -6.2543  -15.1998   26.8856 C.ar    1  UNL1        0.0989
      3 N          -5.7623  -14.9576   25.4894 N.ar    1  UNL1       -0.2423
      4 C          -6.6327  -15.3016   24.3172 C.ar    1  UNL1        0.1003
      5 C          -7.9952  -15.8876   24.5412 C.ar    1  UNL1        0.0363
      6 C          -8.4872  -16.1297   25.9374 C.ar    1  UNL1        0.0046
      7 C          -8.8657  -16.2316   23.3690 C.ar    1  UNL1        0.0787
      8 C          -8.4216  -16.9220   22.1136 C.ar    1  UNL1        0.1176
      9 N          -9.6145  -17.0627   21.2151 N.ar    1  UNL1       -0.2225
     10 C         -10.7958  -16.4591   21.9153 C.ar    1  UNL1        0.1750
     11 N         -10.3330  -15.9455   23.2465 N.ar    1  UNL1       -0.3348
     12 H         -10.8939  -15.4990   23.9213 H       1  UNL1        0.1675
@<TRIPOS>BOND
     1     1     2   ar
     2     2     3   ar
     3     3     4   ar
     4     4     5   ar
     5     5     7    1
     6     7     8   ar
     7     8     9   ar
     8     9    10   ar
     9    10    11   ar
    10     5     6   ar
    11     6     1   ar
    12    11     7   ar
    13    11    12    1
@<TRIPOS>MOLECULE
*****
 12 13 0 0 0
SMALL
GASTEIGER

@<TRIPOS>ATOM
      1 C           4.6505  -14.7902   17.9462 C.ar    1  UNL1        0.0207
      2 C           3.5211  -14.3748   17.0508 C.ar    1  UNL1        0.0989
      3 N           3.4010  -12.9466   16.6085 N.ar    1  UNL1       -0.2423
      4 C           4.4104  -11.9337   17.0615 C.ar    1  UNL1        0.1003
      5 C           5.5398  -12.3491   17.9569 C.ar    1  UNL1        0.0363
      6 C           5.6599  -13.7774   18.3993 C.ar    1  UNL1        0.0046
      7 C           6.5493  -11.3363   18.4100 C.ar    1  UNL1        0.0787
      8 C           7.9829  -11.6131   18.7538 C.ar    1  UNL1        0.1176
      9 N           8.6219  -10.3167   19.1551 N.ar    1  UNL1       -0.2225
     10 C           7.5832   -9.2387   19.0594 C.ar    1  UNL1        0.1750
     11 N           6.3023   -9.8689   18.5989 N.ar    1  UNL1       -0.3348
     12 H           5.4492   -9.4014   18.4472 H       1  UNL1        0.1675
@<TRIPOS>BOND
     1     1     2   ar
     2     2     3   ar
     3     3     4   ar
     4     4     5   ar
     5     5     7    1
     6     7     8   ar
     7     8     9   ar
     8     9    10   ar
     9    10    11   ar
    10     5     6   ar
    11     6     1   ar
    12    11     7   ar
    13    11    12    1
@<TRIPOS>MOLECULE
*****
 12 13 0 0 0
SMALL
GASTEIGER

@<TRIPOS>ATOM
      1 C           1.1143  -15.2779   28.1844 C.ar    1  UNL1        0.0207
      2 C           0.1249  -14.2033   28.5250 C.ar    1  UNL1        0.0989
      3 N           0.5921  -12.7941   28.7390 N.ar    1  UNL1       -0.2423
      4 C           2.0488  -12.4595   28.6123 C.ar    1  UNL1        0.1003
      5 C           3.0382  -13.5342   28.2717 C.ar    1  UNL1        0.0363
      6 C           2.5710  -14.9434   28.0577 C.ar    1  UNL1        0.0046
      7 C           4.4950  -13.1996   28.1450 C.ar    1  UNL1        0.0787
      8 C           5.3382  -13.3829   26.9181 C.ar    1  UNL1        0.1176
      9 N           6.7286  -12.9197   27.2377 N.ar    1  UNL1       -0.2225
     10 C           6.7447  -12.4501   28.6623 C.ar    1  UNL1        0.1750
     11 N           5.3642  -12.6231   29.2230 N.ar    1  UNL1       -0.3348
     12 H           5.0788  -12.3979   30.1379 H       1  UNL1        0.1675
@<TRIPOS>BOND
     1     1     2   ar
     2     2     3   ar
     3     3     4   ar
     4     4     5   ar
     5     5     7    1
     6     7     8   ar
     7     8     9   ar
     8     9    10   ar
     9    10    11   ar
    10     5     6   ar
    11     6     1   ar
    12    11     7   ar
    13    11    12    1
@<TRIPOS>MOLECULE
*****
 12 13 0 0 0
SMALL
GASTEIGER

@<TRIPOS>ATOM
      1 C          -3.9481  -20.3790   20.0753 C.ar    1  UNL1        0.0207
      2 C          -2.8465  -19.9431   20.9953 C.ar    1  UNL1        0.0989
      3 N          -3.1616  -19.1031   22.1974 N.ar    1  UNL1       -0.2423
      4 C          -4.5783  -18.6990   22.4796 C.ar    1  UNL1        0.1003
      5 C          -5.6799  -19.1349   21.5596 C.ar    1  UNL1        0.0363
      6 C          -5.3648  -19.9749   20.3574 C.ar    1  UNL1        0.0046
      7 C          -7.0967  -18.7308   21.8417 C.ar    1  UNL1        0.0787
      8 C          -8.1377  -19.5766   22.5131 C.ar    1  UNL1        0.1176
      9 N          -9.4055  -18.7786   22.5883 N.ar    1  UNL1       -0.2225
     10 C          -9.1480  -17.4395   21.9633 C.ar    1  UNL1        0.1750
     11 N          -7.7211  -17.4100   21.5019 N.ar    1  UNL1       -0.3348
     12 H          -7.2730  -16.6561   21.0546 H       1  UNL1        0.1675
@<TRIPOS>BOND
     1     1     2   ar
     2     2     3   ar
     3     3     4   ar
     4     4     5   ar
     5     5     7    1
     6     7     8   ar
     7     8     9   ar
     8     9    10   ar
     9    10    11   ar
    10     5     6   ar
    11     6     1   ar
    12    11     7   ar
    13    11    12    1
@<TRIPOS>MOLECULE
*****
 12 13 0 0 0
SMALL
GASTEIGER

@<TRIPOS>ATOM
      1 C          -8.5110  -15.6776   25.2177 C.ar    1  UNL1        0.0207
      2 C          -7.1633  -15.2528   24.7145 C.ar    1  UNL1        0.0989
      3 N          -6.8525  -15.3266   23.2489 N.ar    1  UNL1       -0.2423
      4 C          -7.8893  -15.8251   22.2865 C.ar    1  UNL1        0.1003
      5 C          -9.2370  -16.2499   22.7897 C.ar    1  UNL1        0.0363
      6 C          -9.5478  -16.1762   24.2553 C.ar    1  UNL1        0.0046
      7 C         -10.2740  -16.7485   21.8273 C.ar    1  UNL1        0.0787
      8 C         -11.7586  -16.5892   21.9702 C.ar    1  UNL1        0.1176
      9 N         -12.4106  -17.2362   20.7842 N.ar    1  UNL1       -0.2225
     10 C         -11.3288  -17.7954   19.9084 C.ar    1  UNL1        0.1750
     11 N         -10.0083  -17.4940   20.5530 N.ar    1  UNL1       -0.3348
     12 H          -9.1228  -17.7420   20.2015 H       1  UNL1        0.1675
@<TRIPOS>BOND
     1     1     2   ar
     2     2     3   ar
     3     3     4   ar
     4     4     5   ar
     5     5     7    1
     6     7     8   ar
     7     8     9   ar
     8     9    10   ar
     9    10    11   ar
    10     5     6   ar
    11     6     1   ar
    12    11     7   ar
    13    11    12    1
@<TRIPOS>MOLECULE
*****
 12 13 0 0 0
SMALL
GASTEIGER

@<TRIPOS>ATOM
      1 C         -11.8959  -18.6716   24.3415 C.ar    1  UNL1        0.0207
      2 C         -12.9359  -18.0696   23.4438 C.ar    1  UNL1        0.0989
      3 N         -12.6129  -16.8478   22.6359 N.ar    1  UNL1       -0.2423
      4 C         -11.2500  -16.2279   22.7256 C.ar    1  UNL1        0.1003
      5 C         -10.2100  -16.8300   23.6233 C.ar    1  UNL1        0.0363
      6 C         -10.5329  -18.0518   24.4313 C.ar    1  UNL1        0.0046
      7 C          -8.8469  -16.2101   23.7131 C.ar    1  UNL1        0.0787
      8 C          -7.8273  -16.1595   22.6141 C.ar    1  UNL1        0.1176
      9 N          -6.6144  -15.4502   23.1394 N.ar    1  UNL1       -0.2225
     10 C          -6.8845  -15.0624   24.5630 C.ar    1  UNL1        0.1750
     11 N          -8.2643  -15.5321   24.9176 N.ar    1  UNL1       -0.3348
     12 H          -8.7093  -15.4158   25.7880 H       1  UNL1        0.1675
@<TRIPOS>BOND
     1     1     2   ar
     2     2     3   ar
     3     3     4   ar
     4     4     5   ar
     5     5     7    1
     6     7     8   ar
     7     8     9   ar
     8     9    10   ar
     9    10    11   ar
    10     5     6   ar
    11     6     1   ar
    12    11     7   ar
    13    11    12    1
