@<TRIPOS>MOLECULE
*****
 33 36 0 0 0
SMALL
GASTEIGER

@<TRIPOS>ATOM
      1 C           7.2909   -4.1736   26.3633 C.2     1  UNL1        0.2818
      2 O           8.7332   -3.9291   26.6950 O.2     1  UNL1       -0.2668
      3 N           6.3023   -4.4324   27.4613 N.am    1  UNL1       -0.2986
      4 H           5.3557   -4.5929   27.2436 H       1  UNL1        0.1498
      5 C           7.3965   -4.9980   23.8227 C.ar    1  UNL1        0.1010
      6 N           6.6496   -4.6609   22.5664 N.ar    1  UNL1       -0.2125
      7 C           5.6287   -3.6140   22.9008 C.ar    1  UNL1        0.2296
      8 O           5.7447   -3.3040   24.3638 O.2     1  UNL1       -0.4303
      9 C           6.8372   -4.1594   24.9336 C.ar    1  UNL1        0.2135
     10 C           4.6616   -2.9870   21.9406 C.ar    1  UNL1        0.0536
     11 C           3.8720   -1.7800   22.3523 C.ar    1  UNL1        0.0046
     12 C           2.9050   -1.1532   21.3922 C.ar    1  UNL1        0.0002
     13 C           2.7275   -1.7334   20.0204 C.ar    1  UNL1        0.0000
     14 C           3.5171   -2.9404   19.6087 C.ar    1  UNL1        0.0002
     15 C           4.4841   -3.5672   20.5688 C.ar    1  UNL1        0.0046
     16 C           8.5076   -5.9981   23.9465 C.3     1  UNL1        0.0492
     17 C           7.6390   -7.7196   25.6877 C.3     1  UNL1        0.0004
     18 C           8.2016   -7.4153   24.3309 C.3     1  UNL1        0.0064
     19 C           6.7560   -4.4467   28.8910 C.3     1  UNL1        0.0879
     20 C           6.8915   -5.7495   29.6219 C.3     1  UNL1        0.0227
     21 C           7.0741   -3.1581   29.5898 C.3     1  UNL1        0.0919
     22 N           5.9677   -2.2226   29.9780 N.3     1  UNL1       -0.2684
     23 C           5.5224   -2.1401   31.4080 C.3     1  UNL1        0.0939
     24 C           4.4160   -1.2045   31.7962 C.3     1  UNL1        0.1109
     25 N           3.7550   -0.3514   30.7543 N.pl3   1  UNL1       -0.2753
     26 C           4.2003   -0.4339   29.3244 C.3     1  UNL1        0.1109
     27 C           5.3067   -1.3694   28.9361 C.3     1  UNL1        0.0939
     28 C           2.6486    0.5842   31.1426 C.ar    1  UNL1        0.2203
     29 N           2.7233    1.3377   32.4375 N.ar    1  UNL1       -0.2121
     30 C           1.6169    2.2733   32.8256 C.ar    1  UNL1        0.1034
     31 C           0.4360    2.4553   31.9190 C.ar    1  UNL1        0.0414
     32 C           0.3613    1.7017   30.6242 C.ar    1  UNL1        0.1034
     33 N           1.4676    0.7662   30.2360 N.ar    1  UNL1       -0.2121
@<TRIPOS>BOND
     1    17    18    1
     2    18    16    1
     3    16     5    1
     4     5     6   ar
     5     6     7   ar
     6     7    10    1
     7    10    11   ar
     8    11    12   ar
     9    12    13   ar
    10    13    14   ar
    11    14    15   ar
    12     7     8   ar
    13     8     9   ar
    14     9     1    1
    15     1     2    2
    16     1     3   am
    17     3    19    1
    18    19    20    1
    19    19    21    1
    20    21    22    1
    21    22    23    1
    22    23    24    1
    23    24    25    1
    24    25    28    1
    25    28    29   ar
    26    29    30   ar
    27    30    31   ar
    28    31    32   ar
    29    32    33   ar
    30    25    26    1
    31    26    27    1
    32     9     5   ar
    33    27    22    1
    34    15    10   ar
    35    33    28   ar
    36     3     4    1
@<TRIPOS>MOLECULE
*****
 33 36 0 0 0
SMALL
GASTEIGER

@<TRIPOS>ATOM
      1 C           2.3858    0.7085   25.7438 C.2     1  UNL1        0.2818
      2 O           3.1804    1.7317   26.4999 O.2     1  UNL1       -0.2668
      3 N           0.8875    0.7199   25.8152 N.am    1  UNL1       -0.2986
      4 H           0.3660    0.0483   25.3189 H       1  UNL1        0.1498
      5 C           4.0877   -1.3268   25.4183 C.ar    1  UNL1        0.1010
      6 N           4.5336   -2.1607   24.2539 N.ar    1  UNL1       -0.2125
      7 C           3.8109   -1.6752   23.0324 C.ar    1  UNL1        0.2296
      8 O           2.9184   -0.5413   23.4418 O.2     1  UNL1       -0.4303
      9 C           3.0894   -0.3260   24.9164 C.ar    1  UNL1        0.2135
     10 C           3.9554   -2.2268   21.6449 C.ar    1  UNL1        0.0536
     11 C           3.4704   -1.4334   20.4680 C.ar    1  UNL1        0.0046
     12 C           3.6149   -1.9850   19.0807 C.ar    1  UNL1        0.0002
     13 C           4.2445   -3.3301   18.8702 C.ar    1  UNL1        0.0000
     14 C           4.7295   -4.1236   20.0471 C.ar    1  UNL1        0.0002
     15 C           4.5850   -3.5720   21.4345 C.ar    1  UNL1        0.0046
     16 C           4.5576   -1.4688   26.8357 C.3     1  UNL1        0.0492
     17 C           6.1150   -3.2542   27.9020 C.3     1  UNL1        0.0004
     18 C           5.9364   -1.9864   27.1205 C.3     1  UNL1        0.0064
     19 C           0.1839    1.7544   26.6426 C.3     1  UNL1        0.0879
     20 C           0.0225    3.1508   26.1191 C.3     1  UNL1        0.0227
     21 C          -0.3583    1.3925   27.9935 C.3     1  UNL1        0.0919
     22 N           0.5813    1.0553   29.1130 N.3     1  UNL1       -0.2684
     23 C           0.7555    2.0078   30.2586 C.3     1  UNL1        0.0939
     24 C           1.6951    1.6707   31.3782 C.3     1  UNL1        0.1109
     25 N           2.4607    0.3809   31.3521 N.pl3   1  UNL1       -0.2753
     26 C           2.2866   -0.5716   30.2065 C.3     1  UNL1        0.1109
     27 C           1.3469   -0.2344   29.0869 C.3     1  UNL1        0.0939
     28 C           3.4003    0.0438   32.4716 C.ar    1  UNL1        0.2203
     29 N           4.0035    1.1392   33.3002 N.ar    1  UNL1       -0.2121
     30 C           4.9431    0.8019   34.4198 C.ar    1  UNL1        0.1034
     31 C           5.2796   -0.6305   34.7107 C.ar    1  UNL1        0.0414
     32 C           4.6765   -1.7259   33.8821 C.ar    1  UNL1        0.1034
     33 N           3.7369   -1.3887   32.7626 N.ar    1  UNL1       -0.2121
@<TRIPOS>BOND
     1    17    18    1
     2    18    16    1
     3    16     5    1
     4     5     6   ar
     5     6     7   ar
     6     7    10    1
     7    10    11   ar
     8    11    12   ar
     9    12    13   ar
    10    13    14   ar
    11    14    15   ar
    12     7     8   ar
    13     8     9   ar
    14     9     1    1
    15     1     2    2
    16     1     3   am
    17     3    19    1
    18    19    20    1
    19    19    21    1
    20    21    22    1
    21    22    23    1
    22    23    24    1
    23    24    25    1
    24    25    28    1
    25    28    29   ar
    26    29    30   ar
    27    30    31   ar
    28    31    32   ar
    29    32    33   ar
    30    25    26    1
    31    26    27    1
    32     9     5   ar
    33    27    22    1
    34    15    10   ar
    35    33    28   ar
    36     3     4    1
@<TRIPOS>MOLECULE
*****
 33 36 0 0 0
SMALL
GASTEIGER

@<TRIPOS>ATOM
      1 C           5.9242   -3.6736   21.7083 C.2     1  UNL1        0.2818
      2 O           7.0162   -3.5017   20.6945 O.2     1  UNL1       -0.2668
      3 N           4.4879   -3.5725   21.2880 N.am    1  UNL1       -0.2986
      4 H           3.7711   -3.6853   21.9534 H       1  UNL1        0.1498
      5 C           6.0462   -3.0133   24.2957 C.ar    1  UNL1        0.1010
      6 N           6.5358   -3.6907   25.5412 N.ar    1  UNL1       -0.2125
      7 C           7.0606   -5.0426   25.1579 C.ar    1  UNL1        0.2296
      8 O           6.8954   -5.2007   23.6755 O.2     1  UNL1       -0.4303
      9 C           6.2684   -3.9466   23.1426 C.ar    1  UNL1        0.2135
     10 C           7.6476   -6.0581   26.0930 C.ar    1  UNL1        0.0536
     11 C           7.8089   -5.7327   27.5483 C.ar    1  UNL1        0.0046
     12 C           8.3959   -6.7482   28.4833 C.ar    1  UNL1        0.0002
     13 C           8.8216   -8.0891   27.9629 C.ar    1  UNL1        0.0000
     14 C           8.6603   -8.4145   26.5075 C.ar    1  UNL1        0.0002
     15 C           8.0733   -7.3990   25.5726 C.ar    1  UNL1        0.0046
     16 C           5.4407   -1.6432   24.2171 C.3     1  UNL1        0.0492
     17 C           3.2120   -0.5727   23.4190 C.3     1  UNL1        0.0004
     18 C           3.9579   -1.4690   24.3624 C.3     1  UNL1        0.0064
     19 C           4.1436   -3.2994   19.8537 C.3     1  UNL1        0.0879
     20 C           3.5732   -4.3917   18.9983 C.3     1  UNL1        0.0227
     21 C           4.3697   -1.9343   19.2750 C.3     1  UNL1        0.0919
     22 N           3.2659   -0.9187   19.2957 N.3     1  UNL1       -0.2684
     23 C           3.4101    0.3614   18.5273 C.3     1  UNL1        0.0939
     24 C           2.3064    1.3770   18.5480 C.3     1  UNL1        0.1109
     25 N           1.0584    1.1124   19.3372 N.pl3   1  UNL1       -0.2753
     26 C           0.9142   -0.1678   20.1056 C.3     1  UNL1        0.1109
     27 C           2.0180   -1.1833   20.0849 C.3     1  UNL1        0.0939
     28 C          -0.0454    2.1279   19.3579 C.ar    1  UNL1        0.2203
     29 N          -0.2139    3.0760   18.2076 N.ar    1  UNL1       -0.2121
     30 C          -1.3177    4.0915   18.2284 C.ar    1  UNL1        0.1034
     31 C          -2.2528    4.1590   19.3992 C.ar    1  UNL1        0.0414
     32 C          -2.0842    3.2110   20.5494 C.ar    1  UNL1        0.1034
     33 N          -0.9805    2.1954   20.5287 N.ar    1  UNL1       -0.2121
@<TRIPOS>BOND
     1    17    18    1
     2    18    16    1
     3    16     5    1
     4     5     6   ar
     5     6     7   ar
     6     7    10    1
     7    10    11   ar
     8    11    12   ar
     9    12    13   ar
    10    13    14   ar
    11    14    15   ar
    12     7     8   ar
    13     8     9   ar
    14     9     1    1
    15     1     2    2
    16     1     3   am
    17     3    19    1
    18    19    20    1
    19    19    21    1
    20    21    22    1
    21    22    23    1
    22    23    24    1
    23    24    25    1
    24    25    28    1
    25    28    29   ar
    26    29    30   ar
    27    30    31   ar
    28    31    32   ar
    29    32    33   ar
    30    25    26    1
    31    26    27    1
    32     9     5   ar
    33    27    22    1
    34    15    10   ar
    35    33    28   ar
    36     3     4    1
@<TRIPOS>MOLECULE
*****
 33 36 0 0 0
SMALL
GASTEIGER

@<TRIPOS>ATOM
      1 C           7.1443   -4.5058   25.6785 C.2     1  UNL1        0.2818
      2 O           8.6058   -4.3519   25.3779 O.2     1  UNL1       -0.2668
      3 N           6.6721   -5.6336   26.5474 N.am    1  UNL1       -0.2986
      4 H           5.7129   -5.7347   26.7448 H       1  UNL1        0.1498
      5 C           5.5036   -2.4026   25.8522 C.ar    1  UNL1        0.1010
      6 N           4.5895   -1.6892   24.9007 N.ar    1  UNL1       -0.2125
      7 C           4.6759   -2.3775   23.5707 C.ar    1  UNL1        0.2296
      8 O           5.6435   -3.5164   23.7002 O.2     1  UNL1       -0.4303
      9 C           6.1550   -3.5319   25.1102 C.ar    1  UNL1        0.2135
     10 C           3.9263   -1.9942   22.3292 C.ar    1  UNL1        0.0536
     11 C           4.1595   -2.7435   21.0509 C.ar    1  UNL1        0.0046
     12 C           3.4100   -2.3602   19.8095 C.ar    1  UNL1        0.0002
     13 C           2.4272   -1.2276   19.8464 C.ar    1  UNL1        0.0000
     14 C           2.1940   -0.4783   21.1247 C.ar    1  UNL1        0.0002
     15 C           2.9436   -0.8616   22.3661 C.ar    1  UNL1        0.0046
     16 C           5.7272   -2.0489   27.2926 C.3     1  UNL1        0.0492
     17 C           4.9163   -0.9075   29.4811 C.3     1  UNL1        0.0004
     18 C           4.6895   -1.2675   28.0428 C.3     1  UNL1        0.0064
     19 C           7.6614   -6.6075   27.1157 C.3     1  UNL1        0.0879
     20 C           7.7506   -7.9973   26.5586 C.3     1  UNL1        0.0227
     21 C           8.5615   -6.1915   28.2412 C.3     1  UNL1        0.0919
     22 N           8.0544   -5.2600   29.3019 N.3     1  UNL1       -0.2684
     23 C           7.2456   -5.7954   30.4461 C.3     1  UNL1        0.0939
     24 C           6.7385   -4.8639   31.5068 C.3     1  UNL1        0.1109
     25 N           7.0403   -3.3969   31.4234 N.pl3   1  UNL1       -0.2753
     26 C           7.8490   -2.8614   30.2792 C.3     1  UNL1        0.1109
     27 C           8.3561   -3.7929   29.2185 C.3     1  UNL1        0.0939
     28 C           6.5332   -2.4654   32.4842 C.ar    1  UNL1        0.2203
     29 N           7.4419   -1.4212   33.0622 N.ar    1  UNL1       -0.2121
     30 C           6.9347   -0.4897   34.1229 C.ar    1  UNL1        0.1034
     31 C           5.5190   -0.6025   34.6056 C.ar    1  UNL1        0.0414
     32 C           4.6104   -1.6466   34.0276 C.ar    1  UNL1        0.1034
     33 N           5.1175   -2.5781   32.9668 N.ar    1  UNL1       -0.2121
@<TRIPOS>BOND
     1    17    18    1
     2    18    16    1
     3    16     5    1
     4     5     6   ar
     5     6     7   ar
     6     7    10    1
     7    10    11   ar
     8    11    12   ar
     9    12    13   ar
    10    13    14   ar
    11    14    15   ar
    12     7     8   ar
    13     8     9   ar
    14     9     1    1
    15     1     2    2
    16     1     3   am
    17     3    19    1
    18    19    20    1
    19    19    21    1
    20    21    22    1
    21    22    23    1
    22    23    24    1
    23    24    25    1
    24    25    28    1
    25    28    29   ar
    26    29    30   ar
    27    30    31   ar
    28    31    32   ar
    29    32    33   ar
    30    25    26    1
    31    26    27    1
    32     9     5   ar
    33    27    22    1
    34    15    10   ar
    35    33    28   ar
    36     3     4    1
@<TRIPOS>MOLECULE
*****
 33 36 0 0 0
SMALL
GASTEIGER

@<TRIPOS>ATOM
      1 C           2.0663    1.0346   24.9842 C.2     1  UNL1        0.2818
      2 O           2.6225    2.4273   24.9521 O.2     1  UNL1       -0.2668
      3 N           0.7586    0.7649   25.6677 N.am    1  UNL1       -0.2986
      4 H           0.3935   -0.1492   25.6889 H       1  UNL1        0.1498
      5 C           3.6857   -1.0915   25.0333 C.ar    1  UNL1        0.1010
      6 N           4.2376   -2.0285   24.0001 N.ar    1  UNL1       -0.2125
      7 C           3.7107   -1.6045   22.6611 C.ar    1  UNL1        0.2296
      8 O           2.8332   -0.4054   22.8669 O.2     1  UNL1       -0.4303
      9 C           2.8177   -0.0884   24.3329 C.ar    1  UNL1        0.2135
     10 C           4.0090   -2.2638   21.3472 C.ar    1  UNL1        0.0536
     11 C           4.7356   -3.5756   21.3142 C.ar    1  UNL1        0.0046
     12 C           5.0338   -4.2348   20.0003 C.ar    1  UNL1        0.0002
     13 C           4.6055   -3.5822   18.7194 C.ar    1  UNL1        0.0000
     14 C           3.8789   -2.2704   18.7524 C.ar    1  UNL1        0.0002
     15 C           3.5806   -1.6112   20.0663 C.ar    1  UNL1        0.0046
     16 C           3.9546   -1.1477   26.5079 C.3     1  UNL1        0.0492
     17 C           6.4346   -0.3805   26.6119 C.3     1  UNL1        0.0004
     18 C           5.3552   -1.3437   27.0080 C.3     1  UNL1        0.0064
     19 C           0.0071    1.8878   26.3191 C.3     1  UNL1        0.0879
     20 C          -1.1305    2.5471   25.5972 C.3     1  UNL1        0.0227
     21 C           0.3933    2.3515   27.6923 C.3     1  UNL1        0.0919
     22 N           1.3677    1.5533   28.5069 N.3     1  UNL1       -0.2684
     23 C           0.9140    0.3095   29.2120 C.3     1  UNL1        0.0939
     24 C           1.8884   -0.4886   30.0266 C.3     1  UNL1        0.1109
     25 N           3.3165   -0.0429   30.1362 N.pl3   1  UNL1       -0.2753
     26 C           3.7702    1.2010   29.4311 C.3     1  UNL1        0.1109
     27 C           2.7958    1.9991   28.6165 C.3     1  UNL1        0.0939
     28 C           4.2909   -0.8410   30.9508 C.ar    1  UNL1        0.2203
     29 N           3.8066   -1.6536   32.1150 N.ar    1  UNL1       -0.2121
     30 C           4.7810   -2.4517   32.9295 C.ar    1  UNL1        0.1034
     31 C           6.2396   -2.4372   32.5800 C.ar    1  UNL1        0.0414
     32 C           6.7238   -1.6246   31.4159 C.ar    1  UNL1        0.1034
     33 N           5.7495   -0.8265   30.6012 N.ar    1  UNL1       -0.2121
@<TRIPOS>BOND
     1    17    18    1
     2    18    16    1
     3    16     5    1
     4     5     6   ar
     5     6     7   ar
     6     7    10    1
     7    10    11   ar
     8    11    12   ar
     9    12    13   ar
    10    13    14   ar
    11    14    15   ar
    12     7     8   ar
    13     8     9   ar
    14     9     1    1
    15     1     2    2
    16     1     3   am
    17     3    19    1
    18    19    20    1
    19    19    21    1
    20    21    22    1
    21    22    23    1
    22    23    24    1
    23    24    25    1
    24    25    28    1
    25    28    29   ar
    26    29    30   ar
    27    30    31   ar
    28    31    32   ar
    29    32    33   ar
    30    25    26    1
    31    26    27    1
    32     9     5   ar
    33    27    22    1
    34    15    10   ar
    35    33    28   ar
    36     3     4    1
@<TRIPOS>MOLECULE
*****
 33 36 0 0 0
SMALL
GASTEIGER

@<TRIPOS>ATOM
      1 C           4.7219   -1.1335   27.9851 C.2     1  UNL1        0.2818
      2 O           5.2217    0.2005   28.4546 O.2     1  UNL1       -0.2668
      3 N           3.2671   -1.3215   27.6718 N.am    1  UNL1       -0.2986
      4 H           2.9390   -2.1971   27.3636 H       1  UNL1        0.1498
      5 C           6.6465   -2.7669   28.8644 C.ar    1  UNL1        0.1010
      6 N           7.3988   -3.9281   28.2851 N.ar    1  UNL1       -0.2125
      7 C           6.8942   -4.1585   26.8914 C.ar    1  UNL1        0.2296
      8 O           5.8301   -3.1397   26.6094 O.2     1  UNL1       -0.4303
      9 C           5.6769   -2.2796   27.8288 C.ar    1  UNL1        0.2135
     10 C           7.3703   -5.2211   25.9457 C.ar    1  UNL1        0.0536
     11 C           7.7528   -4.8588   24.5414 C.ar    1  UNL1        0.0046
     12 C           8.2288   -5.9214   23.5958 C.ar    1  UNL1        0.0002
     13 C           8.3224   -7.3464   24.0546 C.ar    1  UNL1        0.0000
     14 C           7.9399   -7.7088   25.4590 C.ar    1  UNL1        0.0002
     15 C           7.4639   -6.6462   26.4046 C.ar    1  UNL1        0.0046
     16 C           6.8313   -2.1937   30.2382 C.3     1  UNL1        0.0492
     17 C           6.5858   -3.9771   32.1115 C.3     1  UNL1        0.0004
     18 C           6.0687   -2.7635   31.3975 C.3     1  UNL1        0.0064
     19 C           2.3121   -0.1754   27.8281 C.3     1  UNL1        0.0879
     20 C           2.3318    0.9568   26.8444 C.3     1  UNL1        0.0227
     21 C           1.3374   -0.1615   28.9682 C.3     1  UNL1        0.0919
     22 N           1.7664    0.3392   30.3155 N.3     1  UNL1       -0.2684
     23 C           1.0986    1.5402   30.9168 C.3     1  UNL1        0.0939
     24 C           1.5276    2.0409   32.2642 C.3     1  UNL1        0.1109
     25 N           2.6244    1.3404   33.0103 N.pl3   1  UNL1       -0.2753
     26 C           3.2921    0.1393   32.4090 C.3     1  UNL1        0.1109
     27 C           2.8632   -0.3613   31.0616 C.3     1  UNL1        0.0939
     28 C           3.0533    1.8410   34.3576 C.ar    1  UNL1        0.2203
     29 N           2.1237    2.6902   35.1731 N.ar    1  UNL1       -0.2121
     30 C           2.5527    3.1907   36.5204 C.ar    1  UNL1        0.1034
     31 C           3.9112    2.8423   37.0523 C.ar    1  UNL1        0.0414
     32 C           4.8408    1.9932   36.2368 C.ar    1  UNL1        0.1034
     33 N           4.4118    1.4926   34.8895 N.ar    1  UNL1       -0.2121
@<TRIPOS>BOND
     1    17    18    1
     2    18    16    1
     3    16     5    1
     4     5     6   ar
     5     6     7   ar
     6     7    10    1
     7    10    11   ar
     8    11    12   ar
     9    12    13   ar
    10    13    14   ar
    11    14    15   ar
    12     7     8   ar
    13     8     9   ar
    14     9     1    1
    15     1     2    2
    16     1     3   am
    17     3    19    1
    18    19    20    1
    19    19    21    1
    20    21    22    1
    21    22    23    1
    22    23    24    1
    23    24    25    1
    24    25    28    1
    25    28    29   ar
    26    29    30   ar
    27    30    31   ar
    28    31    32   ar
    29    32    33   ar
    30    25    26    1
    31    26    27    1
    32     9     5   ar
    33    27    22    1
    34    15    10   ar
    35    33    28   ar
    36     3     4    1
@<TRIPOS>MOLECULE
*****
 33 36 0 0 0
SMALL
GASTEIGER

@<TRIPOS>ATOM
      1 C           4.0281   -1.4315   20.7875 C.2     1  UNL1        0.2818
      2 O           2.5316   -1.4946   20.8671 O.2     1  UNL1       -0.2668
      3 N           4.6898   -0.4244   19.8942 N.am    1  UNL1       -0.2986
      4 H           5.6720   -0.3829   19.8419 H       1  UNL1        0.1498
      5 C           5.6651   -3.5258   21.0690 C.ar    1  UNL1        0.1010
      6 N           6.3402   -4.1959   22.2288 N.ar    1  UNL1       -0.2125
      7 C           5.9553   -3.4597   23.4778 C.ar    1  UNL1        0.2296
      8 O           5.0424   -2.3345   23.0899 O.2     1  UNL1       -0.4303
      9 C           4.8630   -2.3754   21.6012 C.ar    1  UNL1        0.2135
     10 C           6.4045   -3.7906   24.8702 C.ar    1  UNL1        0.0536
     11 C           6.9893   -5.1392   25.1690 C.ar    1  UNL1        0.0046
     12 C           7.4385   -5.4700   26.5614 C.ar    1  UNL1        0.0002
     13 C           7.3029   -4.4522   27.6549 C.ar    1  UNL1        0.0000
     14 C           6.7182   -3.1037   27.3561 C.ar    1  UNL1        0.0002
     15 C           6.2690   -2.7728   25.9637 C.ar    1  UNL1        0.0046
     16 C           5.7731   -3.9343   19.6298 C.3     1  UNL1        0.0492
     17 C           3.4797   -5.1548   19.6475 C.3     1  UNL1        0.0004
     18 C           4.5625   -4.4353   18.8994 C.3     1  UNL1        0.0064
     19 C           3.8549    0.5195   19.0805 C.3     1  UNL1        0.0879
     20 C           3.4275    0.1382   17.6942 C.3     1  UNL1        0.0227
     21 C           3.4474    1.8445   19.6532 C.3     1  UNL1        0.0919
     22 N           1.9958    2.2149   19.7278 N.3     1  UNL1       -0.2684
     23 C           1.1687    1.7748   20.8992 C.3     1  UNL1        0.0939
     24 C          -0.2830    2.1452   20.9737 C.3     1  UNL1        0.1109
     25 N          -0.9076    2.9556   19.8768 N.pl3   1  UNL1       -0.2753
     26 C          -0.0805    3.3957   18.7054 C.3     1  UNL1        0.1109
     27 C           1.3712    3.0253   18.6308 C.3     1  UNL1        0.0939
     28 C          -2.3592    3.3260   19.9514 C.ar    1  UNL1        0.2203
     29 N          -2.9978    4.0871   18.8274 N.ar    1  UNL1       -0.2121
     30 C          -4.4494    4.4574   18.9021 C.ar    1  UNL1        0.1034
     31 C          -5.2625    4.0666   20.1005 C.ar    1  UNL1        0.0414
     32 C          -4.6239    3.3056   21.2243 C.ar    1  UNL1        0.1034
     33 N          -3.1723    2.9352   21.1497 N.ar    1  UNL1       -0.2121
@<TRIPOS>BOND
     1    17    18    1
     2    18    16    1
     3    16     5    1
     4     5     6   ar
     5     6     7   ar
     6     7    10    1
     7    10    11   ar
     8    11    12   ar
     9    12    13   ar
    10    13    14   ar
    11    14    15   ar
    12     7     8   ar
    13     8     9   ar
    14     9     1    1
    15     1     2    2
    16     1     3   am
    17     3    19    1
    18    19    20    1
    19    19    21    1
    20    21    22    1
    21    22    23    1
    22    23    24    1
    23    24    25    1
    24    25    28    1
    25    28    29   ar
    26    29    30   ar
    27    30    31   ar
    28    31    32   ar
    29    32    33   ar
    30    25    26    1
    31    26    27    1
    32     9     5   ar
    33    27    22    1
    34    15    10   ar
    35    33    28   ar
    36     3     4    1
@<TRIPOS>MOLECULE
*****
 33 36 0 0 0
SMALL
GASTEIGER

@<TRIPOS>ATOM
      1 C           2.0052    0.8158   26.3126 C.2     1  UNL1        0.2818
      2 O           1.4644    2.1598   25.9236 O.2     1  UNL1       -0.2668
      3 N           1.6371    0.2138   27.6362 N.am    1  UNL1       -0.2986
      4 H           1.9920   -0.6683   27.8916 H       1  UNL1        0.1498
      5 C           4.3764   -0.1845   25.5900 C.ar    1  UNL1        0.1010
      6 N           4.8862   -0.9580   24.4103 N.ar    1  UNL1       -0.2125
      7 C           3.7390   -1.1778   23.4692 C.ar    1  UNL1        0.2296
      8 O           2.5201   -0.5400   24.0672 O.2     1  UNL1       -0.4303
      9 C           2.9140    0.0738   25.3779 C.ar    1  UNL1        0.2135
     10 C           3.7999   -1.9072   22.1598 C.ar    1  UNL1        0.0536
     11 C           4.5694   -3.1902   22.0512 C.ar    1  UNL1        0.0046
     12 C           4.6303   -3.9196   20.7419 C.ar    1  UNL1        0.0002
     13 C           3.9218   -3.3660   19.5413 C.ar    1  UNL1        0.0000
     14 C           3.1524   -2.0830   19.6499 C.ar    1  UNL1        0.0002
     15 C           3.0914   -1.3536   20.9592 C.ar    1  UNL1        0.0046
     16 C           5.1866    0.2538   26.7738 C.3     1  UNL1        0.0492
     17 C           4.9199   -1.1569   28.9392 C.3     1  UNL1        0.0004
     18 C           5.7232   -0.7658   27.7343 C.3     1  UNL1        0.0064
     19 C           0.7283    0.9558   28.5709 C.3     1  UNL1        0.0879
     20 C          -0.6855    0.4941   28.7663 C.3     1  UNL1        0.0227
     21 C           1.2332    2.1593   29.3100 C.3     1  UNL1        0.0919
     22 N           1.6867    2.0293   30.7339 N.3     1  UNL1       -0.2684
     23 C           2.6273    0.9279   31.1238 C.3     1  UNL1        0.0939
     24 C           3.0808    0.7978   32.5477 C.3     1  UNL1        0.1109
     25 N           2.5937    1.7693   33.5817 N.pl3   1  UNL1       -0.2753
     26 C           1.6531    2.8707   33.1918 C.3     1  UNL1        0.1109
     27 C           1.1996    3.0008   31.7679 C.3     1  UNL1        0.0939
     28 C           3.0472    1.6392   35.0055 C.ar    1  UNL1        0.2203
     29 N           4.2204    0.7672   35.3423 N.ar    1  UNL1       -0.2121
     30 C           4.6738    0.6372   36.7663 C.ar    1  UNL1        0.1034
     31 C           3.9543    1.3792   37.8532 C.ar    1  UNL1        0.0414
     32 C           2.7812    2.2512   37.5164 C.ar    1  UNL1        0.1034
     33 N           2.3277    2.3812   36.0925 N.ar    1  UNL1       -0.2121
@<TRIPOS>BOND
     1    17    18    1
     2    18    16    1
     3    16     5    1
     4     5     6   ar
     5     6     7   ar
     6     7    10    1
     7    10    11   ar
     8    11    12   ar
     9    12    13   ar
    10    13    14   ar
    11    14    15   ar
    12     7     8   ar
    13     8     9   ar
    14     9     1    1
    15     1     2    2
    16     1     3   am
    17     3    19    1
    18    19    20    1
    19    19    21    1
    20    21    22    1
    21    22    23    1
    22    23    24    1
    23    24    25    1
    24    25    28    1
    25    28    29   ar
    26    29    30   ar
    27    30    31   ar
    28    31    32   ar
    29    32    33   ar
    30    25    26    1
    31    26    27    1
    32     9     5   ar
    33    27    22    1
    34    15    10   ar
    35    33    28   ar
    36     3     4    1
@<TRIPOS>MOLECULE
*****
 33 36 0 0 0
SMALL
GASTEIGER

@<TRIPOS>ATOM
      1 C          -9.0904  -17.3996   25.2340 C.2     1  UNL1        0.2818
      2 O          -9.2013  -18.1392   26.5342 O.2     1  UNL1       -0.2668
      3 N          -8.3992  -16.0692   25.1846 N.am    1  UNL1       -0.2986
      4 H          -8.3265  -15.5837   24.3312 H       1  UNL1        0.1498
      5 C         -11.1274  -18.2231   23.7116 C.ar    1  UNL1        0.1010
      6 N         -11.2530  -18.8285   22.3450 N.ar    1  UNL1       -0.2125
      7 C          -9.8740  -18.9697   21.7719 C.ar    1  UNL1        0.2296
      8 O          -8.8960  -18.4516   22.7844 O.2     1  UNL1       -0.4303
      9 C          -9.6706  -17.9902   23.9832 C.ar    1  UNL1        0.2135
     10 C          -9.5329  -19.5306   20.4232 C.ar    1  UNL1        0.0536
     11 C          -8.1177  -19.9136   20.1063 C.ar    1  UNL1        0.0046
     12 C          -7.7766  -20.4745   18.7575 C.ar    1  UNL1        0.0002
     13 C          -8.8508  -20.6523   17.7257 C.ar    1  UNL1        0.0000
     14 C         -10.2659  -20.2693   18.0426 C.ar    1  UNL1        0.0002
     15 C         -10.6070  -19.7084   19.3914 C.ar    1  UNL1        0.0046
     16 C         -12.2596  -17.9063   24.6431 C.3     1  UNL1        0.0492
     17 C         -14.7296  -18.4435   25.2436 C.3     1  UNL1        0.0004
     18 C         -13.6753  -18.1577   24.2156 C.3     1  UNL1        0.0064
     19 C          -7.8190  -15.4785   26.4354 C.3     1  UNL1        0.0879
     20 C          -8.7268  -14.9763   27.5188 C.3     1  UNL1        0.0227
     21 C          -6.3311  -15.3902   26.6028 C.3     1  UNL1        0.0919
     22 N          -5.4237  -15.8503   25.5004 N.3     1  UNL1       -0.2684
     23 C          -5.3730  -15.0941   24.2060 C.3     1  UNL1        0.0939
     24 C          -4.4657  -15.5542   23.1037 C.3     1  UNL1        0.1109
     25 N          -3.6091  -16.7705   23.2958 N.pl3   1  UNL1       -0.2753
     26 C          -3.6599  -17.5268   24.5902 C.3     1  UNL1        0.1109
     27 C          -4.5672  -17.0667   25.6926 C.3     1  UNL1        0.0939
     28 C          -2.7018  -17.2306   22.1935 C.ar    1  UNL1        0.2203
     29 N          -1.7562  -16.2621   21.5470 N.ar    1  UNL1       -0.2121
     30 C          -0.8489  -16.7223   20.4446 C.ar    1  UNL1        0.1034
     31 C          -0.8872  -18.1508   19.9889 C.ar    1  UNL1        0.0414
     32 C          -1.8328  -19.1192   20.6354 C.ar    1  UNL1        0.1034
     33 N          -2.7401  -18.6591   21.7377 N.ar    1  UNL1       -0.2121
@<TRIPOS>BOND
     1    17    18    1
     2    18    16    1
     3    16     5    1
     4     5     6   ar
     5     6     7   ar
     6     7    10    1
     7    10    11   ar
     8    11    12   ar
     9    12    13   ar
    10    13    14   ar
    11    14    15   ar
    12     7     8   ar
    13     8     9   ar
    14     9     1    1
    15     1     2    2
    16     1     3   am
    17     3    19    1
    18    19    20    1
    19    19    21    1
    20    21    22    1
    21    22    23    1
    22    23    24    1
    23    24    25    1
    24    25    28    1
    25    28    29   ar
    26    29    30   ar
    27    30    31   ar
    28    31    32   ar
    29    32    33   ar
    30    25    26    1
    31    26    27    1
    32     9     5   ar
    33    27    22    1
    34    15    10   ar
    35    33    28   ar
    36     3     4    1
