@<TRIPOS>MOLECULE
*****
 19 20 0 0 0
SMALL
GASTEIGER

@<TRIPOS>ATOM
      1 C         -10.6949  -16.5652   21.9165 C.ar    1  UNL1        0.0954
      2 S          -9.3958  -15.9378   22.3273 S.2     1  UNL1       -0.0812
      3 C          -9.0543  -16.4357   23.7004 C.ar    1  UNL1        0.0309
      4 C         -10.1423  -17.3709   24.1383 C.ar    1  UNL1        0.0212
      5 C         -11.1562  -17.4509   23.0358 C.ar    1  UNL1        0.0525
      6 N         -12.4112  -18.2724   23.0500 N.pl3   1  UNL1       -0.3565
      7 H         -12.6289  -18.8250   23.8352 H       1  UNL1        0.1424
      8 H         -13.0172  -18.2590   22.2742 H       1  UNL1        0.1424
      9 C          -7.8382  -16.0638   24.4960 C.ar    1  UNL1        0.0060
     10 C          -7.9406  -15.8814   25.9813 C.ar    1  UNL1        0.0005
     11 C          -6.7246  -15.5095   26.7768 C.ar    1  UNL1        0.0000
     12 C          -5.4061  -15.3199   26.0870 C.ar    1  UNL1        0.0000
     13 C          -5.3037  -15.5024   24.6017 C.ar    1  UNL1        0.0000
     14 C          -6.5198  -15.8743   23.8062 C.ar    1  UNL1        0.0005
     15 N         -10.7228  -15.6130   19.4994 N.am    1  UNL1       -0.3249
     16 C         -11.4075  -16.3455   20.6150 C.2     1  UNL1        0.2500
     17 O         -12.8048  -16.8582   20.4292 O.2     1  UNL1       -0.2698
     18 H         -11.1905  -15.4687   18.6452 H       1  UNL1        0.1453
     19 H          -9.8057  -15.2764   19.6214 H       1  UNL1        0.1453
@<TRIPOS>BOND
     1    15    16   am
     2    16    17    2
     3    16     1    1
     4     1     2   ar
     5     2     3   ar
     6     3     9    1
     7     9    10   ar
     8    10    11   ar
     9    11    12   ar
    10    12    13   ar
    11    13    14   ar
    12     3     4   ar
    13     4     5   ar
    14     5     6    1
    15     5     1   ar
    16    14     9   ar
    17    15    18    1
    18    15    19    1
    19     6     7    1
    20     6     8    1
@<TRIPOS>MOLECULE
*****
 19 20 0 0 0
SMALL
GASTEIGER

@<TRIPOS>ATOM
      1 C          -7.1825  -15.7266   24.8480 C.ar    1  UNL1        0.0954
      2 S          -8.6718  -15.8630   24.7325 S.2     1  UNL1       -0.0812
      3 C          -8.9744  -16.5632   23.4410 C.ar    1  UNL1        0.0309
      4 C          -7.6721  -16.8596   22.7582 C.ar    1  UNL1        0.0212
      5 C          -6.5647  -16.3426   23.6278 C.ar    1  UNL1        0.0525
      6 N          -5.0970  -16.4268   23.3296 N.pl3   1  UNL1       -0.3565
      7 H          -4.7874  -16.8524   22.4976 H       1  UNL1        0.1424
      8 H          -4.4434  -16.0564   23.9658 H       1  UNL1        0.1424
      9 C         -10.3397  -16.9067   22.9231 C.ar    1  UNL1        0.0060
     10 C         -10.8106  -16.3403   21.6164 C.ar    1  UNL1        0.0005
     11 C         -12.1758  -16.6838   21.0986 C.ar    1  UNL1        0.0000
     12 C         -13.0701  -17.5937   21.8875 C.ar    1  UNL1        0.0000
     13 C         -12.5992  -18.1602   23.1941 C.ar    1  UNL1        0.0000
     14 C         -11.2340  -17.8167   23.7119 C.ar    1  UNL1        0.0005
     15 N          -7.0945  -14.9583   27.3284 N.am    1  UNL1       -0.3249
     16 C          -6.4412  -15.0867   25.9842 C.2     1  UNL1        0.2500
     17 O          -5.0466  -14.5751   25.7762 O.2     1  UNL1       -0.2698
     18 H          -6.6080  -14.5383   28.0741 H       1  UNL1        0.1453
     19 H          -8.0099  -15.2941   27.4649 H       1  UNL1        0.1453
@<TRIPOS>BOND
     1    15    16   am
     2    16    17    2
     3    16     1    1
     4     1     2   ar
     5     2     3   ar
     6     3     9    1
     7     9    10   ar
     8    10    11   ar
     9    11    12   ar
    10    12    13   ar
    11    13    14   ar
    12     3     4   ar
    13     4     5   ar
    14     5     6    1
    15     5     1   ar
    16    14     9   ar
    17    15    18    1
    18    15    19    1
    19     6     7    1
    20     6     8    1
@<TRIPOS>MOLECULE
*****
 19 20 0 0 0
SMALL
GASTEIGER

@<TRIPOS>ATOM
      1 C          -6.9309  -15.6295   24.4766 C.ar    1  UNL1        0.0954
      2 S          -7.7460  -16.0997   23.3085 S.2     1  UNL1       -0.0812
      3 C          -9.1664  -16.2527   23.7659 C.ar    1  UNL1        0.0309
      4 C          -9.2291  -15.8770   25.2167 C.ar    1  UNL1        0.0212
      5 C          -7.8476  -15.4918   25.6560 C.ar    1  UNL1        0.0525
      6 N          -7.4520  -15.0470   27.0328 N.pl3   1  UNL1       -0.3565
      7 H          -8.1296  -14.9880   27.7447 H       1  UNL1        0.1424
      8 H          -6.5149  -14.8142   27.2247 H       1  UNL1        0.1424
      9 C         -10.3212  -16.7024   22.9208 C.ar    1  UNL1        0.0060
     10 C         -10.4227  -16.2581   21.4917 C.ar    1  UNL1        0.0005
     11 C         -11.5775  -16.7078   20.6467 C.ar    1  UNL1        0.0000
     12 C         -12.6309  -17.6019   21.2308 C.ar    1  UNL1        0.0000
     13 C         -12.5294  -18.0462   22.6598 C.ar    1  UNL1        0.0000
     14 C         -11.3746  -17.5965   23.5048 C.ar    1  UNL1        0.0005
     15 N          -4.6167  -15.7888   23.3064 N.am    1  UNL1       -0.3249
     16 C          -5.4579  -15.3466   24.4670 C.2     1  UNL1        0.2500
     17 O          -4.8260  -14.6214   25.6180 O.2     1  UNL1       -0.2698
     18 H          -3.6499  -15.6031   23.3002 H       1  UNL1        0.1453
     19 H          -5.0315  -16.2647   22.5510 H       1  UNL1        0.1453
@<TRIPOS>BOND
     1    15    16   am
     2    16    17    2
     3    16     1    1
     4     1     2   ar
     5     2     3   ar
     6     3     9    1
     7     9    10   ar
     8    10    11   ar
     9    11    12   ar
    10    12    13   ar
    11    13    14   ar
    12     3     4   ar
    13     4     5   ar
    14     5     6    1
    15     5     1   ar
    16    14     9   ar
    17    15    18    1
    18    15    19    1
    19     6     7    1
    20     6     8    1
@<TRIPOS>MOLECULE
*****
 19 20 0 0 0
SMALL
GASTEIGER

@<TRIPOS>ATOM
      1 C         -10.4069  -17.3807   21.8992 C.ar    1  UNL1        0.0954
      2 S         -10.1468  -16.6946   23.2074 S.2     1  UNL1       -0.0812
      3 C          -8.6810  -16.8058   23.5059 C.ar    1  UNL1        0.0309
      4 C          -8.0351  -17.5607   22.3820 C.ar    1  UNL1        0.0212
      5 C          -9.1017  -17.9160   21.3890 C.ar    1  UNL1        0.0525
      6 N          -8.8989  -18.6736   20.1104 N.pl3   1  UNL1       -0.3565
      7 H          -7.9992  -18.9854   19.8604 H       1  UNL1        0.1424
      8 H          -9.6655  -18.8590   19.5211 H       1  UNL1        0.1424
      9 C          -7.9836  -16.2583   24.7158 C.ar    1  UNL1        0.0060
     10 C          -6.5875  -15.7225   24.5984 C.ar    1  UNL1        0.0005
     11 C          -5.8901  -15.1750   25.8083 C.ar    1  UNL1        0.0000
     12 C          -6.5888  -15.1633   27.1355 C.ar    1  UNL1        0.0000
     13 C          -7.9849  -15.6990   27.2529 C.ar    1  UNL1        0.0000
     14 C          -8.6823  -16.2466   26.0431 C.ar    1  UNL1        0.0005
     15 N         -12.9694  -17.7885   22.0303 N.am    1  UNL1       -0.3249
     16 C         -11.7383  -17.5091   21.2202 C.2     1  UNL1        0.2500
     17 O         -11.8384  -17.3580   19.7312 O.2     1  UNL1       -0.2698
     18 H         -13.8433  -17.8727   21.5846 H       1  UNL1        0.1453
     19 H         -12.9037  -17.8876   23.0076 H       1  UNL1        0.1453
@<TRIPOS>BOND
     1    15    16   am
     2    16    17    2
     3    16     1    1
     4     1     2   ar
     5     2     3   ar
     6     3     9    1
     7     9    10   ar
     8    10    11   ar
     9    11    12   ar
    10    12    13   ar
    11    13    14   ar
    12     3     4   ar
    13     4     5   ar
    14     5     6    1
    15     5     1   ar
    16    14     9   ar
    17    15    18    1
    18    15    19    1
    19     6     7    1
    20     6     8    1
@<TRIPOS>MOLECULE
*****
 19 20 0 0 0
SMALL
GASTEIGER

@<TRIPOS>ATOM
      1 C          -4.2598  -19.2036   21.1747 C.ar    1  UNL1        0.0954
      2 S          -5.5608  -19.6121   20.5498 S.2     1  UNL1       -0.0812
      3 C          -6.6713  -19.1452   21.4436 C.ar    1  UNL1        0.0309
      4 C          -6.0566  -18.4481   22.6210 C.ar    1  UNL1        0.0212
      5 C          -4.5663  -18.4841   22.4548 C.ar    1  UNL1        0.0525
      6 N          -3.5591  -17.9028   23.4023 N.pl3   1  UNL1       -0.3565
      7 H          -3.8598  -17.4467   24.2213 H       1  UNL1        0.1424
      8 H          -2.5975  -17.9774   23.2052 H       1  UNL1        0.1424
      9 C          -8.1388  -19.3410   21.2024 C.ar    1  UNL1        0.0060
     10 C          -8.6672  -19.3986   19.7998 C.ar    1  UNL1        0.0005
     11 C         -10.1346  -19.5944   19.5586 C.ar    1  UNL1        0.0000
     12 C         -11.0737  -19.7327   20.7201 C.ar    1  UNL1        0.0000
     13 C         -10.5453  -19.6752   22.1227 C.ar    1  UNL1        0.0000
     14 C          -9.0779  -19.4793   22.3639 C.ar    1  UNL1        0.0005
     15 N          -2.5496  -19.0202   19.2275 N.am    1  UNL1       -0.3249
     16 C          -2.8926  -19.4680   20.6174 C.2     1  UNL1        0.2500
     17 O          -1.8682  -20.1803   21.4501 O.2     1  UNL1       -0.2698
     18 H          -1.6522  -19.1937   18.8617 H       1  UNL1        0.1453
     19 H          -3.2220  -18.5527   18.6810 H       1  UNL1        0.1453
@<TRIPOS>BOND
     1    15    16   am
     2    16    17    2
     3    16     1    1
     4     1     2   ar
     5     2     3   ar
     6     3     9    1
     7     9    10   ar
     8    10    11   ar
     9    11    12   ar
    10    12    13   ar
    11    13    14   ar
    12     3     4   ar
    13     4     5   ar
    14     5     6    1
    15     5     1   ar
    16    14     9   ar
    17    15    18    1
    18    15    19    1
    19     6     7    1
    20     6     8    1
@<TRIPOS>MOLECULE
*****
 19 20 0 0 0
SMALL
GASTEIGER

@<TRIPOS>ATOM
      1 C          -9.4387  -18.6158   23.2930 C.ar    1  UNL1        0.0954
      2 S          -8.3656  -19.5239   22.7699 S.2     1  UNL1       -0.0812
      3 C          -7.1905  -18.6767   22.3805 C.ar    1  UNL1        0.0309
      4 C          -7.5375  -17.2450   22.6629 C.ar    1  UNL1        0.0212
      5 C          -8.9269  -17.2073   23.2269 C.ar    1  UNL1        0.0525
      6 N          -9.6735  -15.9771   23.6504 N.pl3   1  UNL1       -0.3565
      7 H          -9.2506  -15.0919   23.5680 H       1  UNL1        0.1424
      8 H         -10.5863  -16.0550   24.0107 H       1  UNL1        0.1424
      9 C          -5.8958  -19.1741   21.8090 C.ar    1  UNL1        0.0060
     10 C          -4.5956  -18.7856   22.4480 C.ar    1  UNL1        0.0005
     11 C          -3.3010  -19.2829   21.8765 C.ar    1  UNL1        0.0000
     12 C          -3.3067  -20.1687   20.6660 C.ar    1  UNL1        0.0000
     13 C          -4.6069  -20.5571   20.0270 C.ar    1  UNL1        0.0000
     14 C          -5.9015  -20.0598   20.5985 C.ar    1  UNL1        0.0005
     15 N         -10.9065  -19.7657   25.1023 N.am    1  UNL1       -0.3249
     16 C         -10.7869  -19.0413   23.7942 C.2     1  UNL1        0.2500
     17 O         -12.0156  -18.7425   22.9873 O.2     1  UNL1       -0.2698
     18 H         -11.7913  -20.0450   25.4312 H       1  UNL1        0.1453
     19 H         -10.1000  -19.9619   25.6318 H       1  UNL1        0.1453
@<TRIPOS>BOND
     1    15    16   am
     2    16    17    2
     3    16     1    1
     4     1     2   ar
     5     2     3   ar
     6     3     9    1
     7     9    10   ar
     8    10    11   ar
     9    11    12   ar
    10    12    13   ar
    11    13    14   ar
    12     3     4   ar
    13     4     5   ar
    14     5     6    1
    15     5     1   ar
    16    14     9   ar
    17    15    18    1
    18    15    19    1
    19     6     7    1
    20     6     8    1
@<TRIPOS>MOLECULE
*****
 19 20 0 0 0
SMALL
GASTEIGER

@<TRIPOS>ATOM
      1 C          -9.3539  -17.9736   22.3758 C.ar    1  UNL1        0.0954
      2 S          -7.9639  -17.8169   21.8343 S.2     1  UNL1       -0.0812
      3 C          -7.2364  -19.1120   22.0432 C.ar    1  UNL1        0.0309
      4 C          -8.1768  -20.0690   22.7136 C.ar    1  UNL1        0.0212
      5 C          -9.4855  -19.3655   22.9192 C.ar    1  UNL1        0.0525
      6 N         -10.7107  -19.9511   23.5564 N.pl3   1  UNL1       -0.3565
      7 H         -10.6993  -20.8794   23.8842 H       1  UNL1        0.1424
      8 H         -11.5263  -19.4072   23.6468 H       1  UNL1        0.1424
      9 C          -5.8175  -19.3994   21.6504 C.ar    1  UNL1        0.0060
     10 C          -5.5292  -20.2290   20.4344 C.ar    1  UNL1        0.0005
     11 C          -4.1104  -20.5164   20.0417 C.ar    1  UNL1        0.0000
     12 C          -2.9798  -19.9743   20.8650 C.ar    1  UNL1        0.0000
     13 C          -3.2680  -19.1448   22.0810 C.ar    1  UNL1        0.0000
     14 C          -4.6869  -18.8573   22.4737 C.ar    1  UNL1        0.0005
     15 N         -10.2283  -15.6535   21.5993 N.am    1  UNL1       -0.3249
     16 C         -10.4245  -16.9229   22.3741 C.2     1  UNL1        0.2500
     17 O         -11.6912  -17.1416   23.1471 O.2     1  UNL1       -0.2698
     18 H         -10.9309  -14.9639   21.5982 H       1  UNL1        0.1453
     19 H          -9.3969  -15.5100   21.0919 H       1  UNL1        0.1453
@<TRIPOS>BOND
     1    15    16   am
     2    16    17    2
     3    16     1    1
     4     1     2   ar
     5     2     3   ar
     6     3     9    1
     7     9    10   ar
     8    10    11   ar
     9    11    12   ar
    10    12    13   ar
    11    13    14   ar
    12     3     4   ar
    13     4     5   ar
    14     5     6    1
    15     5     1   ar
    16    14     9   ar
    17    15    18    1
    18    15    19    1
    19     6     7    1
    20     6     8    1
@<TRIPOS>MOLECULE
*****
 19 20 0 0 0
SMALL
GASTEIGER

@<TRIPOS>ATOM
      1 C          -9.8136  -19.3310   22.6769 C.ar    1  UNL1        0.0954
      2 S          -8.3496  -19.5412   22.9266 S.2     1  UNL1       -0.0812
      3 C          -7.6407  -19.4802   21.6060 C.ar    1  UNL1        0.0309
      4 C          -8.6666  -19.2324   20.5402 C.ar    1  UNL1        0.0212
      5 C         -10.0095  -19.1401   21.2020 C.ar    1  UNL1        0.0525
      6 N         -11.3186  -18.8993   20.5103 N.pl3   1  UNL1       -0.3565
      7 H         -11.3453  -18.7856   19.5328 H       1  UNL1        0.1424
      8 H         -12.1511  -18.8549   21.0339 H       1  UNL1        0.1424
      9 C          -6.1649  -19.6392   21.3894 C.ar    1  UNL1        0.0060
     10 C          -5.6597  -20.4931   20.2644 C.ar    1  UNL1        0.0005
     11 C          -4.1839  -20.6521   20.0479 C.ar    1  UNL1        0.0000
     12 C          -3.2134  -19.9572   20.9563 C.ar    1  UNL1        0.0000
     13 C          -3.7186  -19.1033   22.0813 C.ar    1  UNL1        0.0000
     14 C          -5.1943  -18.9443   22.2978 C.ar    1  UNL1        0.0005
     15 N         -10.6681  -19.9866   25.0412 N.am    1  UNL1       -0.3249
     16 C         -10.8923  -19.3145   23.7190 C.2     1  UNL1        0.2500
     17 O         -12.1952  -18.6261   23.4390 O.2     1  UNL1       -0.2698
     18 H         -11.3761  -19.9758   25.7252 H       1  UNL1        0.1453
     19 H          -9.8130  -20.4385   25.2250 H       1  UNL1        0.1453
@<TRIPOS>BOND
     1    15    16   am
     2    16    17    2
     3    16     1    1
     4     1     2   ar
     5     2     3   ar
     6     3     9    1
     7     9    10   ar
     8    10    11   ar
     9    11    12   ar
    10    12    13   ar
    11    13    14   ar
    12     3     4   ar
    13     4     5   ar
    14     5     6    1
    15     5     1   ar
    16    14     9   ar
    17    15    18    1
    18    15    19    1
    19     6     7    1
    20     6     8    1
@<TRIPOS>MOLECULE
*****
 19 20 0 0 0
SMALL
GASTEIGER

@<TRIPOS>ATOM
      1 C          -9.4769  -18.0554   21.5505 C.ar    1  UNL1        0.0954
      2 S          -8.3294  -17.7181   22.4556 S.2     1  UNL1       -0.0812
      3 C          -8.8565  -16.8733   23.5775 C.ar    1  UNL1        0.0309
      4 C         -10.3299  -16.6885   23.3656 C.ar    1  UNL1        0.0212
      5 C         -10.7134  -17.4189   22.1129 C.ar    1  UNL1        0.0525
      6 N         -12.0914  -17.4990   21.5257 N.pl3   1  UNL1       -0.3565
      7 H         -12.8432  -17.0451   21.9707 H       1  UNL1        0.1424
      8 H         -12.2439  -18.0055   20.6954 H       1  UNL1        0.1424
      9 C          -8.0515  -16.3120   24.7119 C.ar    1  UNL1        0.0060
     10 C          -6.6734  -15.7758   24.4604 C.ar    1  UNL1        0.0005
     11 C          -5.8685  -15.2145   25.5949 C.ar    1  UNL1        0.0000
     12 C          -6.4417  -15.1894   26.9808 C.ar    1  UNL1        0.0000
     13 C          -7.8198  -15.7257   27.2323 C.ar    1  UNL1        0.0000
     14 C          -8.6247  -16.2870   26.0979 C.ar    1  UNL1        0.0005
     15 N          -8.0761  -19.1287   19.6437 N.am    1  UNL1       -0.3249
     16 C          -9.4014  -18.8835   20.3021 C.2     1  UNL1        0.2500
     17 O         -10.6512  -19.4665   19.7121 O.2     1  UNL1       -0.2698
     18 H          -8.0265  -19.6722   18.8244 H       1  UNL1        0.1453
     19 H          -7.2558  -18.7460   20.0310 H       1  UNL1        0.1453
@<TRIPOS>BOND
     1    15    16   am
     2    16    17    2
     3    16     1    1
     4     1     2   ar
     5     2     3   ar
     6     3     9    1
     7     9    10   ar
     8    10    11   ar
     9    11    12   ar
    10    12    13   ar
    11    13    14   ar
    12     3     4   ar
    13     4     5   ar
    14     5     6    1
    15     5     1   ar
    16    14     9   ar
    17    15    18    1
    18    15    19    1
    19     6     7    1
    20     6     8    1
