@<TRIPOS>MOLECULE
*****
 35 39 0 0 0
SMALL
GASTEIGER

@<TRIPOS>ATOM
      1 N           6.1610   -2.5830   29.5335 N.ar    1  UNL1       -0.3047
      2 C           6.2793   -3.1036   30.9353 C.ar    1  UNL1        0.1441
      3 N           6.7546   -4.5245   30.8634 N.ar    1  UNL1       -0.2267
      4 C           6.9299   -4.8821   29.4172 C.ar    1  UNL1        0.1010
      5 C           7.3762   -6.1453   28.7426 C.ar    1  UNL1        0.0511
      6 C           7.4556   -6.2086   27.2461 C.ar    1  UNL1        0.1522
      7 F           7.9019   -7.4718   26.5714 F       1  UNL1       -0.2032
      8 C           7.0887   -5.0086   26.4242 C.ar    1  UNL1        0.0866
      9 CL          7.1681   -5.0719   24.9276 Cl      1  UNL1       -0.0799
     10 C           6.6424   -3.7455   27.0988 C.ar    1  UNL1        0.0324
     11 C           6.5630   -3.6822   28.5953 C.ar    1  UNL1        0.0802
     12 C           5.9758   -2.3378   32.1888 C.ar    1  UNL1        0.0342
     13 C           4.6030   -2.3972   32.7902 C.ar    1  UNL1        0.0039
     14 C           4.2994   -1.6314   34.0437 C.ar    1  UNL1        0.0115
     15 C           5.3688   -0.8061   34.6959 C.ar    1  UNL1        0.0577
     16 CL          5.0652   -0.0403   35.9494 Cl      1  UNL1       -0.0822
     17 C           6.7416   -0.7467   34.0945 C.ar    1  UNL1        0.0115
     18 C           7.0452   -1.5125   32.8410 C.ar    1  UNL1        0.0039
     19 C           5.7182   -1.2052   29.1392 C.3     1  UNL1        0.1628
     20 C           6.6611   -0.0467   29.2756 C.3     1  UNL1        0.0297
     21 C           6.4975    0.9244   30.4071 C.3     1  UNL1        0.0024
     22 C           7.4403    2.0830   30.5436 C.3     1  UNL1        0.0001
     23 C           8.5469    2.2706   29.5484 C.3     1  UNL1        0.0000
     24 C           8.7106    1.2996   28.4169 C.3     1  UNL1        0.0001
     25 C           7.7677    0.1410   28.2804 C.3     1  UNL1        0.0024
     26 O           3.4722   -1.7053   27.6122 O.2     1  UNL1       -0.2731
     27 C           4.3325   -0.9859   28.6083 C.2     1  UNL1        0.2431
     28 N           3.5164    0.1735   29.0983 N.am    1  UNL1       -0.3044
     29 H           3.8903    0.7904   29.7682 H       1  UNL1        0.1494
     30 C           2.1308    0.3927   28.5674 C.3     1  UNL1        0.0716
     31 C           0.9540   -0.2202   29.2671 C.3     1  UNL1        0.0196
     32 C          -0.4318   -0.0010   28.7363 C.3     1  UNL1        0.0017
     33 C          -0.6408    0.8311   27.5059 C.3     1  UNL1        0.0001
     34 C           0.5361    1.4440   26.8063 C.3     1  UNL1        0.0017
     35 C           1.9218    1.2248   27.3370 C.3     1  UNL1        0.0196
@<TRIPOS>BOND
     1    26    27    2
     2    27    28   am
     3    28    30    1
     4    30    31    1
     5    31    32    1
     6    32    33    1
     7    33    34    1
     8    34    35    1
     9    27    19    1
    10    19    20    1
    11    20    21    1
    12    21    22    1
    13    22    23    1
    14    23    24    1
    15    24    25    1
    16    19     1    1
    17     1     2   ar
    18     2    12    1
    19    12    13   ar
    20    13    14   ar
    21    14    15   ar
    22    15    16    1
    23    15    17   ar
    24    17    18   ar
    25     2     3   ar
    26     3     4   ar
    27     4     5   ar
    28     5     6   ar
    29     6     7    1
    30     6     8   ar
    31     8     9    1
    32     8    10   ar
    33    10    11   ar
    34    35    30    1
    35    25    20    1
    36    11     1   ar
    37    18    12   ar
    38    11     4   ar
    39    28    29    1
@<TRIPOS>MOLECULE
*****
 35 39 0 0 0
SMALL
GASTEIGER

@<TRIPOS>ATOM
      1 N           6.2023   -2.8155   29.6373 N.ar    1  UNL1       -0.3047
      2 C           6.3611   -3.2238   31.0719 C.ar    1  UNL1        0.1441
      3 N           6.9384   -4.6079   31.0987 N.ar    1  UNL1       -0.2267
      4 C           7.1364   -5.0552   29.6807 C.ar    1  UNL1        0.1010
      5 C           7.6722   -6.3280   29.0952 C.ar    1  UNL1        0.0511
      6 C           7.7530   -6.4930   27.6066 C.ar    1  UNL1        0.1522
      7 F           8.2888   -7.7659   27.0210 F       1  UNL1       -0.2032
      8 C           7.2981   -5.3852   26.7034 C.ar    1  UNL1        0.0866
      9 CL          7.3789   -5.5503   25.2146 Cl      1  UNL1       -0.0799
     10 C           6.7623   -4.1124   27.2888 C.ar    1  UNL1        0.0324
     11 C           6.6814   -3.9474   28.7775 C.ar    1  UNL1        0.0802
     12 C           6.0050   -2.3936   32.2694 C.ar    1  UNL1        0.0342
     13 C           7.0458   -1.5322   32.9212 C.ar    1  UNL1        0.0039
     14 C           6.6898   -0.7020   34.1187 C.ar    1  UNL1        0.0115
     15 C           5.2930   -0.7332   34.6645 C.ar    1  UNL1        0.0577
     16 CL          4.9370    0.0969   35.8620 Cl      1  UNL1       -0.0822
     17 C           4.2522   -1.5946   34.0128 C.ar    1  UNL1        0.0115
     18 C           4.6083   -2.4248   32.8153 C.ar    1  UNL1        0.0039
     19 C           5.6596   -1.5054   29.1483 C.3     1  UNL1        0.1628
     20 C           5.9436   -0.2448   29.9099 C.3     1  UNL1        0.0297
     21 C           4.8332    0.4649   30.6265 C.3     1  UNL1        0.0024
     22 C           5.1171    1.7256   31.3881 C.3     1  UNL1        0.0001
     23 C           6.5115    2.2767   31.4330 C.3     1  UNL1        0.0000
     24 C           7.6219    1.5671   30.7164 C.3     1  UNL1        0.0001
     25 C           7.3379    0.3064   29.9548 C.3     1  UNL1        0.0024
     26 O           3.4241   -1.8482   27.5636 O.2     1  UNL1       -0.2731
     27 C           4.8328   -1.4560   27.8976 C.2     1  UNL1        0.2431
     28 N           5.4240   -0.9176   26.6285 N.am    1  UNL1       -0.3044
     29 H           6.3547   -0.5968   26.6164 H       1  UNL1        0.1494
     30 C           4.5972   -0.8682   25.3780 C.3     1  UNL1        0.0716
     31 C           3.6559    0.2764   25.1460 C.3     1  UNL1        0.0196
     32 C           2.8291    0.3259   23.8954 C.3     1  UNL1        0.0017
     33 C           2.9435   -0.7692   22.8768 C.3     1  UNL1        0.0001
     34 C           3.8848   -1.9138   23.1088 C.3     1  UNL1        0.0017
     35 C           4.7117   -1.9634   24.3594 C.3     1  UNL1        0.0196
@<TRIPOS>BOND
     1    26    27    2
     2    27    28   am
     3    28    30    1
     4    30    31    1
     5    31    32    1
     6    32    33    1
     7    33    34    1
     8    34    35    1
     9    27    19    1
    10    19    20    1
    11    20    21    1
    12    21    22    1
    13    22    23    1
    14    23    24    1
    15    24    25    1
    16    19     1    1
    17     1     2   ar
    18     2    12    1
    19    12    13   ar
    20    13    14   ar
    21    14    15   ar
    22    15    16    1
    23    15    17   ar
    24    17    18   ar
    25     2     3   ar
    26     3     4   ar
    27     4     5   ar
    28     5     6   ar
    29     6     7    1
    30     6     8   ar
    31     8     9    1
    32     8    10   ar
    33    10    11   ar
    34    35    30    1
    35    25    20    1
    36    11     1   ar
    37    18    12   ar
    38    11     4   ar
    39    28    29    1
@<TRIPOS>MOLECULE
*****
 35 39 0 0 0
SMALL
GASTEIGER

@<TRIPOS>ATOM
      1 N           5.6240   -1.5418   29.2314 N.ar    1  UNL1       -0.3047
      2 C           4.6006   -0.9158   30.1319 C.ar    1  UNL1        0.1441
      3 N           3.4677   -0.4288   29.2778 N.ar    1  UNL1       -0.2267
      4 C           3.7909   -0.7538   27.8496 C.ar    1  UNL1        0.1010
      5 C           3.0439   -0.5123   26.5715 C.ar    1  UNL1        0.0511
      6 C           3.6295   -0.9586   25.2647 C.ar    1  UNL1        0.1522
      7 F           2.8825   -0.7171   23.9865 F       1  UNL1       -0.2032
      8 C           4.9622   -1.6465   25.2360 C.ar    1  UNL1        0.0866
      9 CL          5.5478   -2.0929   23.9291 Cl      1  UNL1       -0.0799
     10 C           5.7092   -1.8881   26.5141 C.ar    1  UNL1        0.0324
     11 C           5.1236   -1.4417   27.8209 C.ar    1  UNL1        0.0802
     12 C           4.6938   -0.7975   31.6243 C.ar    1  UNL1        0.0342
     13 C           4.3378   -1.9674   32.4930 C.ar    1  UNL1        0.0039
     14 C           4.4310   -1.8491   33.9855 C.ar    1  UNL1        0.0115
     15 C           4.8801   -0.5610   34.6092 C.ar    1  UNL1        0.0577
     16 CL          4.9733   -0.4428   36.1016 Cl      1  UNL1       -0.0822
     17 C           5.2361    0.6088   33.7404 C.ar    1  UNL1        0.0115
     18 C           5.1429    0.4906   32.2480 C.ar    1  UNL1        0.0039
     19 C           6.9202   -2.1595   29.6653 C.3     1  UNL1        0.1628
     20 C           7.6914   -1.5622   30.8047 C.3     1  UNL1        0.0297
     21 C           7.8912   -2.3462   32.0678 C.3     1  UNL1        0.0024
     22 C           8.6624   -1.7490   33.2073 C.3     1  UNL1        0.0001
     23 C           9.2339   -0.3676   33.0837 C.3     1  UNL1        0.0000
     24 C           9.0341    0.4164   31.8206 C.3     1  UNL1        0.0001
     25 C           8.2629   -0.1809   30.6811 C.3     1  UNL1        0.0024
     26 O           8.6894   -3.6676   28.1745 O.2     1  UNL1       -0.2731
     27 C           7.4453   -3.3747   28.9596 C.2     1  UNL1        0.2431
     28 N           6.6490   -4.6459   28.9619 N.am    1  UNL1       -0.3044
     29 H           5.7818   -4.6828   29.4266 H       1  UNL1        0.1494
     30 C           7.1741   -5.8609   28.2563 C.3     1  UNL1        0.0716
     31 C           8.1446   -6.7702   28.9501 C.3     1  UNL1        0.0196
     32 C           8.6698   -7.9854   28.2445 C.3     1  UNL1        0.0017
     33 C           8.2244   -8.2911   26.8452 C.3     1  UNL1        0.0001
     34 C           7.2539   -7.3818   26.1515 C.3     1  UNL1        0.0017
     35 C           6.7287   -6.1667   26.8570 C.3     1  UNL1        0.0196
@<TRIPOS>BOND
     1    26    27    2
     2    27    28   am
     3    28    30    1
     4    30    31    1
     5    31    32    1
     6    32    33    1
     7    33    34    1
     8    34    35    1
     9    27    19    1
    10    19    20    1
    11    20    21    1
    12    21    22    1
    13    22    23    1
    14    23    24    1
    15    24    25    1
    16    19     1    1
    17     1     2   ar
    18     2    12    1
    19    12    13   ar
    20    13    14   ar
    21    14    15   ar
    22    15    16    1
    23    15    17   ar
    24    17    18   ar
    25     2     3   ar
    26     3     4   ar
    27     4     5   ar
    28     5     6   ar
    29     6     7    1
    30     6     8   ar
    31     8     9    1
    32     8    10   ar
    33    10    11   ar
    34    35    30    1
    35    25    20    1
    36    11     1   ar
    37    18    12   ar
    38    11     4   ar
    39    28    29    1
@<TRIPOS>MOLECULE
*****
 35 39 0 0 0
SMALL
GASTEIGER

@<TRIPOS>ATOM
      1 N           4.4687    0.8714   33.9644 N.ar    1  UNL1       -0.3047
      2 C           5.2206   -0.3238   34.4706 C.ar    1  UNL1        0.1441
      3 N           5.0087   -0.4108   35.9530 N.ar    1  UNL1       -0.2267
      4 C           4.1259    0.7305   36.3630 C.ar    1  UNL1        0.1010
      5 C           3.5828    1.1505   37.6966 C.ar    1  UNL1        0.0511
      6 C           2.7059    2.3630   37.8011 C.ar    1  UNL1        0.1522
      7 F           2.1628    2.7830   39.1348 F       1  UNL1       -0.2032
      8 C           2.3722    3.1554   36.5721 C.ar    1  UNL1        0.0866
      9 CL          1.4953    4.3680   36.6767 Cl      1  UNL1       -0.0799
     10 C           2.9153    2.7354   35.2384 C.ar    1  UNL1        0.0324
     11 C           3.7921    1.5229   35.1339 C.ar    1  UNL1        0.0802
     12 C           6.0404   -1.2663   33.6403 C.ar    1  UNL1        0.0342
     13 C           7.5267   -1.0859   33.5480 C.ar    1  UNL1        0.0039
     14 C           8.3465   -2.0284   32.7177 C.ar    1  UNL1        0.0115
     15 C           7.6801   -3.1514   31.9796 C.ar    1  UNL1        0.0577
     16 CL          8.4999   -4.0939   31.1492 Cl      1  UNL1       -0.0822
     17 C           6.1939   -3.3318   32.0719 C.ar    1  UNL1        0.0115
     18 C           5.3741   -2.3893   32.9022 C.ar    1  UNL1        0.0039
     19 C           4.4046    1.3338   32.5389 C.3     1  UNL1        0.1628
     20 C           5.6432    1.8328   31.8559 C.3     1  UNL1        0.0297
     21 C           6.1642    3.2069   32.1573 C.3     1  UNL1        0.0024
     22 C           7.4029    3.7060   31.4743 C.3     1  UNL1        0.0001
     23 C           8.1207    2.8310   30.4897 C.3     1  UNL1        0.0000
     24 C           7.5998    1.4571   30.1883 C.3     1  UNL1        0.0001
     25 C           6.3611    0.9580   30.8713 C.3     1  UNL1        0.0024
     26 O           1.6626    1.3711   32.2128 O.2     1  UNL1       -0.2731
     27 C           3.1017    1.2972   31.7964 C.2     1  UNL1        0.2431
     28 N           3.0933    1.1594   30.3027 N.am    1  UNL1       -0.3044
     29 H           3.9429    1.0930   29.8097 H       1  UNL1        0.1494
     30 C           1.7905    1.1228   29.5603 C.3     1  UNL1        0.0716
     31 C           1.0532   -0.1739   29.4029 C.3     1  UNL1        0.0196
     32 C          -0.2498   -0.2106   28.6605 C.3     1  UNL1        0.0017
     33 C          -0.8154    1.0495   28.0755 C.3     1  UNL1        0.0001
     34 C          -0.0780    2.3463   28.2329 C.3     1  UNL1        0.0017
     35 C           1.2249    2.3830   28.9753 C.3     1  UNL1        0.0196
@<TRIPOS>BOND
     1    26    27    2
     2    27    28   am
     3    28    30    1
     4    30    31    1
     5    31    32    1
     6    32    33    1
     7    33    34    1
     8    34    35    1
     9    27    19    1
    10    19    20    1
    11    20    21    1
    12    21    22    1
    13    22    23    1
    14    23    24    1
    15    24    25    1
    16    19     1    1
    17     1     2   ar
    18     2    12    1
    19    12    13   ar
    20    13    14   ar
    21    14    15   ar
    22    15    16    1
    23    15    17   ar
    24    17    18   ar
    25     2     3   ar
    26     3     4   ar
    27     4     5   ar
    28     5     6   ar
    29     6     7    1
    30     6     8   ar
    31     8     9    1
    32     8    10   ar
    33    10    11   ar
    34    35    30    1
    35    25    20    1
    36    11     1   ar
    37    18    12   ar
    38    11     4   ar
    39    28    29    1
@<TRIPOS>MOLECULE
*****
 35 39 0 0 0
SMALL
GASTEIGER

@<TRIPOS>ATOM
      1 N           1.0746    2.1022   20.3861 N.ar    1  UNL1       -0.3047
      2 C           1.5925    2.2394   18.9851 C.ar    1  UNL1        0.1441
      3 N           0.5524    2.9540   18.1743 N.ar    1  UNL1       -0.2267
      4 C          -0.6085    3.2584   19.0742 C.ar    1  UNL1        0.1010
      5 C          -1.9177    3.9469   18.8255 C.ar    1  UNL1        0.0511
      6 C          -2.9041    4.1090   19.9438 C.ar    1  UNL1        0.1522
      7 F          -4.2134    4.7976   19.6952 F       1  UNL1       -0.2032
      8 C          -2.5814    3.5825   21.3108 C.ar    1  UNL1        0.0866
      9 CL         -3.5679    3.7446   22.4292 Cl      1  UNL1       -0.0799
     10 C          -1.2722    2.8940   21.5595 C.ar    1  UNL1        0.0324
     11 C          -0.2857    2.7319   20.4412 C.ar    1  UNL1        0.0802
     12 C           2.9179    1.7483   18.4830 C.ar    1  UNL1        0.0342
     13 C           4.1391    2.6077   18.6253 C.ar    1  UNL1        0.0039
     14 C           5.4645    2.1165   18.1233 C.ar    1  UNL1        0.0115
     15 C           5.5688    0.7661   17.4789 C.ar    1  UNL1        0.0577
     16 CL          6.8942    0.2749   16.9768 Cl      1  UNL1       -0.0822
     17 C           4.3477   -0.0933   17.3366 C.ar    1  UNL1        0.0115
     18 C           3.0222    0.3978   17.8387 C.ar    1  UNL1        0.0039
     19 C           1.7911    1.4497   21.5311 C.3     1  UNL1        0.1628
     20 C           2.7820    0.3545   21.2695 C.3     1  UNL1        0.0297
     21 C           2.3104   -0.9819   20.7778 C.3     1  UNL1        0.0024
     22 C           3.3013   -2.0772   20.5162 C.3     1  UNL1        0.0001
     23 C           4.7639   -1.8361   20.7463 C.3     1  UNL1        0.0000
     24 C           5.2354   -0.4998   21.2380 C.3     1  UNL1        0.0001
     25 C           4.2445    0.5955   21.4996 C.3     1  UNL1        0.0024
     26 O           1.7920    3.1507   23.7067 O.2     1  UNL1       -0.2731
     27 C           1.5166    1.8925   22.9378 C.2     1  UNL1        0.2431
     28 N           0.8183    0.9694   23.8919 N.am    1  UNL1       -0.3044
     29 H           0.5401    0.0730   23.5949 H       1  UNL1        0.1494
     30 C           0.5439    1.4123   25.2985 C.3     1  UNL1        0.0716
     31 C          -0.7614    2.0695   25.6366 C.3     1  UNL1        0.0196
     32 C          -1.0359    2.5124   27.0433 C.3     1  UNL1        0.0017
     33 C          -0.0051    2.2981   28.1117 C.3     1  UNL1        0.0001
     34 C           1.3001    1.6409   27.7735 C.3     1  UNL1        0.0017
     35 C           1.5746    1.1980   26.3669 C.3     1  UNL1        0.0196
@<TRIPOS>BOND
     1    26    27    2
     2    27    28   am
     3    28    30    1
     4    30    31    1
     5    31    32    1
     6    32    33    1
     7    33    34    1
     8    34    35    1
     9    27    19    1
    10    19    20    1
    11    20    21    1
    12    21    22    1
    13    22    23    1
    14    23    24    1
    15    24    25    1
    16    19     1    1
    17     1     2   ar
    18     2    12    1
    19    12    13   ar
    20    13    14   ar
    21    14    15   ar
    22    15    16    1
    23    15    17   ar
    24    17    18   ar
    25     2     3   ar
    26     3     4   ar
    27     4     5   ar
    28     5     6   ar
    29     6     7    1
    30     6     8   ar
    31     8     9    1
    32     8    10   ar
    33    10    11   ar
    34    35    30    1
    35    25    20    1
    36    11     1   ar
    37    18    12   ar
    38    11     4   ar
    39    28    29    1
@<TRIPOS>MOLECULE
*****
 35 39 0 0 0
SMALL
GASTEIGER

@<TRIPOS>ATOM
      1 N          -1.3628    3.3394   21.5690 N.ar    1  UNL1       -0.3047
      2 C          -2.6699    4.0637   21.4392 C.ar    1  UNL1        0.1441
      3 N          -3.2384    4.2441   22.8154 N.ar    1  UNL1       -0.2267
      4 C          -2.2827    3.6314   23.7958 C.ar    1  UNL1        0.1010
      5 C          -2.3183    3.5103   25.2905 C.ar    1  UNL1        0.0511
      6 C          -1.1946    2.8301   26.0148 C.ar    1  UNL1        0.1522
      7 F          -1.2301    2.7091   27.5095 F       1  UNL1       -0.2032
      8 C          -0.0353    2.2710   25.2444 C.ar    1  UNL1        0.0866
      9 CL          1.0884    1.5908   25.9687 Cl      1  UNL1       -0.0799
     10 C           0.0002    2.3920   23.7497 C.ar    1  UNL1        0.0324
     11 C          -1.1235    3.0722   23.0255 C.ar    1  UNL1        0.0802
     12 C          -3.2982    4.5263   20.1580 C.ar    1  UNL1        0.0342
     13 C          -3.1106    5.9419   19.6991 C.ar    1  UNL1        0.0039
     14 C          -3.7389    6.4045   18.4180 C.ar    1  UNL1        0.0115
     15 C          -4.5547    5.4515   17.5958 C.ar    1  UNL1        0.0577
     16 CL         -5.1829    5.9141   16.3146 Cl      1  UNL1       -0.0822
     17 C          -4.7422    4.0358   18.0547 C.ar    1  UNL1        0.0115
     18 C          -4.1139    3.5732   19.3358 C.ar    1  UNL1        0.0039
     19 C          -0.4544    2.9505   20.4404 C.3     1  UNL1        0.1628
     20 C          -0.2541    3.8836   19.2833 C.3     1  UNL1        0.0297
     21 C          -0.7425    3.5006   17.9176 C.3     1  UNL1        0.0024
     22 C          -0.5421    4.4337   16.7604 C.3     1  UNL1        0.0001
     23 C           0.1466    5.7499   16.9687 C.3     1  UNL1        0.0000
     24 C           0.6350    6.1329   18.3343 C.3     1  UNL1        0.0001
     25 C           0.4347    5.1998   19.4915 C.3     1  UNL1        0.0024
     26 O          -0.2047    0.2022   20.5441 O.2     1  UNL1       -0.2731
     27 C           0.2537    1.6284   20.4690 C.2     1  UNL1        0.2431
     28 N           1.7520    1.5788   20.4169 N.am    1  UNL1       -0.3044
     29 H           2.2707    2.4139   20.3640 H       1  UNL1        0.1494
     30 C           2.4600    0.2568   20.4456 C.3     1  UNL1        0.0716
     31 C           2.8368   -0.3639   21.7581 C.3     1  UNL1        0.0196
     32 C           3.5449   -1.6860   21.7869 C.3     1  UNL1        0.0017
     33 C           3.8761   -2.3875   20.5030 C.3     1  UNL1        0.0001
     34 C           3.4992   -1.7667   19.1905 C.3     1  UNL1        0.0017
     35 C           2.7912   -0.4447   19.1617 C.3     1  UNL1        0.0196
@<TRIPOS>BOND
     1    26    27    2
     2    27    28   am
     3    28    30    1
     4    30    31    1
     5    31    32    1
     6    32    33    1
     7    33    34    1
     8    34    35    1
     9    27    19    1
    10    19    20    1
    11    20    21    1
    12    21    22    1
    13    22    23    1
    14    23    24    1
    15    24    25    1
    16    19     1    1
    17     1     2   ar
    18     2    12    1
    19    12    13   ar
    20    13    14   ar
    21    14    15   ar
    22    15    16    1
    23    15    17   ar
    24    17    18   ar
    25     2     3   ar
    26     3     4   ar
    27     4     5   ar
    28     5     6   ar
    29     6     7    1
    30     6     8   ar
    31     8     9    1
    32     8    10   ar
    33    10    11   ar
    34    35    30    1
    35    25    20    1
    36    11     1   ar
    37    18    12   ar
    38    11     4   ar
    39    28    29    1
@<TRIPOS>MOLECULE
*****
 35 39 0 0 0
SMALL
GASTEIGER

@<TRIPOS>ATOM
      1 N           6.6530   -3.2465   22.5456 N.ar    1  UNL1       -0.3047
      2 C           7.4529   -3.2532   21.2767 C.ar    1  UNL1        0.1441
      3 N           8.4178   -4.3998   21.3431 N.ar    1  UNL1       -0.2267
      4 C           8.2143   -5.1016   22.6531 C.ar    1  UNL1        0.1010
      5 C           8.8812   -6.2976   23.2652 C.ar    1  UNL1        0.0511
      6 C           8.4574   -6.7808   24.6205 C.ar    1  UNL1        0.1522
      7 F           9.1244   -7.9769   25.2327 F       1  UNL1       -0.2032
      8 C           7.3668   -6.0680   25.3637 C.ar    1  UNL1        0.0866
      9 CL          6.9430   -6.5513   26.7191 Cl      1  UNL1       -0.0799
     10 C           6.6998   -4.8720   24.7516 C.ar    1  UNL1        0.0324
     11 C           7.1236   -4.3888   23.3963 C.ar    1  UNL1        0.0802
     12 C           7.3125   -2.2837   20.1408 C.ar    1  UNL1        0.0342
     13 C           6.5515   -2.6764   18.9093 C.ar    1  UNL1        0.0039
     14 C           6.4111   -1.7069   17.7734 C.ar    1  UNL1        0.0115
     15 C           7.0317   -0.3446   17.8690 C.ar    1  UNL1        0.0577
     16 CL          6.8913    0.6249   16.7330 Cl      1  UNL1       -0.0822
     17 C           7.7927    0.0480   19.1005 C.ar    1  UNL1        0.0115
     18 C           7.9331   -0.9215   20.2364 C.ar    1  UNL1        0.0039
     19 C           5.5723   -2.2690   22.9015 C.3     1  UNL1        0.1628
     20 C           5.5279   -1.6670   24.2746 C.3     1  UNL1        0.0297
     21 C           6.7622   -1.0508   24.8637 C.3     1  UNL1        0.0024
     22 C           6.7178   -0.4487   26.2368 C.3     1  UNL1        0.0001
     23 C           5.4391   -0.4629   27.0209 C.3     1  UNL1        0.0000
     24 C           4.2049   -1.0790   26.4319 C.3     1  UNL1        0.0001
     25 C           4.2493   -1.6810   25.0587 C.3     1  UNL1        0.0024
     26 O           3.6597   -2.6760   20.9515 O.2     1  UNL1       -0.2731
     27 C           4.5360   -1.8935   21.8840 C.2     1  UNL1        0.2431
     28 N           4.2061   -0.4495   21.6472 N.am    1  UNL1       -0.3044
     29 H           4.6697    0.2518   22.1595 H       1  UNL1        0.1494
     30 C           3.1698   -0.0740   20.6299 C.3     1  UNL1        0.0716
     31 C           3.5851    0.2876   19.2346 C.3     1  UNL1        0.0196
     32 C           2.5487    0.6631   18.2171 C.3     1  UNL1        0.0017
     33 C           1.0972    0.6768   18.5949 C.3     1  UNL1        0.0001
     34 C           0.6820    0.3152   19.9903 C.3     1  UNL1        0.0017
     35 C           1.7182   -0.0603   21.0077 C.3     1  UNL1        0.0196
@<TRIPOS>BOND
     1    26    27    2
     2    27    28   am
     3    28    30    1
     4    30    31    1
     5    31    32    1
     6    32    33    1
     7    33    34    1
     8    34    35    1
     9    27    19    1
    10    19    20    1
    11    20    21    1
    12    21    22    1
    13    22    23    1
    14    23    24    1
    15    24    25    1
    16    19     1    1
    17     1     2   ar
    18     2    12    1
    19    12    13   ar
    20    13    14   ar
    21    14    15   ar
    22    15    16    1
    23    15    17   ar
    24    17    18   ar
    25     2     3   ar
    26     3     4   ar
    27     4     5   ar
    28     5     6   ar
    29     6     7    1
    30     6     8   ar
    31     8     9    1
    32     8    10   ar
    33    10    11   ar
    34    35    30    1
    35    25    20    1
    36    11     1   ar
    37    18    12   ar
    38    11     4   ar
    39    28    29    1
@<TRIPOS>MOLECULE
*****
 35 39 0 0 0
SMALL
GASTEIGER

@<TRIPOS>ATOM
      1 N          -1.4329    3.2933   22.4459 N.ar    1  UNL1       -0.3047
      2 C          -1.4153    2.7969   21.0305 C.ar    1  UNL1        0.1441
      3 N          -2.8234    2.8188   20.5142 N.ar    1  UNL1       -0.2267
      4 C          -3.7113    3.3287   21.6105 C.ar    1  UNL1        0.1010
      5 C          -5.1913    3.5638   21.6758 C.ar    1  UNL1        0.0511
      6 C          -5.8118    4.0922   22.9350 C.ar    1  UNL1        0.1522
      7 F          -7.2919    4.3274   23.0004 F       1  UNL1       -0.2032
      8 C          -4.9524    4.3854   24.1289 C.ar    1  UNL1        0.0866
      9 CL         -5.5730    4.9138   25.3882 Cl      1  UNL1       -0.0799
     10 C          -3.4724    4.1503   24.0636 C.ar    1  UNL1        0.0324
     11 C          -2.8518    3.6219   22.8043 C.ar    1  UNL1        0.0802
     12 C          -0.2025    2.3561   20.2658 C.ar    1  UNL1        0.0342
     13 C           0.2156    0.9158   20.2881 C.ar    1  UNL1        0.0039
     14 C           1.4284    0.4750   19.5233 C.ar    1  UNL1        0.0115
     15 C           2.2230    1.4745   18.7362 C.ar    1  UNL1        0.0577
     16 CL          3.4358    1.0336   17.9714 Cl      1  UNL1       -0.0822
     17 C           1.8048    2.9148   18.7139 C.ar    1  UNL1        0.0115
     18 C           0.5921    3.3556   19.4787 C.ar    1  UNL1        0.0039
     19 C          -0.2407    3.4359   23.3451 C.3     1  UNL1        0.1628
     20 C           0.7011    4.5893   23.1646 C.3     1  UNL1        0.0297
     21 C           0.2231    5.9917   23.3991 C.3     1  UNL1        0.0024
     22 C           1.1649    7.1452   23.2186 C.3     1  UNL1        0.0001
     23 C           2.5847    6.8962   22.8038 C.3     1  UNL1        0.0000
     24 C           3.0627    5.4939   22.5694 C.3     1  UNL1        0.0001
     25 C           2.1209    4.3404   22.7498 C.3     1  UNL1        0.0024
     26 O           0.2963    0.9527   24.4276 O.2     1  UNL1       -0.2731
     27 C           0.0096    2.4251   24.4248 C.2     1  UNL1        0.2431
     28 N          -0.0010    2.8469   25.8642 N.am    1  UNL1       -0.3044
     29 H          -0.1722    3.7872   26.1003 H       1  UNL1        0.1494
     30 C           0.2494    1.8361   26.9438 C.3     1  UNL1        0.0716
     31 C          -0.9064    1.1838   27.6429 C.3     1  UNL1        0.0196
     32 C          -0.6561    0.1729   28.7226 C.3     1  UNL1        0.0017
     33 C           0.7499   -0.1857   29.1030 C.3     1  UNL1        0.0001
     34 C           1.9055    0.4667   28.4038 C.3     1  UNL1        0.0017
     35 C           1.6553    1.4776   27.3242 C.3     1  UNL1        0.0196
@<TRIPOS>BOND
     1    26    27    2
     2    27    28   am
     3    28    30    1
     4    30    31    1
     5    31    32    1
     6    32    33    1
     7    33    34    1
     8    34    35    1
     9    27    19    1
    10    19    20    1
    11    20    21    1
    12    21    22    1
    13    22    23    1
    14    23    24    1
    15    24    25    1
    16    19     1    1
    17     1     2   ar
    18     2    12    1
    19    12    13   ar
    20    13    14   ar
    21    14    15   ar
    22    15    16    1
    23    15    17   ar
    24    17    18   ar
    25     2     3   ar
    26     3     4   ar
    27     4     5   ar
    28     5     6   ar
    29     6     7    1
    30     6     8   ar
    31     8     9    1
    32     8    10   ar
    33    10    11   ar
    34    35    30    1
    35    25    20    1
    36    11     1   ar
    37    18    12   ar
    38    11     4   ar
    39    28    29    1
@<TRIPOS>MOLECULE
*****
 35 39 0 0 0
SMALL
GASTEIGER

@<TRIPOS>ATOM
      1 N           6.8717   -3.0923   22.1973 N.ar    1  UNL1       -0.3047
      2 C           7.5640   -3.0793   20.8667 C.ar    1  UNL1        0.1441
      3 N           8.4556   -4.2835   20.7963 N.ar    1  UNL1       -0.2267
      4 C           8.3143   -5.0407   22.0834 C.ar    1  UNL1        0.1010
      5 C           8.9505   -6.3055   22.5788 C.ar    1  UNL1        0.0511
      6 C           8.6078   -6.8341   23.9401 C.ar    1  UNL1        0.1522
      7 F           9.2441   -8.0990   24.4356 F       1  UNL1       -0.2032
      8 C           7.6289   -6.0979   24.8059 C.ar    1  UNL1        0.0866
      9 CL          7.2862   -6.6266   26.1673 Cl      1  UNL1       -0.0799
     10 C           6.9926   -4.8332   24.3105 C.ar    1  UNL1        0.0324
     11 C           7.3353   -4.3046   22.9493 C.ar    1  UNL1        0.0802
     12 C           7.3945   -2.0438   19.7947 C.ar    1  UNL1        0.0342
     13 C           6.4619   -2.2975   18.6476 C.ar    1  UNL1        0.0039
     14 C           6.2925   -1.2621   17.5756 C.ar    1  UNL1        0.0115
     15 C           7.0556    0.0271   17.6508 C.ar    1  UNL1        0.0577
     16 CL          6.8861    1.0625   16.5788 Cl      1  UNL1       -0.0822
     17 C           7.9881    0.2808   18.7979 C.ar    1  UNL1        0.0115
     18 C           8.1576   -0.7546   19.8698 C.ar    1  UNL1        0.0039
     19 C           5.8883   -2.0722   22.6895 C.3     1  UNL1        0.1628
     20 C           4.8861   -1.4793   21.7441 C.3     1  UNL1        0.0297
     21 C           4.9144   -0.0094   21.4459 C.3     1  UNL1        0.0024
     22 C           3.9122    0.5836   20.5005 C.3     1  UNL1        0.0001
     23 C           2.8815   -0.2932   19.8532 C.3     1  UNL1        0.0000
     24 C           2.8531   -1.7630   20.1514 C.3     1  UNL1        0.0001
     25 C           3.8554   -2.3560   21.0968 C.3     1  UNL1        0.0024
     26 O           6.7993   -0.7518   24.9375 O.2     1  UNL1       -0.2731
     27 C           5.9071   -1.6450   24.1274 C.2     1  UNL1        0.2431
     28 N           4.8581   -2.1495   25.0735 N.am    1  UNL1       -0.3044
     29 H           4.1573   -2.7610   24.7508 H       1  UNL1        0.1494
     30 C           4.8770   -1.7223   26.5112 C.3     1  UNL1        0.0716
     31 C           5.7849   -2.4113   27.4864 C.3     1  UNL1        0.0196
     32 C           5.8039   -1.9841   28.9242 C.3     1  UNL1        0.0017
     33 C           4.9149   -0.8679   29.3868 C.3     1  UNL1        0.0001
     34 C           4.0070   -0.1790   28.4115 C.3     1  UNL1        0.0017
     35 C           3.9880   -0.6062   26.9738 C.3     1  UNL1        0.0196
@<TRIPOS>BOND
     1    26    27    2
     2    27    28   am
     3    28    30    1
     4    30    31    1
     5    31    32    1
     6    32    33    1
     7    33    34    1
     8    34    35    1
     9    27    19    1
    10    19    20    1
    11    20    21    1
    12    21    22    1
    13    22    23    1
    14    23    24    1
    15    24    25    1
    16    19     1    1
    17     1     2   ar
    18     2    12    1
    19    12    13   ar
    20    13    14   ar
    21    14    15   ar
    22    15    16    1
    23    15    17   ar
    24    17    18   ar
    25     2     3   ar
    26     3     4   ar
    27     4     5   ar
    28     5     6   ar
    29     6     7    1
    30     6     8   ar
    31     8     9    1
    32     8    10   ar
    33    10    11   ar
    34    35    30    1
    35    25    20    1
    36    11     1   ar
    37    18    12   ar
    38    11     4   ar
    39    28    29    1
