@<TRIPOS>MOLECULE
*****
 31 34 0 0 0
SMALL
GASTEIGER

@<TRIPOS>ATOM
      1 C          -6.6779  -16.4803   23.9865 C.3     1  UNL1        0.1025
      2 C          -7.7825  -15.9183   24.8313 C.3     1  UNL1        0.0259
      3 C          -9.2136  -16.1797   24.4656 C.3     1  UNL1        0.0450
      4 C          -9.5399  -17.0033   23.2551 C.ar    1  UNL1        0.0336
      5 C         -10.8463  -17.4254   22.6507 C.ar    1  UNL1       -0.0035
      6 C         -10.5490  -18.2483   21.4324 C.ar    1  UNL1        0.0156
      7 C         -11.4426  -18.9300   20.4390 C.ar    1  UNL1        0.0036
      8 C         -10.8461  -19.6983   19.2971 C.ar    1  UNL1        0.0321
      9 C          -9.3559  -19.7848   19.1485 C.ar    1  UNL1        0.1688
     10 F          -8.7594  -20.5531   18.0066 F       1  UNL1       -0.2017
     11 C          -8.4623  -19.1030   20.1419 C.ar    1  UNL1        0.1830
     12 F          -6.9722  -19.1896   19.9932 F       1  UNL1       -0.2003
     13 C          -9.0589  -18.3348   21.2838 C.ar    1  UNL1        0.0894
     14 N          -8.4352  -17.5653   22.4103 N.ar    1  UNL1       -0.3277
     15 C          -7.0042  -17.3039   22.7760 C.3     1  UNL1        0.1234
     16 C          -4.9166  -15.5251   25.6404 C.3     1  UNL1        0.1149
     17 N          -5.2468  -16.2188   24.3521 N.3     1  UNL1       -0.1535
     18 S          -4.1459  -16.6512   23.4295 S.O2    1  UNL1        0.0633
     19 O          -4.1502  -15.2949   22.7888 O.2     1  UNL1       -0.1528
     20 O          -4.1416  -18.0075   24.0702 O.2     1  UNL1       -0.1528
     21 C          -3.0451  -17.0835   22.5069 C.ar    1  UNL1        0.1223
     22 C          -2.7866  -18.5435   22.2801 C.ar    1  UNL1        0.0222
     23 C          -1.6858  -18.9759   21.3575 C.ar    1  UNL1        0.0310
     24 C          -0.8434  -17.9482   20.6616 C.ar    1  UNL1        0.1402
     25 F           0.2574  -18.3805   19.7390 F       1  UNL1       -0.2042
     26 C          -1.1019  -16.4881   20.8884 C.ar    1  UNL1        0.0310
     27 C          -2.2027  -16.0557   21.8110 C.ar    1  UNL1        0.0222
     28 C         -12.2105  -17.0844   23.1730 C.3     1  UNL1        0.0691
     29 C         -12.9432  -18.0574   24.0484 C.2     1  UNL1        0.0548
     30 O         -12.1783  -18.9611   24.9693 O.co2   1  UNL1       -0.5488
     31 O         -14.4409  -18.1266   24.0028 O.co2   1  UNL1       -0.5488
@<TRIPOS>UNITY_ATOM_ATTR
30 1
charge -1
@<TRIPOS>BOND
     1    16    17    1
     2     1    17    1
     3     1     2    1
     4     2     3    1
     5     3     4    1
     6     4     5   ar
     7     5    28    1
     8    28    29    1
     9    29    30   ar
    10    29    31   ar
    11     5     6   ar
    12     6     7   ar
    13     7     8   ar
    14     8     9   ar
    15     9    10    1
    16     9    11   ar
    17    11    12    1
    18    11    13   ar
    19    13    14   ar
    20    14    15    1
    21    17    18    1
    22    18    19    2
    23    18    20    2
    24    18    21    1
    25    21    22   ar
    26    22    23   ar
    27    23    24   ar
    28    24    25    1
    29    24    26   ar
    30    26    27   ar
    31    15     1    1
    32    27    21   ar
    33    14     4   ar
    34    13     6   ar
@<TRIPOS>MOLECULE
*****
 31 34 0 0 0
SMALL
GASTEIGER

@<TRIPOS>ATOM
      1 C          -6.7079  -19.4387   20.9377 C.3     1  UNL1        0.1025
      2 C          -8.1108  -19.6540   20.4525 C.3     1  UNL1        0.0259
      3 C          -9.2527  -18.9496   21.1233 C.3     1  UNL1        0.0450
      4 C          -8.9916  -18.0300   22.2792 C.ar    1  UNL1        0.0336
      5 C          -9.9089  -17.2048   23.1323 C.ar    1  UNL1       -0.0035
      6 C          -9.0728  -16.4795   24.1447 C.ar    1  UNL1        0.0156
      7 C          -9.4319  -15.5246   25.2443 C.ar    1  UNL1        0.0036
      8 C          -8.3571  -14.9465   26.1165 C.ar    1  UNL1        0.0321
      9 C          -6.9231  -15.3235   25.8891 C.ar    1  UNL1        0.1688
     10 F          -5.8483  -14.7455   26.7612 F       1  UNL1       -0.2017
     11 C          -6.5640  -16.2785   24.7894 C.ar    1  UNL1        0.1830
     12 F          -5.1300  -16.6554   24.5621 F       1  UNL1       -0.2003
     13 C          -7.6388  -16.8565   23.9173 C.ar    1  UNL1        0.0894
     14 N          -7.5887  -17.8147   22.7644 N.ar    1  UNL1       -0.3277
     15 C          -6.4468  -18.5191   22.0936 C.3     1  UNL1        0.1234
     16 C          -5.7714  -21.5026   19.6674 C.3     1  UNL1        0.1149
     17 N          -5.5659  -20.1431   20.2669 N.3     1  UNL1       -0.1535
     18 S          -4.2185  -19.4878   20.1956 S.O2    1  UNL1        0.0633
     19 O          -4.7883  -18.4114   19.3200 O.2     1  UNL1       -0.1528
     20 O          -3.6487  -20.5642   21.0712 O.2     1  UNL1       -0.1528
     21 C          -2.8711  -18.8326   20.1243 C.ar    1  UNL1        0.1223
     22 C          -2.0932  -18.5785   21.3814 C.ar    1  UNL1        0.0222
     23 C          -0.7457  -17.9233   21.3101 C.ar    1  UNL1        0.0310
     24 C          -0.1762  -17.5221   19.9817 C.ar    1  UNL1        0.1402
     25 F           1.1712  -16.8668   19.9104 F       1  UNL1       -0.2042
     26 C          -0.9541  -17.7761   18.7245 C.ar    1  UNL1        0.0310
     27 C          -2.3016  -18.4314   18.7958 C.ar    1  UNL1        0.0222
     28 C         -11.4003  -17.1198   22.9968 C.3     1  UNL1        0.0691
     29 C         -12.2782  -18.0616   23.7665 C.2     1  UNL1        0.0548
     30 O         -11.6640  -19.1081   24.6483 O.co2   1  UNL1       -0.5488
     31 O         -13.7703  -17.9568   23.6543 O.co2   1  UNL1       -0.5488
@<TRIPOS>UNITY_ATOM_ATTR
30 1
charge -1
@<TRIPOS>BOND
     1    16    17    1
     2     1    17    1
     3     1     2    1
     4     2     3    1
     5     3     4    1
     6     4     5   ar
     7     5    28    1
     8    28    29    1
     9    29    30   ar
    10    29    31   ar
    11     5     6   ar
    12     6     7   ar
    13     7     8   ar
    14     8     9   ar
    15     9    10    1
    16     9    11   ar
    17    11    12    1
    18    11    13   ar
    19    13    14   ar
    20    14    15    1
    21    17    18    1
    22    18    19    2
    23    18    20    2
    24    18    21    1
    25    21    22   ar
    26    22    23   ar
    27    23    24   ar
    28    24    25    1
    29    24    26   ar
    30    26    27   ar
    31    15     1    1
    32    27    21   ar
    33    14     4   ar
    34    13     6   ar
@<TRIPOS>MOLECULE
*****
 31 34 0 0 0
SMALL
GASTEIGER

@<TRIPOS>ATOM
      1 C           0.5816    2.2892   19.9784 C.3     1  UNL1        0.1025
      2 C           0.8176    1.7437   18.6012 C.3     1  UNL1        0.0259
      3 C           1.6732    0.5261   18.4133 C.3     1  UNL1        0.0450
      4 C           2.2927   -0.1460   19.6026 C.ar    1  UNL1        0.0336
      5 C           3.1757   -1.3523   19.7267 C.ar    1  UNL1       -0.0035
      6 C           3.4853   -1.5524   21.1807 C.ar    1  UNL1        0.0156
      7 C           4.3076   -2.5804   21.8996 C.ar    1  UNL1        0.0036
      8 C           4.4384   -2.5259   23.3930 C.ar    1  UNL1        0.0321
      9 C           3.7468   -1.4433   24.1674 C.ar    1  UNL1        0.1688
     10 F           3.8776   -1.3887   25.6607 F       1  UNL1       -0.2017
     11 C           2.9245   -0.4152   23.4484 C.ar    1  UNL1        0.1830
     12 F           2.2329    0.6674   24.2229 F       1  UNL1       -0.2003
     13 C           2.7937   -0.4697   21.9551 C.ar    1  UNL1        0.0894
     14 N           2.0567    0.3994   20.9798 N.ar    1  UNL1       -0.3277
     15 C           1.2011    1.6170   21.1677 C.3     1  UNL1        0.1234
     16 C          -0.0586    4.7152   19.3043 C.3     1  UNL1        0.1149
     17 N          -0.2740    3.5069   20.1664 N.3     1  UNL1       -0.1535
     18 S          -1.3451    3.5161   21.2166 S.O2    1  UNL1        0.0633
     19 O          -0.5786    4.5484   21.9892 O.2     1  UNL1       -0.1528
     20 O          -2.1115    2.4838   20.4440 O.2     1  UNL1       -0.1528
     21 C          -2.4161    3.5253   22.2667 C.ar    1  UNL1        0.1223
     22 C          -3.8577    3.4098   21.8688 C.ar    1  UNL1        0.0222
     23 C          -4.9287    3.4190   22.9190 C.ar    1  UNL1        0.0310
     24 C          -4.5581    3.5437   24.3671 C.ar    1  UNL1        0.1402
     25 F          -5.6291    3.5529   25.4172 F       1  UNL1       -0.2042
     26 C          -3.1164    3.6592   24.7651 C.ar    1  UNL1        0.0310
     27 C          -2.0454    3.6500   23.7149 C.ar    1  UNL1        0.0222
     28 C           3.6633   -2.2083   18.5956 C.3     1  UNL1        0.0691
     29 C           4.5323   -1.6148   17.5266 C.2     1  UNL1        0.0548
     30 O           6.0236   -1.6131   17.6874 O.co2   1  UNL1       -0.5488
     31 O           3.9098   -1.0230   16.2969 O.co2   1  UNL1       -0.5488
@<TRIPOS>UNITY_ATOM_ATTR
30 1
charge -1
@<TRIPOS>BOND
     1    16    17    1
     2     1    17    1
     3     1     2    1
     4     2     3    1
     5     3     4    1
     6     4     5   ar
     7     5    28    1
     8    28    29    1
     9    29    30   ar
    10    29    31   ar
    11     5     6   ar
    12     6     7   ar
    13     7     8   ar
    14     8     9   ar
    15     9    10    1
    16     9    11   ar
    17    11    12    1
    18    11    13   ar
    19    13    14   ar
    20    14    15    1
    21    17    18    1
    22    18    19    2
    23    18    20    2
    24    18    21    1
    25    21    22   ar
    26    22    23   ar
    27    23    24   ar
    28    24    25    1
    29    24    26   ar
    30    26    27   ar
    31    15     1    1
    32    27    21   ar
    33    14     4   ar
    34    13     6   ar
@<TRIPOS>MOLECULE
*****
 31 34 0 0 0
SMALL
GASTEIGER

@<TRIPOS>ATOM
      1 C           0.7299    2.2931   20.1249 C.3     1  UNL1        0.1025
      2 C           0.9208    1.7735   18.7308 C.3     1  UNL1        0.0259
      3 C           1.7398    0.5391   18.4961 C.3     1  UNL1        0.0450
      4 C           2.3681   -0.1758   19.6555 C.ar    1  UNL1        0.0336
      5 C           3.2218   -1.4069   19.7324 C.ar    1  UNL1       -0.0035
      6 C           3.5586   -1.6480   21.1741 C.ar    1  UNL1        0.0156
      7 C           4.3696   -2.7130   21.8507 C.ar    1  UNL1        0.0036
      8 C           4.5352   -2.6961   23.3416 C.ar    1  UNL1        0.0321
      9 C           3.8896   -1.6142   24.1556 C.ar    1  UNL1        0.1688
     10 F           4.0551   -1.5972   25.6464 F       1  UNL1       -0.2017
     11 C           3.0785   -0.5491   23.4789 C.ar    1  UNL1        0.1830
     12 F           2.4330    0.5328   24.2930 F       1  UNL1       -0.2003
     13 C           2.9130   -0.5661   21.9881 C.ar    1  UNL1        0.0894
     14 N           2.1772    0.3438   21.0496 N.ar    1  UNL1       -0.3277
     15 C           1.3582    1.5782   21.2843 C.3     1  UNL1        0.1234
     16 C           0.5459    4.7458   20.9619 C.3     1  UNL1        0.1149
     17 N          -0.0892    3.5277   20.3596 N.3     1  UNL1       -0.1535
     18 S          -1.5433    3.5440   19.9920 S.O2    1  UNL1        0.0633
     19 O          -1.2586    4.5431   18.9100 O.2     1  UNL1       -0.1528
     20 O          -1.8281    2.5449   21.0740 O.2     1  UNL1       -0.1528
     21 C          -2.9975    3.5604   19.6244 C.ar    1  UNL1        0.1223
     22 C          -3.4100    3.8294   18.2076 C.ar    1  UNL1        0.0222
     23 C          -4.8641    3.8458   17.8400 C.ar    1  UNL1        0.0310
     24 C          -5.9059    3.5930   18.8893 C.ar    1  UNL1        0.1402
     25 F          -7.3600    3.6094   18.5217 F       1  UNL1       -0.2042
     26 C          -5.4934    3.3240   20.3062 C.ar    1  UNL1        0.0310
     27 C          -4.0392    3.3076   20.6738 C.ar    1  UNL1        0.0222
     28 C           3.6615   -2.2488   18.5715 C.3     1  UNL1        0.0691
     29 C           4.5632   -1.6681   17.5228 C.2     1  UNL1        0.0548
     30 O           6.0521   -1.7642   17.6770 O.co2   1  UNL1       -0.5488
     31 O           3.9758   -0.9914   16.3199 O.co2   1  UNL1       -0.5488
@<TRIPOS>UNITY_ATOM_ATTR
30 1
charge -1
@<TRIPOS>BOND
     1    16    17    1
     2     1    17    1
     3     1     2    1
     4     2     3    1
     5     3     4    1
     6     4     5   ar
     7     5    28    1
     8    28    29    1
     9    29    30   ar
    10    29    31   ar
    11     5     6   ar
    12     6     7   ar
    13     7     8   ar
    14     8     9   ar
    15     9    10    1
    16     9    11   ar
    17    11    12    1
    18    11    13   ar
    19    13    14   ar
    20    14    15    1
    21    17    18    1
    22    18    19    2
    23    18    20    2
    24    18    21    1
    25    21    22   ar
    26    22    23   ar
    27    23    24   ar
    28    24    25    1
    29    24    26   ar
    30    26    27   ar
    31    15     1    1
    32    27    21   ar
    33    14     4   ar
    34    13     6   ar
@<TRIPOS>MOLECULE
*****
 31 34 0 0 0
SMALL
GASTEIGER

@<TRIPOS>ATOM
      1 C          -9.0418  -18.7613   20.5856 C.3     1  UNL1        0.1025
      2 C          -8.3256  -19.6385   19.6020 C.3     1  UNL1        0.0259
      3 C          -6.8446  -19.8448   19.7206 C.3     1  UNL1        0.0450
      4 C          -6.0798  -19.1738   20.8227 C.ar    1  UNL1        0.0336
      5 C          -4.6252  -19.1897   21.1891 C.ar    1  UNL1       -0.0035
      6 C          -4.4425  -18.3223   22.3991 C.ar    1  UNL1        0.0156
      7 C          -3.2278  -17.9637   23.2028 C.ar    1  UNL1        0.0036
      8 C          -3.3547  -17.0531   24.3881 C.ar    1  UNL1        0.0321
      9 C          -4.6963  -16.5011   24.7696 C.ar    1  UNL1        0.1688
     10 F          -4.8232  -15.5906   25.9549 F       1  UNL1       -0.2017
     11 C          -5.9110  -16.8597   23.9658 C.ar    1  UNL1        0.1830
     12 F          -7.2525  -16.3077   24.3474 F       1  UNL1       -0.2003
     13 C          -5.7841  -17.7703   22.7806 C.ar    1  UNL1        0.0894
     14 N          -6.7960  -18.2965   21.8064 N.ar    1  UNL1       -0.3277
     15 C          -8.2769  -18.0903   21.6878 C.3     1  UNL1        0.1234
     16 C         -11.1480  -18.3655   19.1168 C.3     1  UNL1        0.1149
     17 N         -10.5228  -18.5551   20.4671 N.3     1  UNL1       -0.1535
     18 S         -11.3787  -18.5384   21.6989 S.O2    1  UNL1        0.0633
     19 O         -11.1040  -19.9979   21.9095 O.2     1  UNL1       -0.1528
     20 O         -11.6534  -17.0789   21.4882 O.2     1  UNL1       -0.1528
     21 C         -12.2345  -18.5217   22.9306 C.ar    1  UNL1        0.1223
     22 C         -13.6729  -18.1062   22.8389 C.ar    1  UNL1        0.0222
     23 C         -14.5287  -18.0896   24.0707 C.ar    1  UNL1        0.0310
     24 C         -13.9462  -18.4883   25.3942 C.ar    1  UNL1        0.1402
     25 F         -14.8020  -18.4716   26.6259 F       1  UNL1       -0.2042
     26 C         -12.5078  -18.9038   25.4859 C.ar    1  UNL1        0.0310
     27 C         -11.6519  -18.9205   24.2541 C.ar    1  UNL1        0.0222
     28 C          -3.5435  -19.9411   20.4713 C.3     1  UNL1        0.0691
     29 C          -2.3321  -19.2135   19.9680 C.2     1  UNL1        0.0548
     30 O          -2.3731  -18.5178   18.6398 O.co2   1  UNL1       -0.5488
     31 O          -1.0798  -19.1818   20.7930 O.co2   1  UNL1       -0.5488
@<TRIPOS>UNITY_ATOM_ATTR
30 1
charge -1
@<TRIPOS>BOND
     1    16    17    1
     2     1    17    1
     3     1     2    1
     4     2     3    1
     5     3     4    1
     6     4     5   ar
     7     5    28    1
     8    28    29    1
     9    29    30   ar
    10    29    31   ar
    11     5     6   ar
    12     6     7   ar
    13     7     8   ar
    14     8     9   ar
    15     9    10    1
    16     9    11   ar
    17    11    12    1
    18    11    13   ar
    19    13    14   ar
    20    14    15    1
    21    17    18    1
    22    18    19    2
    23    18    20    2
    24    18    21    1
    25    21    22   ar
    26    22    23   ar
    27    23    24   ar
    28    24    25    1
    29    24    26   ar
    30    26    27   ar
    31    15     1    1
    32    27    21   ar
    33    14     4   ar
    34    13     6   ar
@<TRIPOS>MOLECULE
*****
 31 34 0 0 0
SMALL
GASTEIGER

@<TRIPOS>ATOM
      1 C           0.0180    2.6463   20.7723 C.3     1  UNL1        0.1025
      2 C           1.0143    2.7338   21.8902 C.3     1  UNL1        0.0259
      3 C           0.5550    3.0605   23.2802 C.3     1  UNL1        0.0450
      4 C          -0.9006    3.2997   23.5524 C.ar    1  UNL1        0.0336
      5 C          -1.6441    3.6375   24.8107 C.ar    1  UNL1       -0.0035
      6 C          -3.0999    3.7588   24.4704 C.ar    1  UNL1        0.0156
      7 C          -4.3035    4.0746   25.3080 C.ar    1  UNL1        0.0036
      8 C          -5.6635    4.1275   24.6771 C.ar    1  UNL1        0.0321
      9 C          -5.8197    3.8647   23.2086 C.ar    1  UNL1        0.1688
     10 F          -7.1795    3.9176   22.5776 F       1  UNL1       -0.2017
     11 C          -4.6160    3.5489   22.3709 C.ar    1  UNL1        0.1830
     12 F          -4.7723    3.2861   20.9024 F       1  UNL1       -0.2003
     13 C          -3.2562    3.4959   23.0019 C.ar    1  UNL1        0.0894
     14 N          -1.8969    3.2122   22.4346 N.ar    1  UNL1       -0.3277
     15 C          -1.4376    2.8855   21.0445 C.3     1  UNL1        0.1234
     16 C           0.0060    3.1466   18.2229 C.3     1  UNL1        0.1149
     17 N           0.4772    2.3196   19.3822 N.3     1  UNL1       -0.1535
     18 S           1.4076    1.1659   19.1514 S.O2    1  UNL1        0.0633
     19 O           2.4295    2.1041   18.5809 O.2     1  UNL1       -0.1528
     20 O           0.3858    0.2277   19.7220 O.2     1  UNL1       -0.1528
     21 C           2.3381    0.0122   18.9207 C.ar    1  UNL1        0.1223
     22 C           2.4376   -1.0860   19.9375 C.ar    1  UNL1        0.0222
     23 C           3.3681   -2.2397   19.7068 C.ar    1  UNL1        0.0310
     24 C           4.1989   -2.2952   18.4592 C.ar    1  UNL1        0.1402
     25 F           5.1294   -3.4490   18.2284 F       1  UNL1       -0.2042
     26 C           4.0994   -1.1970   17.4423 C.ar    1  UNL1        0.0310
     27 C           3.1690   -0.0433   17.6730 C.ar    1  UNL1        0.0222
     28 C          -1.0382    3.8217   26.1704 C.3     1  UNL1        0.0691
     29 C          -0.5143    2.6358   26.9250 C.2     1  UNL1        0.0548
     30 O          -0.0349    2.7974   28.3371 O.co2   1  UNL1       -0.5488
     31 O          -0.4699    1.2884   26.2673 O.co2   1  UNL1       -0.5488
@<TRIPOS>UNITY_ATOM_ATTR
30 1
charge -1
@<TRIPOS>BOND
     1    16    17    1
     2     1    17    1
     3     1     2    1
     4     2     3    1
     5     3     4    1
     6     4     5   ar
     7     5    28    1
     8    28    29    1
     9    29    30   ar
    10    29    31   ar
    11     5     6   ar
    12     6     7   ar
    13     7     8   ar
    14     8     9   ar
    15     9    10    1
    16     9    11   ar
    17    11    12    1
    18    11    13   ar
    19    13    14   ar
    20    14    15    1
    21    17    18    1
    22    18    19    2
    23    18    20    2
    24    18    21    1
    25    21    22   ar
    26    22    23   ar
    27    23    24   ar
    28    24    25    1
    29    24    26   ar
    30    26    27   ar
    31    15     1    1
    32    27    21   ar
    33    14     4   ar
    34    13     6   ar
@<TRIPOS>MOLECULE
*****
 31 34 0 0 0
SMALL
GASTEIGER

@<TRIPOS>ATOM
      1 C          -7.2052  -16.4229   24.6456 C.3     1  UNL1        0.1025
      2 C          -7.7780  -17.2970   25.7216 C.3     1  UNL1        0.0259
      3 C          -9.1567  -17.8680   25.5692 C.3     1  UNL1        0.0450
      4 C          -9.9625  -17.5648   24.3409 C.ar    1  UNL1        0.0336
      5 C         -11.3391  -17.9821   23.9154 C.ar    1  UNL1       -0.0035
      6 C         -11.6170  -17.3658   22.5764 C.ar    1  UNL1        0.0156
      7 C         -12.8115  -17.4282   21.6712 C.ar    1  UNL1        0.0036
      8 C         -12.8012  -16.6924   20.3640 C.ar    1  UNL1        0.0321
      9 C         -11.5964  -15.8943   19.9621 C.ar    1  UNL1        0.1688
     10 F         -11.5861  -15.1586   18.6549 F       1  UNL1       -0.2017
     11 C         -10.4019  -15.8319   20.8673 C.ar    1  UNL1        0.1830
     12 F          -9.1972  -15.0337   20.4653 F       1  UNL1       -0.2003
     13 C         -10.4123  -16.5676   22.1745 C.ar    1  UNL1        0.0894
     14 N          -9.3897  -16.6907   23.2650 N.ar    1  UNL1       -0.3277
     15 C          -8.0111  -16.1197   23.4173 C.3     1  UNL1        0.1234
     16 C          -5.5527  -14.8251   25.8566 C.3     1  UNL1        0.1149
     17 N          -5.8265  -15.8518   24.7979 N.3     1  UNL1       -0.1535
     18 S          -4.7217  -16.3076   23.8915 S.O2    1  UNL1        0.0633
     19 O          -4.5921  -17.5733   24.6859 O.2     1  UNL1       -0.1528
     20 O          -4.8512  -15.0418   23.0971 O.2     1  UNL1       -0.1528
     21 C          -3.6168  -16.7633   22.9851 C.ar    1  UNL1        0.1223
     22 C          -3.3190  -18.2265   22.8426 C.ar    1  UNL1        0.0222
     23 C          -2.2142  -18.6822   21.9362 C.ar    1  UNL1        0.0310
     24 C          -1.4071  -17.6748   21.1723 C.ar    1  UNL1        0.1402
     25 F          -0.3022  -18.1305   20.2659 F       1  UNL1       -0.2042
     26 C          -1.7048  -16.2115   21.3148 C.ar    1  UNL1        0.0310
     27 C          -2.8097  -15.7557   22.2212 C.ar    1  UNL1        0.0222
     28 C         -12.2736  -18.8613   24.6924 C.3     1  UNL1        0.0691
     29 C         -13.6677  -18.3951   24.9911 C.2     1  UNL1        0.0548
     30 O         -14.3178  -18.7601   26.2927 O.co2   1  UNL1       -0.5488
     31 O         -14.4115  -17.5639   23.9882 O.co2   1  UNL1       -0.5488
@<TRIPOS>UNITY_ATOM_ATTR
30 1
charge -1
@<TRIPOS>BOND
     1    16    17    1
     2     1    17    1
     3     1     2    1
     4     2     3    1
     5     3     4    1
     6     4     5   ar
     7     5    28    1
     8    28    29    1
     9    29    30   ar
    10    29    31   ar
    11     5     6   ar
    12     6     7   ar
    13     7     8   ar
    14     8     9   ar
    15     9    10    1
    16     9    11   ar
    17    11    12    1
    18    11    13   ar
    19    13    14   ar
    20    14    15    1
    21    17    18    1
    22    18    19    2
    23    18    20    2
    24    18    21    1
    25    21    22   ar
    26    22    23   ar
    27    23    24   ar
    28    24    25    1
    29    24    26   ar
    30    26    27   ar
    31    15     1    1
    32    27    21   ar
    33    14     4   ar
    34    13     6   ar
@<TRIPOS>MOLECULE
*****
 31 34 0 0 0
SMALL
GASTEIGER

@<TRIPOS>ATOM
      1 C           0.3869    3.0193   20.2952 C.3     1  UNL1        0.1025
      2 C          -0.8605    3.8375   20.1395 C.3     1  UNL1        0.0259
      3 C          -1.7392    4.0986   21.3268 C.3     1  UNL1        0.0450
      4 C          -1.3704    3.5415   22.6698 C.ar    1  UNL1        0.0336
      5 C          -2.0360    3.6318   24.0111 C.ar    1  UNL1       -0.0035
      6 C          -1.1999    2.8693   24.9957 C.ar    1  UNL1        0.0156
      7 C          -1.3623    2.6138   26.4648 C.ar    1  UNL1        0.0036
      8 C          -0.3424    1.7967   27.2012 C.ar    1  UNL1        0.0321
      9 C           0.8399    1.2352   26.4685 C.ar    1  UNL1        0.1688
     10 F           1.8598    0.4181   27.2049 F       1  UNL1       -0.2017
     11 C           1.0023    1.4907   24.9993 C.ar    1  UNL1        0.1830
     12 F           2.1846    0.9292   24.2667 F       1  UNL1       -0.2003
     13 C          -0.0176    2.3078   24.2629 C.ar    1  UNL1        0.0894
     14 N          -0.1230    2.7232   22.8255 N.ar    1  UNL1       -0.3277
     15 C           0.7557    2.4621   21.6382 C.3     1  UNL1        0.1234
     16 C           1.4319    3.8104   18.0519 C.3     1  UNL1        0.1149
     17 N           1.2657    2.7581   19.1079 N.3     1  UNL1       -0.1535
     18 S           1.9783    1.4447   18.9767 S.O2    1  UNL1        0.0633
     19 O           3.2592    2.0968   19.4058 O.2     1  UNL1       -0.1528
     20 O           0.6974    0.7927   18.5475 O.2     1  UNL1       -0.1528
     21 C           2.6908    0.1313   18.8454 C.ar    1  UNL1        0.1223
     22 C           2.4484   -0.9570   19.8487 C.ar    1  UNL1        0.0222
     23 C           3.1609   -2.2704   19.7174 C.ar    1  UNL1        0.0310
     24 C           4.1160   -2.4955   18.5829 C.ar    1  UNL1        0.1402
     25 F           4.8285   -3.8089   18.4516 F       1  UNL1       -0.2042
     26 C           4.3585   -1.4071   17.5795 C.ar    1  UNL1        0.0310
     27 C           3.6459   -0.0937   17.7108 C.ar    1  UNL1        0.0222
     28 C          -3.3134    4.3572   24.3144 C.3     1  UNL1        0.0691
     29 C          -4.6179    3.6168   24.3004 C.2     1  UNL1        0.0548
     30 O          -5.4547    3.5482   25.5434 O.co2   1  UNL1       -0.5488
     31 O          -5.0855    2.9451   23.0434 O.co2   1  UNL1       -0.5488
@<TRIPOS>UNITY_ATOM_ATTR
30 1
charge -1
@<TRIPOS>BOND
     1    16    17    1
     2     1    17    1
     3     1     2    1
     4     2     3    1
     5     3     4    1
     6     4     5   ar
     7     5    28    1
     8    28    29    1
     9    29    30   ar
    10    29    31   ar
    11     5     6   ar
    12     6     7   ar
    13     7     8   ar
    14     8     9   ar
    15     9    10    1
    16     9    11   ar
    17    11    12    1
    18    11    13   ar
    19    13    14   ar
    20    14    15    1
    21    17    18    1
    22    18    19    2
    23    18    20    2
    24    18    21    1
    25    21    22   ar
    26    22    23   ar
    27    23    24   ar
    28    24    25    1
    29    24    26   ar
    30    26    27   ar
    31    15     1    1
    32    27    21   ar
    33    14     4   ar
    34    13     6   ar
@<TRIPOS>MOLECULE
*****
 31 34 0 0 0
SMALL
GASTEIGER

@<TRIPOS>ATOM
      1 C           3.3773    0.6584   32.1474 C.3     1  UNL1        0.1025
      2 C           4.1129    0.0359   33.2968 C.3     1  UNL1        0.0259
      3 C           4.0202    0.6448   34.6645 C.3     1  UNL1        0.0450
      4 C           3.1919    1.8761   34.8827 C.ar    1  UNL1        0.0336
      5 C           2.9135    2.6943   36.1089 C.ar    1  UNL1       -0.0035
      6 C           2.0058    3.8223   35.7171 C.ar    1  UNL1        0.0156
      7 C           1.4001    4.9440   36.5076 C.ar    1  UNL1        0.0036
      8 C           0.5117    5.9449   35.8299 C.ar    1  UNL1        0.0321
      9 C           0.2291    5.8239   34.3617 C.ar    1  UNL1        0.1688
     10 F          -0.6593    6.8247   33.6840 F       1  UNL1       -0.2017
     11 C           0.8348    4.7022   33.5712 C.ar    1  UNL1        0.1830
     12 F           0.5522    4.5813   32.1031 F       1  UNL1       -0.2003
     13 C           1.7232    3.7014   34.2489 C.ar    1  UNL1        0.0894
     14 N           2.4562    2.4986   33.7333 N.ar    1  UNL1       -0.3277
     15 C           2.5489    1.8897   32.3656 C.3     1  UNL1        0.1234
     16 C           4.5405   -0.9568   30.4776 C.3     1  UNL1        0.1149
     17 N           3.4699    0.0495   30.7796 N.3     1  UNL1       -0.1535
     18 S           2.4920    0.4469   29.7139 S.O2    1  UNL1        0.0633
     19 O           3.5026    1.3953   29.1402 O.2     1  UNL1       -0.1528
     20 O           1.4814   -0.5015   30.2876 O.2     1  UNL1       -0.1528
     21 C           1.5141    0.8444   28.6482 C.ar    1  UNL1        0.1223
     22 C           2.0031    1.1919   27.2735 C.ar    1  UNL1        0.0222
     23 C           1.0251    1.5894   26.2078 C.ar    1  UNL1        0.0310
     24 C          -0.4418    1.6393   26.5169 C.ar    1  UNL1        0.1402
     25 F          -1.4197    2.0367   25.4512 F       1  UNL1       -0.2042
     26 C          -0.9309    1.2917   27.8917 C.ar    1  UNL1        0.0310
     27 C           0.0471    0.8942   28.9574 C.ar    1  UNL1        0.0222
     28 C           3.4489    2.4306   37.4850 C.3     1  UNL1        0.0691
     29 C           2.5876    1.7497   38.5071 C.2     1  UNL1        0.0548
     30 O           3.2155    0.8923   39.5657 O.co2   1  UNL1       -0.5488
     31 O           1.0985    1.9263   38.4705 O.co2   1  UNL1       -0.5488
@<TRIPOS>UNITY_ATOM_ATTR
30 1
charge -1
@<TRIPOS>BOND
     1    16    17    1
     2     1    17    1
     3     1     2    1
     4     2     3    1
     5     3     4    1
     6     4     5   ar
     7     5    28    1
     8    28    29    1
     9    29    30   ar
    10    29    31   ar
    11     5     6   ar
    12     6     7   ar
    13     7     8   ar
    14     8     9   ar
    15     9    10    1
    16     9    11   ar
    17    11    12    1
    18    11    13   ar
    19    13    14   ar
    20    14    15    1
    21    17    18    1
    22    18    19    2
    23    18    20    2
    24    18    21    1
    25    21    22   ar
    26    22    23   ar
    27    23    24   ar
    28    24    25    1
    29    24    26   ar
    30    26    27   ar
    31    15     1    1
    32    27    21   ar
    33    14     4   ar
    34    13     6   ar
