@<TRIPOS>MOLECULE
*****
 27 30 0 0 0
SMALL
GASTEIGER

@<TRIPOS>ATOM
      1 C          -8.9018  -20.5905   17.7208 C.3     1  UNL1        0.0722
      2 C          -9.2593  -20.0413   19.0701 C.ar    1  UNL1        0.1249
      3 N         -10.6192  -19.5782   19.5016 N.ar    1  UNL1       -0.2305
      4 C         -10.5199  -19.1095   20.9230 C.ar    1  UNL1        0.1017
      5 C         -11.5401  -18.5473   21.8680 C.ar    1  UNL1        0.0578
      6 C         -11.1390  -18.1584   23.2600 C.ar    1  UNL1        0.1484
      7 C          -9.7177  -18.3318   23.7071 C.ar    1  UNL1        0.0388
      8 C          -8.6975  -18.8940   22.7621 C.ar    1  UNL1        0.0222
      9 C          -9.0986  -19.2829   21.3701 C.ar    1  UNL1        0.0833
     10 N          -8.3195  -19.8588   20.2249 N.ar    1  UNL1       -0.2882
     11 C          -6.8573  -20.1934   20.2332 C.ar    1  UNL1        0.0953
     12 C          -6.2619  -21.5494   19.9954 C.ar    1  UNL1        0.0250
     13 C          -4.7704  -21.4248   20.0959 C.ar    1  UNL1        0.0131
     14 C          -4.4441  -19.9917   20.3958 C.ar    1  UNL1        0.0841
     15 S          -5.7340  -19.2308   20.4806 S.2     1  UNL1       -0.0648
     16 C          -3.0695  -19.4202   20.5787 C.2     1  UNL1        0.2519
     17 O          -2.1298  -20.0307   21.5759 O.2     1  UNL1       -0.2696
     18 N          -2.6343  -18.2380   19.7644 N.am    1  UNL1       -0.3021
     19 H          -3.2510  -17.8372   19.1099 H       1  UNL1        0.1497
     20 C          -1.2596  -17.6664   19.9473 C.3     1  UNL1        0.0720
     21 C          -0.3682  -16.5360   20.3687 C.3     1  UNL1        0.0213
     22 C           0.2301  -17.8068   19.8428 C.3     1  UNL1        0.0213
     23 O         -12.1592  -17.5961   24.2051 O.3     1  UNL1       -0.4044
     24 C         -13.5767  -18.0842   24.1557 C.3     1  UNL1        0.5753
     25 F         -14.9942  -18.5723   24.1063 F       1  UNL1       -0.1328
     26 F         -13.7971  -17.3156   22.8866 F       1  UNL1       -0.1328
     27 F         -13.3563  -18.8527   25.4249 F       1  UNL1       -0.1328
@<TRIPOS>BOND
     1     1     2    1
     2     2     3   ar
     3     3     4   ar
     4     4     5   ar
     5     5     6   ar
     6     6    23    1
     7    23    24    1
     8    24    25    1
     9    24    26    1
    10    24    27    1
    11     6     7   ar
    12     7     8   ar
    13     8     9   ar
    14     9    10   ar
    15    10    11    1
    16    11    12   ar
    17    12    13   ar
    18    13    14   ar
    19    14    16    1
    20    16    17    2
    21    16    18   am
    22    18    20    1
    23    20    21    1
    24    21    22    1
    25    14    15   ar
    26    10     2   ar
    27    15    11   ar
    28     9     4   ar
    29    22    20    1
    30    18    19    1
@<TRIPOS>MOLECULE
*****
 27 30 0 0 0
SMALL
GASTEIGER

@<TRIPOS>ATOM
      1 C          -6.9735  -15.2585   24.4644 C.3     1  UNL1        0.0722
      2 C          -6.0296  -16.1672   23.7341 C.ar    1  UNL1        0.1249
      3 N          -4.5646  -15.9278   23.5188 N.ar    1  UNL1       -0.2305
      4 C          -4.0146  -17.0874   22.7425 C.ar    1  UNL1        0.1017
      5 C          -2.6346  -17.3963   22.2422 C.ar    1  UNL1        0.0578
      6 C          -2.3798  -18.6613   21.4776 C.ar    1  UNL1        0.1484
      7 C          -3.5049  -19.6175   21.2131 C.ar    1  UNL1        0.0388
      8 C          -4.8848  -19.3086   21.7134 C.ar    1  UNL1        0.0222
      9 C          -5.1397  -18.0436   22.4780 C.ar    1  UNL1        0.0833
     10 N          -6.3850  -17.4748   23.0909 N.ar    1  UNL1       -0.2882
     11 C          -7.7467  -18.1034   23.0651 C.ar    1  UNL1        0.0953
     12 C          -8.0705  -19.4860   22.5818 C.ar    1  UNL1        0.0250
     13 C          -9.5476  -19.6969   22.7360 C.ar    1  UNL1        0.0131
     14 C         -10.1367  -18.4446   23.3147 C.ar    1  UNL1        0.0841
     15 S          -9.0236  -17.4599   23.5180 S.2     1  UNL1       -0.0648
     16 C         -11.5845  -18.2171   23.6339 C.2     1  UNL1        0.2519
     17 O         -12.4183  -17.3376   22.7499 O.2     1  UNL1       -0.2696
     18 N         -12.1987  -18.8691   24.8371 N.am    1  UNL1       -0.3021
     19 H         -11.6515  -19.4463   25.4173 H       1  UNL1        0.1497
     20 C         -13.6466  -18.6415   25.1563 C.3     1  UNL1        0.0720
     21 C         -14.7378  -18.4358   26.1648 C.3     1  UNL1        0.0213
     22 C         -15.0632  -18.4531   24.7007 C.3     1  UNL1        0.0213
     23 O          -0.9998  -18.9702   20.9773 O.3     1  UNL1       -0.4044
     24 C          -0.4688  -18.2707   19.7612 C.3     1  UNL1        0.5753
     25 F           0.0622  -17.5712   18.5452 F       1  UNL1       -0.1328
     26 F           0.7770  -17.9080   20.5138 F       1  UNL1       -0.1328
     27 F          -1.7146  -18.6334   19.0086 F       1  UNL1       -0.1328
@<TRIPOS>BOND
     1     1     2    1
     2     2     3   ar
     3     3     4   ar
     4     4     5   ar
     5     5     6   ar
     6     6    23    1
     7    23    24    1
     8    24    25    1
     9    24    26    1
    10    24    27    1
    11     6     7   ar
    12     7     8   ar
    13     8     9   ar
    14     9    10   ar
    15    10    11    1
    16    11    12   ar
    17    12    13   ar
    18    13    14   ar
    19    14    16    1
    20    16    17    2
    21    16    18   am
    22    18    20    1
    23    20    21    1
    24    21    22    1
    25    14    15   ar
    26    10     2   ar
    27    15    11   ar
    28     9     4   ar
    29    22    20    1
    30    18    19    1
@<TRIPOS>MOLECULE
*****
 27 30 0 0 0
SMALL
GASTEIGER

@<TRIPOS>ATOM
      1 C           4.0307   -0.8842   26.3237 C.3     1  UNL1        0.0722
      2 C           3.7743   -1.0449   24.8546 C.ar    1  UNL1        0.1249
      3 N           4.3944   -2.0761   23.9590 N.ar    1  UNL1       -0.2305
      4 C           3.8561   -1.8711   22.5739 C.ar    1  UNL1        0.1017
      5 C           4.1104   -2.5893   21.2818 C.ar    1  UNL1        0.0578
      6 C           3.4120   -2.1495   20.0293 C.ar    1  UNL1        0.1484
      7 C           2.4593   -0.9916   20.0690 C.ar    1  UNL1        0.0388
      8 C           2.2050   -0.2734   21.3611 C.ar    1  UNL1        0.0222
      9 C           2.9034   -0.7132   22.6135 C.ar    1  UNL1        0.0833
     10 N           2.8528   -0.2026   24.0231 N.ar    1  UNL1       -0.2882
     11 C           2.0260    0.9483   24.5147 C.ar    1  UNL1        0.0953
     12 C           2.4702    2.3782   24.6044 C.ar    1  UNL1        0.0250
     13 C           1.3285    3.1850   25.1481 C.ar    1  UNL1        0.0131
     14 C           0.1786    2.2537   25.3944 C.ar    1  UNL1        0.0841
     15 S           0.6098    0.8714   25.0029 S.2     1  UNL1       -0.0648
     16 C          -1.1661    2.6374   25.9369 C.2     1  UNL1        0.2519
     17 O          -1.5731    2.1984   27.3124 O.2     1  UNL1       -0.2696
     18 N          -2.1039    3.4602   25.1041 N.am    1  UNL1       -0.3021
     19 H          -1.8368    3.7483   24.2014 H       1  UNL1        0.1497
     20 C          -3.4487    3.8439   25.6467 C.3     1  UNL1        0.0720
     21 C          -4.9427    3.8701   25.5164 C.3     1  UNL1        0.0213
     22 C          -4.2838    4.4822   26.7168 C.3     1  UNL1        0.0213
     23 O           3.6663   -2.8676   18.7371 O.3     1  UNL1       -0.4044
     24 C           4.1947   -4.2714   18.7507 C.3     1  UNL1        0.5753
     25 F           4.7231   -5.6752   18.7642 F       1  UNL1       -0.1328
     26 F           5.5541   -3.7634   18.3710 F       1  UNL1       -0.1328
     27 F           2.8354   -4.7794   19.1303 F       1  UNL1       -0.1328
@<TRIPOS>BOND
     1     1     2    1
     2     2     3   ar
     3     3     4   ar
     4     4     5   ar
     5     5     6   ar
     6     6    23    1
     7    23    24    1
     8    24    25    1
     9    24    26    1
    10    24    27    1
    11     6     7   ar
    12     7     8   ar
    13     8     9   ar
    14     9    10   ar
    15    10    11    1
    16    11    12   ar
    17    12    13   ar
    18    13    14   ar
    19    14    16    1
    20    16    17    2
    21    16    18   am
    22    18    20    1
    23    20    21    1
    24    21    22    1
    25    14    15   ar
    26    10     2   ar
    27    15    11   ar
    28     9     4   ar
    29    22    20    1
    30    18    19    1
@<TRIPOS>MOLECULE
*****
 27 30 0 0 0
SMALL
GASTEIGER

@<TRIPOS>ATOM
      1 C           3.4890    4.2001   17.8076 C.3     1  UNL1        0.0722
      2 C           3.4612    2.7746   18.2735 C.ar    1  UNL1        0.1249
      3 N           4.6246    1.8279   18.2850 N.ar    1  UNL1       -0.2305
      4 C           4.1475    0.5137   18.8284 C.ar    1  UNL1        0.1017
      5 C           4.8526   -0.7881   19.0697 C.ar    1  UNL1        0.0578
      6 C           4.0994   -1.9554   19.6353 C.ar    1  UNL1        0.1484
      7 C           2.6410   -1.8209   19.9596 C.ar    1  UNL1        0.0388
      8 C           1.9359   -0.5192   19.7182 C.ar    1  UNL1        0.0222
      9 C           2.6892    0.6481   19.1526 C.ar    1  UNL1        0.0833
     10 N           2.2650    2.0454   18.8097 N.ar    1  UNL1       -0.2882
     11 C           0.8866    2.6138   18.9741 C.ar    1  UNL1        0.0953
     12 C           0.0205    3.1576   17.8767 C.ar    1  UNL1        0.0250
     13 C          -1.2690    3.6180   18.4891 C.ar    1  UNL1        0.0131
     14 C          -1.2000    3.3587   19.9649 C.ar    1  UNL1        0.0841
     15 S           0.1323    2.7381   20.2645 S.2     1  UNL1       -0.0648
     16 C          -2.2745    3.6661   20.9653 C.2     1  UNL1        0.2519
     17 O          -2.0679    4.7536   21.9777 O.2     1  UNL1       -0.2696
     18 N          -3.5557    2.8861   20.9534 N.am    1  UNL1       -0.3021
     19 H          -3.6913    2.1724   20.2890 H       1  UNL1        0.1497
     20 C          -4.6302    3.1936   21.9539 C.3     1  UNL1        0.0720
     21 C          -5.1485    3.1426   23.3605 C.3     1  UNL1        0.0213
     22 C          -5.9730    3.7771   22.2800 C.3     1  UNL1        0.0213
     23 O           4.8044   -3.2572   19.8767 O.3     1  UNL1       -0.4044
     24 C           4.0151   -4.5275   19.9922 C.3     1  UNL1        0.5753
     25 F           3.2258   -5.7977   20.1077 F       1  UNL1       -0.1328
     26 F           4.1196   -4.4565   21.4869 F       1  UNL1       -0.1328
     27 F           3.9106   -4.5984   18.4976 F       1  UNL1       -0.1328
@<TRIPOS>BOND
     1     1     2    1
     2     2     3   ar
     3     3     4   ar
     4     4     5   ar
     5     5     6   ar
     6     6    23    1
     7    23    24    1
     8    24    25    1
     9    24    26    1
    10    24    27    1
    11     6     7   ar
    12     7     8   ar
    13     8     9   ar
    14     9    10   ar
    15    10    11    1
    16    11    12   ar
    17    12    13   ar
    18    13    14   ar
    19    14    16    1
    20    16    17    2
    21    16    18   am
    22    18    20    1
    23    20    21    1
    24    21    22    1
    25    14    15   ar
    26    10     2   ar
    27    15    11   ar
    28     9     4   ar
    29    22    20    1
    30    18    19    1
@<TRIPOS>MOLECULE
*****
 27 30 0 0 0
SMALL
GASTEIGER

@<TRIPOS>ATOM
      1 C           1.8546    1.6415   24.8257 C.3     1  UNL1        0.0722
      2 C           2.6024    0.4549   24.2941 C.ar    1  UNL1        0.1249
      3 N           2.5152   -0.0897   22.8992 N.ar    1  UNL1       -0.2305
      4 C           3.4277   -1.2767   22.8070 C.ar    1  UNL1        0.1017
      5 C           3.7497   -2.2099   21.6777 C.ar    1  UNL1        0.0578
      6 C           4.7229   -3.3320   21.8863 C.ar    1  UNL1        0.1484
      7 C           5.3740   -3.5211   23.2243 C.ar    1  UNL1        0.0388
      8 C           5.0520   -2.5879   24.3537 C.ar    1  UNL1        0.0222
      9 C           4.0788   -1.4658   24.1451 C.ar    1  UNL1        0.0833
     10 N           3.5688   -0.3956   25.0641 N.ar    1  UNL1       -0.2882
     11 C           3.9570   -0.2087   26.5009 C.ar    1  UNL1        0.0953
     12 C           5.0219    0.7150   27.0134 C.ar    1  UNL1        0.0250
     13 C           5.0715    0.5819   28.5067 C.ar    1  UNL1        0.0131
     14 C           4.0373   -0.4240   28.9171 C.ar    1  UNL1        0.0841
     15 S           3.3485   -0.9126   27.6773 S.2     1  UNL1       -0.0648
     16 C           3.7434   -0.8641   30.3205 C.2     1  UNL1        0.2519
     17 O           2.3306   -0.8698   30.8246 O.2     1  UNL1       -0.2696
     18 N           4.8623   -1.2985   31.2201 N.am    1  UNL1       -0.3021
     19 H           5.7896   -1.2948   30.8894 H       1  UNL1        0.1497
     20 C           4.5685   -1.7386   32.6237 C.3     1  UNL1        0.0720
     21 C           4.2891   -2.8334   33.6103 C.3     1  UNL1        0.0213
     22 C           4.3388   -1.4059   34.0682 C.3     1  UNL1        0.0213
     23 O           5.0450   -4.2652   20.7569 O.3     1  UNL1       -0.4044
     24 C           4.0325   -4.5155   19.6789 C.3     1  UNL1        0.5753
     25 F           3.0200   -4.7657   18.6008 F       1  UNL1       -0.1328
     26 F           4.7521   -3.5541   18.7799 F       1  UNL1       -0.1328
     27 F           3.3130   -5.4768   20.5778 F       1  UNL1       -0.1328
@<TRIPOS>BOND
     1     1     2    1
     2     2     3   ar
     3     3     4   ar
     4     4     5   ar
     5     5     6   ar
     6     6    23    1
     7    23    24    1
     8    24    25    1
     9    24    26    1
    10    24    27    1
    11     6     7   ar
    12     7     8   ar
    13     8     9   ar
    14     9    10   ar
    15    10    11    1
    16    11    12   ar
    17    12    13   ar
    18    13    14   ar
    19    14    16    1
    20    16    17    2
    21    16    18   am
    22    18    20    1
    23    20    21    1
    24    21    22    1
    25    14    15   ar
    26    10     2   ar
    27    15    11   ar
    28     9     4   ar
    29    22    20    1
    30    18    19    1
@<TRIPOS>MOLECULE
*****
 27 30 0 0 0
SMALL
GASTEIGER

@<TRIPOS>ATOM
      1 C          -1.2421    3.9686   16.8607 C.3     1  UNL1        0.0722
      2 C          -1.4147    3.8753   18.3478 C.ar    1  UNL1        0.1249
      3 N          -2.5726    4.4113   19.1364 N.ar    1  UNL1       -0.2305
      4 C          -2.3332    4.0968   20.5834 C.ar    1  UNL1        0.1017
      5 C          -3.1355    4.3812   21.8184 C.ar    1  UNL1        0.0578
      6 C          -2.6320    3.9352   23.1591 C.ar    1  UNL1        0.1484
      7 C          -1.3261    3.2048   23.2648 C.ar    1  UNL1        0.0388
      8 C          -0.5237    2.9205   22.0298 C.ar    1  UNL1        0.0222
      9 C          -1.0273    3.3665   20.6891 C.ar    1  UNL1        0.0833
     10 N          -0.4596    3.2295   19.3074 N.ar    1  UNL1       -0.2882
     11 C           0.8357    2.5637   18.9484 C.ar    1  UNL1        0.0953
     12 C           2.1393    3.2567   18.6831 C.ar    1  UNL1        0.0250
     13 C           3.1641    2.2094   18.3624 C.ar    1  UNL1        0.0131
     14 C           2.4939    0.8691   18.4295 C.ar    1  UNL1        0.0841
     15 S           1.0548    1.0882   18.7917 S.2     1  UNL1       -0.0648
     16 C           3.1478   -0.4573   18.1786 C.2     1  UNL1        0.2519
     17 O           3.7617   -0.7499   16.8415 O.2     1  UNL1       -0.2696
     18 N           3.1880   -1.4911   19.2646 N.am    1  UNL1       -0.3021
     19 H           2.7852   -1.2991   20.1421 H       1  UNL1        0.1497
     20 C           3.8420   -2.8175   19.0136 C.3     1  UNL1        0.0720
     21 C           5.0436   -3.6168   18.6046 C.3     1  UNL1        0.0213
     22 C           3.7730   -4.3157   18.9878 C.3     1  UNL1        0.0213
     23 O          -3.4344    4.2196   24.3942 O.3     1  UNL1       -0.4044
     24 C          -4.9312    4.1307   24.3531 C.3     1  UNL1        0.5753
     25 F          -6.4280    4.0418   24.3120 F       1  UNL1       -0.1328
     26 F          -4.8361    2.6620   24.0637 F       1  UNL1       -0.1328
     27 F          -5.0263    5.5995   24.6425 F       1  UNL1       -0.1328
@<TRIPOS>BOND
     1     1     2    1
     2     2     3   ar
     3     3     4   ar
     4     4     5   ar
     5     5     6   ar
     6     6    23    1
     7    23    24    1
     8    24    25    1
     9    24    26    1
    10    24    27    1
    11     6     7   ar
    12     7     8   ar
    13     8     9   ar
    14     9    10   ar
    15    10    11    1
    16    11    12   ar
    17    12    13   ar
    18    13    14   ar
    19    14    16    1
    20    16    17    2
    21    16    18   am
    22    18    20    1
    23    20    21    1
    24    21    22    1
    25    14    15   ar
    26    10     2   ar
    27    15    11   ar
    28     9     4   ar
    29    22    20    1
    30    18    19    1
@<TRIPOS>MOLECULE
*****
 27 30 0 0 0
SMALL
GASTEIGER

@<TRIPOS>ATOM
      1 C           2.7873    4.1773   22.2221 C.3     1  UNL1        0.0722
      2 C           2.9476    2.7615   21.7534 C.ar    1  UNL1        0.1249
      3 N           4.0738    1.8370   22.1095 N.ar    1  UNL1       -0.2305
      4 C           3.8321    0.5257   21.4225 C.ar    1  UNL1        0.1017
      5 C           4.6088   -0.7575   21.4069 C.ar    1  UNL1        0.0578
      6 C           4.1098   -1.9265   20.6106 C.ar    1  UNL1        0.1484
      7 C           2.8341   -1.8125   19.8298 C.ar    1  UNL1        0.0388
      8 C           2.0574   -0.5294   19.8454 C.ar    1  UNL1        0.0222
      9 C           2.5564    0.6397   20.6417 C.ar    1  UNL1        0.0833
     10 N           2.0098    2.0215   20.8462 N.ar    1  UNL1       -0.2882
     11 C           0.7470    2.5675   20.2485 C.ar    1  UNL1        0.0953
     12 C           0.6346    3.3053   18.9473 C.ar    1  UNL1        0.0250
     13 C          -0.8069    3.6653   18.7416 C.ar    1  UNL1        0.0131
     14 C          -1.5856    3.1500   19.9156 C.ar    1  UNL1        0.0841
     15 S          -0.6251    2.4715   20.8468 S.2     1  UNL1       -0.0648
     16 C          -3.0647    3.2888   20.1221 C.2     1  UNL1        0.2519
     17 O          -3.6650    2.9988   21.4659 O.2     1  UNL1       -0.2696
     18 N          -3.9438    3.7175   18.9848 N.am    1  UNL1       -0.3021
     19 H          -3.5499    3.9078   18.1028 H       1  UNL1        0.1497
     20 C          -5.4230    3.8562   19.1913 C.3     1  UNL1        0.0720
     21 C          -6.8279    3.5072   18.7984 C.3     1  UNL1        0.0213
     22 C          -6.5802    4.4457   19.9419 C.3     1  UNL1        0.0213
     23 O           4.8864   -3.2098   20.5951 O.3     1  UNL1       -0.4044
     24 C           4.7290   -4.1679   19.4517 C.3     1  UNL1        0.5753
     25 F           4.5716   -5.1260   18.3084 F       1  UNL1       -0.1328
     26 F           3.7357   -4.9583   20.2508 F       1  UNL1       -0.1328
     27 F           5.7223   -3.3775   18.6526 F       1  UNL1       -0.1328
@<TRIPOS>BOND
     1     1     2    1
     2     2     3   ar
     3     3     4   ar
     4     4     5   ar
     5     5     6   ar
     6     6    23    1
     7    23    24    1
     8    24    25    1
     9    24    26    1
    10    24    27    1
    11     6     7   ar
    12     7     8   ar
    13     8     9   ar
    14     9    10   ar
    15    10    11    1
    16    11    12   ar
    17    12    13   ar
    18    13    14   ar
    19    14    16    1
    20    16    17    2
    21    16    18   am
    22    18    20    1
    23    20    21    1
    24    21    22    1
    25    14    15   ar
    26    10     2   ar
    27    15    11   ar
    28     9     4   ar
    29    22    20    1
    30    18    19    1
@<TRIPOS>MOLECULE
*****
 27 30 0 0 0
SMALL
GASTEIGER

@<TRIPOS>ATOM
      1 C           8.8269   -7.8615   25.7947 C.3     1  UNL1        0.0722
      2 C           8.3349   -6.9248   26.8580 C.ar    1  UNL1        0.1249
      3 N           8.1689   -7.2513   28.3126 N.ar    1  UNL1       -0.2305
      4 C           7.6540   -6.0255   29.0070 C.ar    1  UNL1        0.1017
      5 C           7.3040   -5.7564   30.4405 C.ar    1  UNL1        0.0578
      6 C           6.8019   -4.4032   30.8486 C.ar    1  UNL1        0.1484
      7 C           6.6496   -3.3190   29.8232 C.ar    1  UNL1        0.0388
      8 C           6.9996   -3.5881   28.3896 C.ar    1  UNL1        0.0222
      9 C           7.5017   -4.9414   27.9815 C.ar    1  UNL1        0.0833
     10 N           7.9226   -5.4972   26.6534 N.ar    1  UNL1       -0.2882
     11 C           7.9298   -4.7556   25.3496 C.ar    1  UNL1        0.0953
     12 C           8.8829   -3.6642   24.9613 C.ar    1  UNL1        0.0250
     13 C           8.5274   -3.2092   23.5769 C.ar    1  UNL1        0.0131
     14 C           7.3546   -4.0193   23.1095 C.ar    1  UNL1        0.0841
     15 S           6.9854   -4.9750   24.2052 S.2     1  UNL1       -0.0648
     16 C           6.6712   -3.8955   21.7801 C.2     1  UNL1        0.2519
     17 O           7.4852   -3.8210   20.5223 O.2     1  UNL1       -0.2696
     18 N           5.1738   -3.8462   21.7083 N.am    1  UNL1       -0.3021
     19 H           4.6395   -3.8951   22.5337 H       1  UNL1        0.1497
     20 C           4.4903   -3.7224   20.3787 C.3     1  UNL1        0.0720
     21 C           4.1690   -4.2849   19.0259 C.3     1  UNL1        0.0213
     22 C           3.6280   -2.9452   19.4288 C.3     1  UNL1        0.0213
     23 O           6.4519   -4.1340   32.2822 O.3     1  UNL1       -0.4044
     24 C           6.2590   -2.7236   32.7551 C.3     1  UNL1        0.5753
     25 F           6.0661   -1.3132   33.2279 F       1  UNL1       -0.1328
     26 F           4.7715   -2.9043   32.6873 F       1  UNL1       -0.1328
     27 F           7.7465   -2.5429   32.8228 F       1  UNL1       -0.1328
@<TRIPOS>BOND
     1     1     2    1
     2     2     3   ar
     3     3     4   ar
     4     4     5   ar
     5     5     6   ar
     6     6    23    1
     7    23    24    1
     8    24    25    1
     9    24    26    1
    10    24    27    1
    11     6     7   ar
    12     7     8   ar
    13     8     9   ar
    14     9    10   ar
    15    10    11    1
    16    11    12   ar
    17    12    13   ar
    18    13    14   ar
    19    14    16    1
    20    16    17    2
    21    16    18   am
    22    18    20    1
    23    20    21    1
    24    21    22    1
    25    14    15   ar
    26    10     2   ar
    27    15    11   ar
    28     9     4   ar
    29    22    20    1
    30    18    19    1
@<TRIPOS>MOLECULE
*****
 27 30 0 0 0
SMALL
GASTEIGER

@<TRIPOS>ATOM
      1 C           9.5034   -5.6550   23.2003 C.3     1  UNL1        0.0722
      2 C           8.2526   -4.9702   22.7351 C.ar    1  UNL1        0.1249
      3 N           7.9220   -4.6052   21.3183 N.ar    1  UNL1       -0.2305
      4 C           6.5777   -3.9396   21.3126 C.ar    1  UNL1        0.1017
      5 C           5.7446   -3.3698   20.2031 C.ar    1  UNL1        0.0578
      6 C           4.4112   -2.7536   20.5069 C.ar    1  UNL1        0.1484
      7 C           3.9109   -2.7074   21.9203 C.ar    1  UNL1        0.0388
      8 C           4.7441   -3.2772   23.0298 C.ar    1  UNL1        0.0222
      9 C           6.0775   -3.8934   22.7259 C.ar    1  UNL1        0.0833
     10 N           7.1126   -4.5303   23.6051 N.ar    1  UNL1       -0.2882
     11 C           7.0233   -4.6979   25.0930 C.ar    1  UNL1        0.0953
     12 C           7.1086   -5.9954   25.8408 C.ar    1  UNL1        0.0250
     13 C           6.9711   -5.6969   27.3043 C.ar    1  UNL1        0.0131
     14 C           6.8008   -4.2148   27.4611 C.ar    1  UNL1        0.0841
     15 S           6.8330   -3.5975   26.0944 S.2     1  UNL1       -0.0648
     16 C           6.6284   -3.4794   28.7569 C.2     1  UNL1        0.2519
     17 O           6.1418   -2.0604   28.7551 O.2     1  UNL1       -0.2696
     18 N           6.9427   -4.1627   30.0547 N.am    1  UNL1       -0.3021
     19 H           7.2620   -5.0940   30.0560 H       1  UNL1        0.1497
     20 C           6.7703   -3.4272   31.3506 C.3     1  UNL1        0.0720
     21 C           5.8958   -2.9806   32.4845 C.3     1  UNL1        0.0213
     22 C           7.3464   -2.5997   32.4612 C.3     1  UNL1        0.0213
     23 O           3.5780   -2.1837   19.3973 O.3     1  UNL1       -0.4044
     24 C           3.0148   -0.7987   19.5178 C.3     1  UNL1        0.5753
     25 F           2.4515    0.5863   19.6382 F       1  UNL1       -0.1328
     26 F           1.6653   -1.3746   19.8299 F       1  UNL1       -0.1328
     27 F           4.3642   -0.2228   19.2057 F       1  UNL1       -0.1328
@<TRIPOS>BOND
     1     1     2    1
     2     2     3   ar
     3     3     4   ar
     4     4     5   ar
     5     5     6   ar
     6     6    23    1
     7    23    24    1
     8    24    25    1
     9    24    26    1
    10    24    27    1
    11     6     7   ar
    12     7     8   ar
    13     8     9   ar
    14     9    10   ar
    15    10    11    1
    16    11    12   ar
    17    12    13   ar
    18    13    14   ar
    19    14    16    1
    20    16    17    2
    21    16    18   am
    22    18    20    1
    23    20    21    1
    24    21    22    1
    25    14    15   ar
    26    10     2   ar
    27    15    11   ar
    28     9     4   ar
    29    22    20    1
    30    18    19    1
