@<TRIPOS>MOLECULE
*****
 39 42 0 0 0
SMALL
GASTEIGER

@<TRIPOS>ATOM
      1 C           7.9840   -4.0342   24.2025 C.3     1  UNL1        0.0718
      2 C           8.3449   -4.2743   22.7664 C.3     1  UNL1        0.0201
      3 C           7.2960   -4.1600   21.7003 C.3     1  UNL1        0.0108
      4 C           5.8861   -3.8058   22.0702 C.3     1  UNL1        0.0766
      5 C           5.5252   -3.5657   23.5062 C.3     1  UNL1        0.0108
      6 C           6.5742   -3.6799   24.5723 C.3     1  UNL1        0.0201
      7 C           4.8371   -3.6915   21.0041 C.2     1  UNL1        0.2222
      8 O           4.2157   -4.9291   20.4277 O.2     1  UNL1       -0.2751
      9 N           4.4095   -2.3397   20.5144 N.am    1  UNL1       -0.3004
     10 H           4.8174   -1.5274   20.8927 H       1  UNL1        0.1497
     11 C           3.3606   -2.2255   19.4483 C.3     1  UNL1        0.1163
     12 C           2.5063   -0.9953   19.3654 C.ar    1  UNL1        0.0013
     13 C           1.2964   -0.8620   20.2419 C.ar    1  UNL1       -0.0027
     14 C           0.4421    0.3682   20.1590 C.ar    1  UNL1       -0.0003
     15 C           0.7977    1.4650   19.1996 C.ar    1  UNL1       -0.0001
     16 C           2.0077    1.3317   18.3230 C.ar    1  UNL1        0.0036
     17 C           2.8619    0.1015   18.4059 C.ar    1  UNL1        0.0691
     18 C           4.0718   -0.0318   17.5294 C.3     1  UNL1        0.4183
     19 F           5.2817   -0.1652   16.6528 F       1  UNL1       -0.1659
     20 F           4.8882    0.7141   18.5428 F       1  UNL1       -0.1659
     21 F           3.2554   -0.7777   16.5160 F       1  UNL1       -0.1659
     22 N           9.0330   -4.1484   25.2686 N.pl3   1  UNL1       -0.3045
     23 H           9.9381   -3.7956   25.1084 H       1  UNL1        0.1496
     24 C           8.7360   -6.8880   28.1245 C.ar    1  UNL1        0.2217
     25 N           9.0660   -6.2363   26.8144 N.ar    1  UNL1       -0.1810
     26 C           8.7030   -4.8001   26.5787 C.ar    1  UNL1        0.2216
     27 N           8.0099   -4.0157   27.6531 N.ar    1  UNL1       -0.1808
     28 C           7.6799   -4.6674   28.9631 C.ar    1  UNL1        0.2249
     29 N           8.0429   -6.1036   29.1988 N.ar    1  UNL1       -0.1808
     30 N           6.9868   -3.8829   30.0376 N.pl3   1  UNL1       -0.2752
     31 C           6.9073   -4.4292   31.4322 C.3     1  UNL1        0.1109
     32 C           6.2142   -3.6448   32.5067 C.3     1  UNL1        0.0939
     33 N           5.6007   -2.3140   32.1863 N.3     1  UNL1       -0.2686
     34 C           4.9077   -1.5295   33.2607 C.3     1  UNL1        0.0897
     35 C           5.6803   -1.7677   30.7916 C.3     1  UNL1        0.0939
     36 C           6.3733   -2.5521   29.7172 C.3     1  UNL1        0.1109
     37 C           8.3737   -9.4116   27.6244 C.3     1  UNL1        0.1108
     38 N           9.0990   -8.3242   28.3602 N.pl3   1  UNL1       -0.3012
     39 H           9.8133   -8.5531   28.9979 H       1  UNL1        0.1497
@<TRIPOS>BOND
     1    37    38    1
     2    38    24    1
     3    24    25   ar
     4    25    26   ar
     5    26    22    1
     6    22     1    1
     7     1     2    1
     8     2     3    1
     9     3     4    1
    10     4     7    1
    11     7     8    2
    12     7     9   am
    13     9    11    1
    14    11    12    1
    15    12    13   ar
    16    13    14   ar
    17    14    15   ar
    18    15    16   ar
    19    16    17   ar
    20    17    18    1
    21    18    19    1
    22    18    20    1
    23    18    21    1
    24     4     5    1
    25     5     6    1
    26    26    27   ar
    27    27    28   ar
    28    28    30    1
    29    30    31    1
    30    31    32    1
    31    32    33    1
    32    33    34    1
    33    33    35    1
    34    35    36    1
    35    28    29   ar
    36    29    24   ar
    37     6     1    1
    38    36    30    1
    39    17    12   ar
    40    38    39    1
    41    22    23    1
    42     9    10    1
@<TRIPOS>MOLECULE
*****
 39 42 0 0 0
SMALL
GASTEIGER

@<TRIPOS>ATOM
      1 C           4.0326    0.5434   27.1952 C.3     1  UNL1        0.0718
      2 C           3.7559    1.2513   25.9020 C.3     1  UNL1        0.0201
      3 C           3.7302    0.4804   24.6156 C.3     1  UNL1        0.0108
      4 C           3.9811   -0.9985   24.6224 C.3     1  UNL1        0.0766
      5 C           4.2578   -1.7064   25.9155 C.3     1  UNL1        0.0108
      6 C           4.2835   -0.9354   27.2020 C.3     1  UNL1        0.0201
      7 C           3.9554   -1.7695   23.3359 C.2     1  UNL1        0.2222
      8 O           3.0898   -1.3070   22.2016 O.2     1  UNL1       -0.2751
      9 N           4.7953   -3.0030   23.1838 N.am    1  UNL1       -0.3004
     10 H           5.3634   -3.3066   23.9284 H       1  UNL1        0.1497
     11 C           4.7695   -3.7740   21.8974 C.3     1  UNL1        0.1163
     12 C           5.4783   -3.2395   20.6884 C.ar    1  UNL1        0.0013
     13 C           6.7806   -2.5115   20.8433 C.ar    1  UNL1       -0.0027
     14 C           7.4895   -1.9770   19.6342 C.ar    1  UNL1       -0.0003
     15 C           6.8961   -2.1704   18.2703 C.ar    1  UNL1       -0.0001
     16 C           5.5937   -2.8985   18.1154 C.ar    1  UNL1        0.0036
     17 C           4.8849   -3.4330   19.3244 C.ar    1  UNL1        0.0691
     18 C           3.5826   -4.1610   19.1695 C.3     1  UNL1        0.4183
     19 F           2.2803   -4.8890   19.0145 F       1  UNL1       -0.1659
     20 F           2.8384   -2.8917   19.4612 F       1  UNL1       -0.1659
     21 F           4.3269   -5.4302   18.8777 F       1  UNL1       -0.1659
     22 N           4.0584    1.3144   28.4817 N.pl3   1  UNL1       -0.3045
     23 H           4.8959    1.7301   28.7897 H       1  UNL1        0.1496
     24 C           0.2359    1.1757   29.5397 C.ar    1  UNL1        0.2217
     25 N           1.4862    1.0382   28.7226 N.ar    1  UNL1       -0.1810
     26 C           2.8079    1.4519   29.2988 C.ar    1  UNL1        0.2216
     27 N           2.8793    2.0030   30.6920 N.ar    1  UNL1       -0.1808
     28 C           1.6289    2.1405   31.5091 C.ar    1  UNL1        0.2249
     29 N           0.3072    1.7269   30.9329 N.ar    1  UNL1       -0.1808
     30 N           1.7002    2.6917   32.9023 N.pl3   1  UNL1       -0.2752
     31 C           1.0298    3.9931   33.2293 C.3     1  UNL1        0.1109
     32 C           1.1011    4.5443   34.6226 C.3     1  UNL1        0.0939
     33 N           1.8427    3.7940   35.6889 N.3     1  UNL1       -0.2686
     34 C           1.9140    4.3452   37.0821 C.3     1  UNL1        0.0897
     35 C           2.5131    2.4926   35.3619 C.3     1  UNL1        0.0939
     36 C           2.4418    1.9414   33.9687 C.3     1  UNL1        0.1109
     37 C          -1.4077   -0.6931   28.7941 C.3     1  UNL1        0.1108
     38 N          -1.0858    0.7620   28.9635 N.pl3   1  UNL1       -0.3012
     39 H          -1.7421    1.4457   28.6965 H       1  UNL1        0.1497
@<TRIPOS>BOND
     1    37    38    1
     2    38    24    1
     3    24    25   ar
     4    25    26   ar
     5    26    22    1
     6    22     1    1
     7     1     2    1
     8     2     3    1
     9     3     4    1
    10     4     7    1
    11     7     8    2
    12     7     9   am
    13     9    11    1
    14    11    12    1
    15    12    13   ar
    16    13    14   ar
    17    14    15   ar
    18    15    16   ar
    19    16    17   ar
    20    17    18    1
    21    18    19    1
    22    18    20    1
    23    18    21    1
    24     4     5    1
    25     5     6    1
    26    26    27   ar
    27    27    28   ar
    28    28    30    1
    29    30    31    1
    30    31    32    1
    31    32    33    1
    32    33    34    1
    33    33    35    1
    34    35    36    1
    35    28    29   ar
    36    29    24   ar
    37     6     1    1
    38    36    30    1
    39    17    12   ar
    40    38    39    1
    41    22    23    1
    42     9    10    1
@<TRIPOS>MOLECULE
*****
 39 42 0 0 0
SMALL
GASTEIGER

@<TRIPOS>ATOM
      1 C           6.3815   -1.8898   28.1860 C.3     1  UNL1        0.0718
      2 C           6.6368   -3.3613   28.0458 C.3     1  UNL1        0.0201
      3 C           6.5769   -4.0073   26.6933 C.3     1  UNL1        0.0108
      4 C           6.2618   -3.1819   25.4811 C.3     1  UNL1        0.0766
      5 C           6.0066   -1.7104   25.6214 C.3     1  UNL1        0.0108
      6 C           6.0664   -1.0644   26.9739 C.3     1  UNL1        0.0201
      7 C           6.2019   -3.8279   24.1287 C.2     1  UNL1        0.2222
      8 O           7.1616   -4.9264   23.7791 O.2     1  UNL1       -0.2751
      9 N           5.1823   -3.3753   23.1258 N.am    1  UNL1       -0.3004
     10 H           4.5524   -2.6543   23.3553 H       1  UNL1        0.1497
     11 C           5.1224   -4.0213   21.7734 C.3     1  UNL1        0.1163
     12 C           5.7402   -3.3397   20.5886 C.ar    1  UNL1        0.0013
     13 C           7.0444   -2.6138   20.7368 C.ar    1  UNL1       -0.0027
     14 C           7.6622   -1.9321   19.5520 C.ar    1  UNL1       -0.0003
     15 C           6.9757   -1.9764   18.2190 C.ar    1  UNL1       -0.0001
     16 C           5.6714   -2.7023   18.0709 C.ar    1  UNL1        0.0036
     17 C           5.0537   -3.3840   19.2557 C.ar    1  UNL1        0.0691
     18 C           3.7495   -4.1099   19.1075 C.3     1  UNL1        0.4183
     19 F           2.4451   -4.8358   18.9593 F       1  UNL1       -0.1659
     20 F           4.4861   -5.3481   18.6903 F       1  UNL1       -0.1659
     21 F           3.0129   -2.8716   19.5247 F       1  UNL1       -0.1659
     22 N           6.4414   -1.2438   29.5384 N.pl3   1  UNL1       -0.3045
     23 H           7.3129   -1.0596   29.9578 H       1  UNL1        0.1496
     24 C           2.5992   -0.5288   30.2284 C.ar    1  UNL1        0.2217
     25 N           3.8671   -0.8940   29.5150 N.ar    1  UNL1       -0.1810
     26 C           5.1735   -0.8785   30.2519 C.ar    1  UNL1        0.2216
     27 N           5.2120   -0.4978   31.7022 N.ar    1  UNL1       -0.1808
     28 C           3.9441   -0.1325   32.4156 C.ar    1  UNL1        0.2249
     29 N           2.6377   -0.1480   31.6787 N.ar    1  UNL1       -0.1808
     30 N           3.9825    0.2483   33.8660 N.pl3   1  UNL1       -0.2752
     31 C           4.6988   -0.6259   34.8522 C.3     1  UNL1        0.1109
     32 C           4.7373   -0.2451   36.3026 C.3     1  UNL1        0.0939
     33 N           4.0594    1.0099   36.7667 N.3     1  UNL1       -0.2686
     34 C           4.0979    1.3907   38.2171 C.3     1  UNL1        0.0897
     35 C           3.3432    1.8842   35.7804 C.3     1  UNL1        0.0939
     36 C           3.3047    1.5034   34.3301 C.3     1  UNL1        0.1109
     37 C           0.9079    0.6164   28.6228 C.3     1  UNL1        0.1108
     38 N           1.2928   -0.5443   29.4914 N.pl3   1  UNL1       -0.3012
     39 H           0.6880   -1.3163   29.5779 H       1  UNL1        0.1497
@<TRIPOS>BOND
     1    37    38    1
     2    38    24    1
     3    24    25   ar
     4    25    26   ar
     5    26    22    1
     6    22     1    1
     7     1     2    1
     8     2     3    1
     9     3     4    1
    10     4     7    1
    11     7     8    2
    12     7     9   am
    13     9    11    1
    14    11    12    1
    15    12    13   ar
    16    13    14   ar
    17    14    15   ar
    18    15    16   ar
    19    16    17   ar
    20    17    18    1
    21    18    19    1
    22    18    20    1
    23    18    21    1
    24     4     5    1
    25     5     6    1
    26    26    27   ar
    27    27    28   ar
    28    28    30    1
    29    30    31    1
    30    31    32    1
    31    32    33    1
    32    33    34    1
    33    33    35    1
    34    35    36    1
    35    28    29   ar
    36    29    24   ar
    37     6     1    1
    38    36    30    1
    39    17    12   ar
    40    38    39    1
    41    22    23    1
    42     9    10    1
@<TRIPOS>MOLECULE
*****
 39 42 0 0 0
SMALL
GASTEIGER

@<TRIPOS>ATOM
      1 C           0.4330    1.8498   28.9106 C.3     1  UNL1        0.0718
      2 C          -0.5114    1.1190   28.0028 C.3     1  UNL1        0.0201
      3 C          -0.1890    0.9735   26.5451 C.3     1  UNL1        0.0108
      4 C           1.0780    1.5589   25.9952 C.3     1  UNL1        0.0766
      5 C           2.0224    2.2896   26.9030 C.3     1  UNL1        0.0108
      6 C           1.6999    2.4351   28.3606 C.3     1  UNL1        0.0201
      7 C           1.4005    1.4134   24.5375 C.2     1  UNL1        0.2222
      8 O           0.8187    2.3722   23.5414 O.2     1  UNL1       -0.2751
      9 N           2.3048    0.3092   24.0760 N.am    1  UNL1       -0.3004
     10 H           2.6866   -0.3201   24.7298 H       1  UNL1        0.1497
     11 C           2.6273    0.1637   22.6183 C.3     1  UNL1        0.1163
     12 C           3.2303   -1.1110   22.1071 C.ar    1  UNL1        0.0013
     13 C           3.9695   -2.0195   23.0442 C.ar    1  UNL1       -0.0027
     14 C           4.5726   -3.2944   22.5330 C.ar    1  UNL1       -0.0003
     15 C           4.4364   -3.6606   21.0848 C.ar    1  UNL1       -0.0001
     16 C           3.6972   -2.7520   20.1477 C.ar    1  UNL1        0.0036
     17 C           3.0941   -1.4772   20.6589 C.ar    1  UNL1        0.0691
     18 C           2.3549   -0.5687   19.7218 C.3     1  UNL1        0.4183
     19 F           1.6157    0.3399   18.7847 F       1  UNL1       -0.1659
     20 F           1.0636   -1.2344   20.0951 F       1  UNL1       -0.1659
     21 F           3.6462    0.0970   19.3486 F       1  UNL1       -0.1659
     22 N           0.1106    1.9952   30.3682 N.pl3   1  UNL1       -0.3045
     23 H          -0.7794    2.3112   30.6464 H       1  UNL1        0.1496
     24 C           2.2120    2.0745   33.7339 C.ar    1  UNL1        0.2217
     25 N           1.1786    2.4105   32.7000 N.ar    1  UNL1       -0.1810
     26 C           1.1441    1.6591   31.4022 C.ar    1  UNL1        0.2216
     27 N           2.1430    0.5718   31.1383 N.ar    1  UNL1       -0.1808
     28 C           3.1765    0.2358   32.1722 C.ar    1  UNL1        0.2249
     29 N           3.2110    0.9871   33.4700 N.ar    1  UNL1       -0.1808
     30 N           4.1755   -0.8516   31.9084 N.pl3   1  UNL1       -0.2752
     31 C           4.9353   -0.8744   30.6152 C.3     1  UNL1        0.1109
     32 C           5.9344   -1.9618   30.3514 C.3     1  UNL1        0.0939
     33 N           6.1736   -3.0264   31.3807 N.3     1  UNL1       -0.2686
     34 C           7.1725   -4.1138   31.1169 C.3     1  UNL1        0.0897
     35 C           5.4137   -3.0036   32.6738 C.3     1  UNL1        0.0939
     36 C           4.4147   -1.9162   32.9377 C.3     1  UNL1        0.1109
     37 C           2.9774    2.2540   36.2102 C.3     1  UNL1        0.1108
     38 N           2.2465    2.8258   35.0317 N.pl3   1  UNL1       -0.3012
     39 H           1.7894    3.6942   35.1101 H       1  UNL1        0.1497
@<TRIPOS>BOND
     1    37    38    1
     2    38    24    1
     3    24    25   ar
     4    25    26   ar
     5    26    22    1
     6    22     1    1
     7     1     2    1
     8     2     3    1
     9     3     4    1
    10     4     7    1
    11     7     8    2
    12     7     9   am
    13     9    11    1
    14    11    12    1
    15    12    13   ar
    16    13    14   ar
    17    14    15   ar
    18    15    16   ar
    19    16    17   ar
    20    17    18    1
    21    18    19    1
    22    18    20    1
    23    18    21    1
    24     4     5    1
    25     5     6    1
    26    26    27   ar
    27    27    28   ar
    28    28    30    1
    29    30    31    1
    30    31    32    1
    31    32    33    1
    32    33    34    1
    33    33    35    1
    34    35    36    1
    35    28    29   ar
    36    29    24   ar
    37     6     1    1
    38    36    30    1
    39    17    12   ar
    40    38    39    1
    41    22    23    1
    42     9    10    1
@<TRIPOS>MOLECULE
*****
 39 42 0 0 0
SMALL
GASTEIGER

@<TRIPOS>ATOM
      1 C           7.4509   -2.3691   27.3811 C.3     1  UNL1        0.0718
      2 C           7.6714   -3.7552   26.8518 C.3     1  UNL1        0.0201
      3 C           7.1093   -4.1466   25.5173 C.3     1  UNL1        0.0108
      4 C           6.3267   -3.1519   24.7122 C.3     1  UNL1        0.0766
      5 C           6.1062   -1.7659   25.2416 C.3     1  UNL1        0.0108
      6 C           6.6684   -1.3745   26.5760 C.3     1  UNL1        0.0201
      7 C           5.7645   -3.5433   23.3777 C.2     1  UNL1        0.2222
      8 O           6.4494   -4.5934   22.5542 O.2     1  UNL1       -0.2751
      9 N           4.5175   -2.8845   22.8668 N.am    1  UNL1       -0.3004
     10 H           4.0679   -2.1953   23.4073 H       1  UNL1        0.1497
     11 C           3.9553   -3.2759   21.5323 C.3     1  UNL1        0.1163
     12 C           3.7885   -2.2437   20.4568 C.ar    1  UNL1        0.0013
     13 C           3.3930   -0.8424   20.8172 C.ar    1  UNL1       -0.0027
     14 C           3.2261    0.1899   19.7417 C.ar    1  UNL1       -0.0003
     15 C           3.4547   -0.1793   18.3059 C.ar    1  UNL1       -0.0001
     16 C           3.8502   -1.5807   17.9456 C.ar    1  UNL1        0.0036
     17 C           4.0171   -2.6129   19.0211 C.ar    1  UNL1        0.0691
     18 C           4.4125   -4.0142   18.6607 C.3     1  UNL1        0.4183
     19 F           4.8080   -5.4156   18.3004 F       1  UNL1       -0.1659
     20 F           5.8498   -3.5908   18.5918 F       1  UNL1       -0.1659
     21 F           2.9752   -4.4375   18.7297 F       1  UNL1       -0.1659
     22 N           8.0131   -1.9777   28.7156 N.pl3   1  UNL1       -0.3045
     23 H           8.8652   -1.4873   28.7661 H       1  UNL1        0.1496
     24 C           6.6194   -4.0843   31.7767 C.ar    1  UNL1        0.2217
     25 N           7.3557   -3.7284   30.5192 N.ar    1  UNL1       -0.1810
     26 C           7.2768   -2.3336   29.9731 C.ar    1  UNL1        0.2216
     27 N           6.4617   -1.2946   30.6846 N.ar    1  UNL1       -0.1808
     28 C           5.7255   -1.6505   31.9421 C.ar    1  UNL1        0.2249
     29 N           5.8044   -3.0454   32.4881 N.ar    1  UNL1       -0.1808
     30 N           4.9104   -0.6115   32.6536 N.pl3   1  UNL1       -0.2752
     31 C           5.3460   -0.1073   33.9974 C.3     1  UNL1        0.1109
     32 C           4.5308    0.9317   34.7089 C.3     1  UNL1        0.0939
     33 N           3.2802    1.4664   34.0765 N.3     1  UNL1       -0.2686
     34 C           2.4651    2.5053   34.7879 C.3     1  UNL1        0.0897
     35 C           2.8446    0.9621   32.7326 C.3     1  UNL1        0.0939
     36 C           3.6597   -0.0768   32.0211 C.3     1  UNL1        0.1109
     37 C           7.7413   -6.4275   31.8100 C.3     1  UNL1        0.1108
     38 N           6.6983   -5.4792   32.3227 N.pl3   1  UNL1       -0.3012
     39 H           6.0655   -5.7723   33.0176 H       1  UNL1        0.1497
@<TRIPOS>BOND
     1    37    38    1
     2    38    24    1
     3    24    25   ar
     4    25    26   ar
     5    26    22    1
     6    22     1    1
     7     1     2    1
     8     2     3    1
     9     3     4    1
    10     4     7    1
    11     7     8    2
    12     7     9   am
    13     9    11    1
    14    11    12    1
    15    12    13   ar
    16    13    14   ar
    17    14    15   ar
    18    15    16   ar
    19    16    17   ar
    20    17    18    1
    21    18    19    1
    22    18    20    1
    23    18    21    1
    24     4     5    1
    25     5     6    1
    26    26    27   ar
    27    27    28   ar
    28    28    30    1
    29    30    31    1
    30    31    32    1
    31    32    33    1
    32    33    34    1
    33    33    35    1
    34    35    36    1
    35    28    29   ar
    36    29    24   ar
    37     6     1    1
    38    36    30    1
    39    17    12   ar
    40    38    39    1
    41    22    23    1
    42     9    10    1
@<TRIPOS>MOLECULE
*****
 39 42 0 0 0
SMALL
GASTEIGER

@<TRIPOS>ATOM
      1 C           6.3716   -2.8428   32.7868 C.3     1  UNL1        0.0718
      2 C           7.1594   -1.5949   33.0556 C.3     1  UNL1        0.0201
      3 C           6.5104   -0.4323   33.7464 C.3     1  UNL1        0.0108
      4 C           5.0735   -0.5177   34.1685 C.3     1  UNL1        0.0766
      5 C           4.2857   -1.7656   33.8998 C.3     1  UNL1        0.0108
      6 C           4.9348   -2.9281   33.2089 C.3     1  UNL1        0.0201
      7 C           4.4244    0.6448   34.8594 C.2     1  UNL1        0.2222
      8 O           3.4021    1.4711   34.1369 O.2     1  UNL1       -0.2751
      9 N           4.7977    0.9810   36.2728 N.am    1  UNL1       -0.3004
     10 H           5.4687    0.4386   36.7470 H       1  UNL1        0.1497
     11 C           4.1486    2.1435   36.9636 C.3     1  UNL1        0.1163
     12 C           2.9446    1.9237   37.8308 C.ar    1  UNL1        0.0013
     13 C           2.7180    0.5881   38.4748 C.ar    1  UNL1       -0.0027
     14 C           1.5139    0.3682   39.3420 C.ar    1  UNL1       -0.0003
     15 C           0.5365    1.4840   39.5651 C.ar    1  UNL1       -0.0001
     16 C           0.7632    2.8196   38.9210 C.ar    1  UNL1        0.0036
     17 C           1.9672    3.0394   38.0539 C.ar    1  UNL1        0.0691
     18 C           2.1938    4.3750   37.4098 C.3     1  UNL1        0.4183
     19 F           2.4204    5.7106   36.7657 F       1  UNL1       -0.1659
     20 F           3.0551    4.7868   38.5668 F       1  UNL1       -0.1659
     21 F           1.3326    3.9632   36.2528 F       1  UNL1       -0.1659
     22 N           7.0207   -4.0053   32.0960 N.pl3   1  UNL1       -0.3045
     23 H           7.5644   -4.6435   32.6120 H       1  UNL1        0.1496
     24 C           6.9834   -5.7080   28.5113 C.ar    1  UNL1        0.2217
     25 N           7.1627   -5.5179   29.9884 N.ar    1  UNL1       -0.1810
     26 C           6.8414   -4.1953   30.6189 C.ar    1  UNL1        0.2216
     27 N           6.3407   -3.0628   29.7723 N.ar    1  UNL1       -0.1808
     28 C           6.1614   -3.2529   28.2953 C.ar    1  UNL1        0.2249
     29 N           6.4828   -4.5755   27.6648 N.ar    1  UNL1       -0.1808
     30 N           5.6607   -2.1203   27.4486 N.pl3   1  UNL1       -0.2752
     31 C           4.2377   -1.6627   27.5734 C.3     1  UNL1        0.1109
     32 C           3.7371   -0.5302   26.7268 C.3     1  UNL1        0.0939
     33 N           4.6595    0.1447   25.7553 N.3     1  UNL1       -0.2686
     34 C           4.1588    1.2772   24.9087 C.3     1  UNL1        0.0897
     35 C           6.0825   -0.3130   25.6305 C.3     1  UNL1        0.0939
     36 C           6.5831   -1.4454   26.4772 C.3     1  UNL1        0.1109
     37 C           8.6289   -7.6846   28.1434 C.3     1  UNL1        0.1108
     38 N           7.3048   -7.0306   27.8809 N.pl3   1  UNL1       -0.3012
     39 H           6.6466   -7.4694   27.2948 H       1  UNL1        0.1497
@<TRIPOS>BOND
     1    37    38    1
     2    38    24    1
     3    24    25   ar
     4    25    26   ar
     5    26    22    1
     6    22     1    1
     7     1     2    1
     8     2     3    1
     9     3     4    1
    10     4     7    1
    11     7     8    2
    12     7     9   am
    13     9    11    1
    14    11    12    1
    15    12    13   ar
    16    13    14   ar
    17    14    15   ar
    18    15    16   ar
    19    16    17   ar
    20    17    18    1
    21    18    19    1
    22    18    20    1
    23    18    21    1
    24     4     5    1
    25     5     6    1
    26    26    27   ar
    27    27    28   ar
    28    28    30    1
    29    30    31    1
    30    31    32    1
    31    32    33    1
    32    33    34    1
    33    33    35    1
    34    35    36    1
    35    28    29   ar
    36    29    24   ar
    37     6     1    1
    38    36    30    1
    39    17    12   ar
    40    38    39    1
    41    22    23    1
    42     9    10    1
@<TRIPOS>MOLECULE
*****
 39 42 0 0 0
SMALL
GASTEIGER

@<TRIPOS>ATOM
      1 C           2.2334   -1.1147   20.6953 C.3     1  UNL1        0.0718
      2 C           3.2046   -2.1213   20.1535 C.3     1  UNL1        0.0201
      3 C           4.3724   -2.5604   20.9862 C.3     1  UNL1        0.0108
      4 C           4.5690   -1.9928   22.3607 C.3     1  UNL1        0.0766
      5 C           3.5978   -0.9862   22.9025 C.3     1  UNL1        0.0108
      6 C           2.4300   -0.5471   22.0697 C.3     1  UNL1        0.0201
      7 C           5.7368   -2.4319   23.1935 C.2     1  UNL1        0.2222
      8 O           7.0675   -1.7584   23.0334 O.2     1  UNL1       -0.2751
      9 N           5.5739   -3.5445   24.1863 N.am    1  UNL1       -0.3004
     10 H           4.7005   -3.9865   24.2914 H       1  UNL1        0.1497
     11 C           6.7417   -3.9835   25.0190 C.3     1  UNL1        0.1163
     12 C           7.5489   -5.1790   24.6077 C.ar    1  UNL1        0.0013
     13 C           8.0262   -5.3105   23.1918 C.ar    1  UNL1       -0.0027
     14 C           8.8335   -6.5060   22.7803 C.ar    1  UNL1       -0.0003
     15 C           9.1634   -7.5699   23.7849 C.ar    1  UNL1       -0.0001
     16 C           8.6860   -7.4384   25.2009 C.ar    1  UNL1        0.0036
     17 C           7.8788   -6.2429   25.6122 C.ar    1  UNL1        0.0691
     18 C           7.4015   -6.1114   27.0281 C.3     1  UNL1        0.4183
     19 F           6.9243   -5.9799   28.4441 F       1  UNL1       -0.1659
     20 F           6.1524   -6.8640   26.6770 F       1  UNL1       -0.1659
     21 F           8.6507   -5.3589   27.3793 F       1  UNL1       -0.1659
     22 N           1.0656   -0.6756   19.8626 N.pl3   1  UNL1       -0.3045
     23 H           0.5471   -1.3395   19.3529 H       1  UNL1        0.1496
     24 C           1.1413    3.1867   18.9531 C.ar    1  UNL1        0.2217
     25 N           1.5190    1.7362   19.0094 N.ar    1  UNL1       -0.1810
     26 C           0.6877    0.7750   19.8063 C.ar    1  UNL1        0.2216
     27 N          -0.5214    1.2643   20.5469 N.ar    1  UNL1       -0.1808
     28 C          -0.8992    2.7149   20.4906 C.ar    1  UNL1        0.2249
     29 N          -0.0678    3.6760   19.6937 N.ar    1  UNL1       -0.1808
     30 N          -2.1083    3.2043   21.2312 N.pl3   1  UNL1       -0.2752
     31 C          -1.9752    3.6981   22.6413 C.3     1  UNL1        0.1109
     32 C          -3.1844    4.1875   23.3820 C.3     1  UNL1        0.0939
     33 N          -4.5266    4.1831   22.7124 N.3     1  UNL1       -0.2686
     34 C          -5.7358    4.6725   23.4530 C.3     1  UNL1        0.0897
     35 C          -4.6597    3.6893   21.3022 C.3     1  UNL1        0.0939
     36 C          -3.4506    3.1999   20.5617 C.3     1  UNL1        0.1109
     37 C           3.4394    3.8954   17.9702 C.3     1  UNL1        0.1108
     38 N           1.9726    4.1479   18.1562 N.pl3   1  UNL1       -0.3012
     39 H           1.5555    4.9444   17.7553 H       1  UNL1        0.1497
@<TRIPOS>BOND
     1    37    38    1
     2    38    24    1
     3    24    25   ar
     4    25    26   ar
     5    26    22    1
     6    22     1    1
     7     1     2    1
     8     2     3    1
     9     3     4    1
    10     4     7    1
    11     7     8    2
    12     7     9   am
    13     9    11    1
    14    11    12    1
    15    12    13   ar
    16    13    14   ar
    17    14    15   ar
    18    15    16   ar
    19    16    17   ar
    20    17    18    1
    21    18    19    1
    22    18    20    1
    23    18    21    1
    24     4     5    1
    25     5     6    1
    26    26    27   ar
    27    27    28   ar
    28    28    30    1
    29    30    31    1
    30    31    32    1
    31    32    33    1
    32    33    34    1
    33    33    35    1
    34    35    36    1
    35    28    29   ar
    36    29    24   ar
    37     6     1    1
    38    36    30    1
    39    17    12   ar
    40    38    39    1
    41    22    23    1
    42     9    10    1
@<TRIPOS>MOLECULE
*****
 39 42 0 0 0
SMALL
GASTEIGER

@<TRIPOS>ATOM
      1 C           1.3406    3.0722   18.8254 C.3     1  UNL1        0.0718
      2 C           2.7891    3.3933   18.6038 C.3     1  UNL1        0.0201
      3 C           3.7396    2.3144   18.1766 C.3     1  UNL1        0.0108
      4 C           3.2416    0.9144   17.9710 C.3     1  UNL1        0.0766
      5 C           1.7933    0.5934   18.1926 C.3     1  UNL1        0.0108
      6 C           0.8428    1.6723   18.6198 C.3     1  UNL1        0.0201
      7 C           4.1922   -0.1645   17.5438 C.2     1  UNL1        0.2222
      8 O           3.8580   -1.0370   16.3703 O.2     1  UNL1       -0.2751
      9 N           5.4769   -0.3708   18.2900 N.am    1  UNL1       -0.3004
     10 H           5.6963    0.2018   19.0602 H       1  UNL1        0.1497
     11 C           6.4274   -1.4497   17.8628 C.3     1  UNL1        0.1163
     12 C           7.0502   -2.3499   18.8884 C.ar    1  UNL1        0.0013
     13 C           8.5249   -2.2782   19.1527 C.ar    1  UNL1       -0.0027
     14 C           9.1478   -3.1784   20.1783 C.ar    1  UNL1       -0.0003
     15 C           8.2958   -4.1503   20.9395 C.ar    1  UNL1       -0.0001
     16 C           6.8209   -4.2220   20.6752 C.ar    1  UNL1        0.0036
     17 C           6.1982   -3.3218   19.6496 C.ar    1  UNL1        0.0691
     18 C           4.7234   -3.3936   19.3853 C.3     1  UNL1        0.4183
     19 F           3.2486   -3.4654   19.1209 F       1  UNL1       -0.1659
     20 F           4.4788   -2.3972   20.4795 F       1  UNL1       -0.1659
     21 F           4.9680   -4.3899   18.2911 F       1  UNL1       -0.1659
     22 N           0.3901    4.1511   19.2526 N.pl3   1  UNL1       -0.3045
     23 H           0.4801    5.0602   18.8855 H       1  UNL1        0.1496
     24 C          -3.2173    3.5155   20.7799 C.ar    1  UNL1        0.2217
     25 N          -2.1296    3.8217   19.7934 N.ar    1  UNL1       -0.1810
     26 C          -0.6976    3.8449   20.2392 C.ar    1  UNL1        0.2216
     27 N          -0.3532    3.5620   21.6714 N.ar    1  UNL1       -0.1808
     28 C          -1.4409    3.2558   22.6579 C.ar    1  UNL1        0.2249
     29 N          -2.8729    3.2326   22.2121 N.ar    1  UNL1       -0.1808
     30 N          -1.0965    2.9729   24.0902 N.pl3   1  UNL1       -0.2752
     31 C          -1.9483    3.5323   25.1909 C.3     1  UNL1        0.1109
     32 C          -1.6039    3.2493   26.6232 C.3     1  UNL1        0.0939
     33 N          -0.4078    2.4070   26.9547 N.3     1  UNL1       -0.2686
     34 C          -0.0635    2.1241   28.3870 C.3     1  UNL1        0.0897
     35 C           0.4439    1.8477   25.8539 C.3     1  UNL1        0.0939
     36 C           0.0996    2.1306   24.4217 C.3     1  UNL1        0.1109
     37 C          -4.9859    3.6643   18.8826 C.3     1  UNL1        0.1108
     38 N          -4.6494    3.4922   20.3342 N.pl3   1  UNL1       -0.3012
     39 H          -5.3684    3.3640   20.9943 H       1  UNL1        0.1497
@<TRIPOS>BOND
     1    37    38    1
     2    38    24    1
     3    24    25   ar
     4    25    26   ar
     5    26    22    1
     6    22     1    1
     7     1     2    1
     8     2     3    1
     9     3     4    1
    10     4     7    1
    11     7     8    2
    12     7     9   am
    13     9    11    1
    14    11    12    1
    15    12    13   ar
    16    13    14   ar
    17    14    15   ar
    18    15    16   ar
    19    16    17   ar
    20    17    18    1
    21    18    19    1
    22    18    20    1
    23    18    21    1
    24     4     5    1
    25     5     6    1
    26    26    27   ar
    27    27    28   ar
    28    28    30    1
    29    30    31    1
    30    31    32    1
    31    32    33    1
    32    33    34    1
    33    33    35    1
    34    35    36    1
    35    28    29   ar
    36    29    24   ar
    37     6     1    1
    38    36    30    1
    39    17    12   ar
    40    38    39    1
    41    22    23    1
    42     9    10    1
@<TRIPOS>MOLECULE
*****
 39 42 0 0 0
SMALL
GASTEIGER

@<TRIPOS>ATOM
      1 C           7.2044   -2.8923   27.7020 C.3     1  UNL1        0.0718
      2 C           6.7978   -4.3042   27.3998 C.3     1  UNL1        0.0201
      3 C           6.7498   -4.7831   25.9791 C.3     1  UNL1        0.0108
      4 C           7.1083   -3.8500   24.8606 C.3     1  UNL1        0.0766
      5 C           7.5149   -2.4382   25.1629 C.3     1  UNL1        0.0108
      6 C           7.5629   -1.9593   26.5836 C.3     1  UNL1        0.0201
      7 C           7.0602   -4.3289   23.4399 C.2     1  UNL1        0.2222
      8 O           7.7071   -5.6290   23.0644 O.2     1  UNL1       -0.2751
      9 N           6.3652   -3.5075   22.3947 N.am    1  UNL1       -0.3004
     10 H           5.9406   -2.6541   22.6412 H       1  UNL1        0.1497
     11 C           6.3172   -3.9863   20.9740 C.3     1  UNL1        0.1163
     12 C           6.2611   -2.9948   19.8499 C.ar    1  UNL1        0.0013
     13 C           7.3769   -2.0101   19.6621 C.ar    1  UNL1       -0.0027
     14 C           7.3209   -1.0185   18.5379 C.ar    1  UNL1       -0.0003
     15 C           6.1491   -1.0118   17.6015 C.ar    1  UNL1       -0.0001
     16 C           5.0332   -1.9966   17.7894 C.ar    1  UNL1        0.0036
     17 C           5.0893   -2.9881   18.9135 C.ar    1  UNL1        0.0691
     18 C           3.9735   -3.9728   19.1013 C.3     1  UNL1        0.4183
     19 F           2.8577   -4.9577   19.2890 F       1  UNL1       -0.1659
     20 F           3.2290   -2.9707   19.9328 F       1  UNL1       -0.1659
     21 F           4.7180   -4.9749   18.2698 F       1  UNL1       -0.1659
     22 N           7.2525   -2.4134   29.1227 N.pl3   1  UNL1       -0.3045
     23 H           8.1065   -2.4102   29.6125 H       1  UNL1        0.1496
     24 C           4.5731   -1.6532   31.9500 C.ar    1  UNL1        0.2217
     25 N           5.8263   -2.1271   31.2754 N.ar    1  UNL1       -0.1810
     26 C           5.9993   -1.9396   29.7973 C.ar    1  UNL1        0.2216
     27 N           4.9191   -1.2782   28.9937 N.ar    1  UNL1       -0.1808
     28 C           3.6660   -0.8044   29.6682 C.ar    1  UNL1        0.2249
     29 N           3.4930   -0.9919   31.1464 N.ar    1  UNL1       -0.1808
     30 N           2.5857   -0.1430   28.8646 N.pl3   1  UNL1       -0.2752
     31 C           1.1600   -0.2103   29.3258 C.3     1  UNL1        0.1109
     32 C           0.0797    0.4511   28.5222 C.3     1  UNL1        0.0939
     33 N           0.4253    1.1798   27.2574 N.3     1  UNL1       -0.2686
     34 C          -0.6548    1.8412   26.4538 C.3     1  UNL1        0.0897
     35 C           1.8511    1.2471   26.7962 C.3     1  UNL1        0.0939
     36 C           2.9313    0.5857   27.5998 C.3     1  UNL1        0.1109
     37 C           4.7943   -0.7456   34.3742 C.3     1  UNL1        0.1108
     38 N           4.4001   -1.8407   33.4281 N.pl3   1  UNL1       -0.3012
     39 H           4.0279   -2.6826   33.7773 H       1  UNL1        0.1497
@<TRIPOS>BOND
     1    37    38    1
     2    38    24    1
     3    24    25   ar
     4    25    26   ar
     5    26    22    1
     6    22     1    1
     7     1     2    1
     8     2     3    1
     9     3     4    1
    10     4     7    1
    11     7     8    2
    12     7     9   am
    13     9    11    1
    14    11    12    1
    15    12    13   ar
    16    13    14   ar
    17    14    15   ar
    18    15    16   ar
    19    16    17   ar
    20    17    18    1
    21    18    19    1
    22    18    20    1
    23    18    21    1
    24     4     5    1
    25     5     6    1
    26    26    27   ar
    27    27    28   ar
    28    28    30    1
    29    30    31    1
    30    31    32    1
    31    32    33    1
    32    33    34    1
    33    33    35    1
    34    35    36    1
    35    28    29   ar
    36    29    24   ar
    37     6     1    1
    38    36    30    1
    39    17    12   ar
    40    38    39    1
    41    22    23    1
    42     9    10    1
