@<TRIPOS>MOLECULE
*****
 20 21 0 0 0
SMALL
GASTEIGER

@<TRIPOS>ATOM
      1 C         -11.6458  -18.7582   24.0912 C.ar    1  UNL1        0.1418
      2 C         -10.6102  -19.7809   24.4537 C.ar    1  UNL1        0.0371
      3 C          -9.3693  -19.9190   23.6223 C.ar    1  UNL1        0.0061
      4 C          -9.1640  -19.0344   22.4285 C.ar    1  UNL1        0.0343
      5 C         -10.1997  -18.0117   22.0659 C.ar    1  UNL1        0.1417
      6 C         -11.4406  -17.8736   22.8973 C.ar    1  UNL1        0.0737
      7 C         -14.1628  -18.1463   24.2923 C.3     1  UNL1        0.2525
      8 O         -12.8867  -18.6200   24.9225 O.3     1  UNL1       -0.4713
      9 C          -7.9232  -19.1725   21.5971 C.2     1  UNL1        0.0063
     10 C          -6.7437  -19.9305   22.1303 C.2     1  UNL1        0.0436
     11 C          -5.5028  -20.0686   21.2990 C.2     1  UNL1        0.2111
     12 O          -5.4922  -20.9888   20.1145 O.2     1  UNL1       -0.2850
     13 C          -4.2725  -19.2864   21.6522 C.ar    1  UNL1        0.0961
     14 C          -2.8567  -19.6978   21.3759 C.ar    1  UNL1        0.0218
     15 C          -1.9512  -18.6213   21.8966 C.ar    1  UNL1        0.0200
     16 C          -2.8074  -17.5445   22.4946 C.ar    1  UNL1        0.0725
     17 N          -4.2421  -17.9556   22.3435 N.ar    1  UNL1       -0.3495
     18 H          -5.0260  -17.4422   22.6452 H       1  UNL1        0.1661
     19 O          -9.9945  -17.1271   20.8720 O.3     1  UNL1       -0.4713
     20 C         -11.1786  -16.5665   20.1415 C.3     1  UNL1        0.2525
@<TRIPOS>BOND
     1     7     8    1
     2     8     1    1
     3     1     2   ar
     4     2     3   ar
     5     3     4   ar
     6     4     9    1
     7     9    10    2
     8    10    11    1
     9    11    12    2
    10    11    13    1
    11    13    14   ar
    12    14    15   ar
    13    15    16   ar
    14    16    17   ar
    15     4     5   ar
    16     5    19    1
    17    19    20    1
    18     5     6   ar
    19     6     1   ar
    20    17    13   ar
    21    17    18    1
@<TRIPOS>MOLECULE
*****
 20 21 0 0 0
SMALL
GASTEIGER

@<TRIPOS>ATOM
      1 C         -10.7514  -18.5749   21.1290 C.ar    1  UNL1        0.1418
      2 C         -10.3161  -19.4795   20.0145 C.ar    1  UNL1        0.0371
      3 C          -8.8607  -19.6018   19.6728 C.ar    1  UNL1        0.0061
      4 C          -7.8406  -18.8194   20.4455 C.ar    1  UNL1        0.0343
      5 C          -8.2759  -17.9147   21.5600 C.ar    1  UNL1        0.1417
      6 C          -9.7313  -17.7925   21.9017 C.ar    1  UNL1        0.0737
      7 C         -12.6211  -17.8808   22.7940 C.3     1  UNL1        0.2525
      8 O         -12.2069  -18.4527   21.4707 O.3     1  UNL1       -0.4713
      9 C          -6.3851  -18.9416   20.1038 C.2     1  UNL1        0.0063
     10 C          -5.4572  -19.6753   21.0261 C.2     1  UNL1        0.0436
     11 C          -4.0018  -19.7975   20.6843 C.2     1  UNL1        0.2111
     12 O          -3.4525  -21.1065   20.1998 O.2     1  UNL1       -0.2850
     13 C          -3.0956  -18.6107   20.8272 C.ar    1  UNL1        0.0961
     14 C          -1.8949  -18.3111   19.9795 C.ar    1  UNL1        0.0218
     15 C          -1.2883  -17.0304   20.4711 C.ar    1  UNL1        0.0200
     16 C          -2.1141  -16.5384   21.6226 C.ar    1  UNL1        0.0725
     17 N          -3.2311  -17.5151   21.8427 N.ar    1  UNL1       -0.3495
     18 H          -3.9303  -17.4487   22.5325 H       1  UNL1        0.1661
     19 O          -7.2558  -17.1323   22.3328 O.3     1  UNL1       -0.4713
     20 C          -7.6859  -16.2659   23.4792 C.3     1  UNL1        0.2525
@<TRIPOS>BOND
     1     7     8    1
     2     8     1    1
     3     1     2   ar
     4     2     3   ar
     5     3     4   ar
     6     4     9    1
     7     9    10    2
     8    10    11    1
     9    11    12    2
    10    11    13    1
    11    13    14   ar
    12    14    15   ar
    13    15    16   ar
    14    16    17   ar
    15     4     5   ar
    16     5    19    1
    17    19    20    1
    18     5     6   ar
    19     6     1   ar
    20    17    13   ar
    21    17    18    1
@<TRIPOS>MOLECULE
*****
 20 21 0 0 0
SMALL
GASTEIGER

@<TRIPOS>ATOM
      1 C         -11.7579  -18.1856   22.6747 C.ar    1  UNL1        0.1418
      2 C         -11.2352  -19.2170   21.7193 C.ar    1  UNL1        0.0371
      3 C          -9.7718  -19.5458   21.6973 C.ar    1  UNL1        0.0061
      4 C          -8.8312  -18.8432   22.6308 C.ar    1  UNL1        0.0343
      5 C          -9.3539  -17.8118   23.5862 C.ar    1  UNL1        0.1417
      6 C         -10.8172  -17.4829   23.6081 C.ar    1  UNL1        0.0737
      7 C         -14.0115  -18.0367   23.9587 C.3     1  UNL1        0.2525
      8 O         -13.2212  -17.8567   22.6966 O.3     1  UNL1       -0.4713
      9 C          -7.3678  -19.1720   22.6089 C.2     1  UNL1        0.0063
     10 C          -6.3520  -18.0695   22.5597 C.2     1  UNL1        0.0436
     11 C          -4.8887  -18.3983   22.5378 C.2     1  UNL1        0.2111
     12 O          -4.0768  -18.2904   23.7944 O.2     1  UNL1       -0.2850
     13 C          -4.2372  -18.8350   21.2591 C.ar    1  UNL1        0.0961
     14 C          -4.4093  -20.1676   20.5923 C.ar    1  UNL1        0.0218
     15 C          -3.5777  -20.1721   19.3439 C.ar    1  UNL1        0.0200
     16 C          -2.8917  -18.8422   19.2392 C.ar    1  UNL1        0.0725
     17 N          -3.2993  -18.0159   20.4229 N.ar    1  UNL1       -0.3495
     18 H          -3.0032  -17.0973   20.6168 H       1  UNL1        0.1661
     19 O          -8.4132  -17.1090   24.5197 O.3     1  UNL1       -0.4713
     20 C          -8.4010  -15.6105   24.5846 C.3     1  UNL1        0.2525
@<TRIPOS>BOND
     1     7     8    1
     2     8     1    1
     3     1     2   ar
     4     2     3   ar
     5     3     4   ar
     6     4     9    1
     7     9    10    2
     8    10    11    1
     9    11    12    2
    10    11    13    1
    11    13    14   ar
    12    14    15   ar
    13    15    16   ar
    14    16    17   ar
    15     4     5   ar
    16     5    19    1
    17    19    20    1
    18     5     6   ar
    19     6     1   ar
    20    17    13   ar
    21    17    18    1
@<TRIPOS>MOLECULE
*****
 20 21 0 0 0
SMALL
GASTEIGER

@<TRIPOS>ATOM
      1 C           4.3412   -1.9665   19.0630 C.ar    1  UNL1        0.1418
      2 C           3.5712   -1.5269   20.2729 C.ar    1  UNL1        0.0371
      3 C           3.8642   -2.1378   21.6112 C.ar    1  UNL1        0.0061
      4 C           4.9272   -3.1882   21.7396 C.ar    1  UNL1        0.0343
      5 C           5.6972   -3.6278   20.5298 C.ar    1  UNL1        0.1417
      6 C           5.4042   -3.0169   19.1915 C.ar    1  UNL1        0.0737
      7 C           3.1646   -0.1474   17.6291 C.3     1  UNL1        0.2525
      8 O           4.0482   -1.3557   17.7248 O.3     1  UNL1       -0.4713
      9 C           5.2202   -3.7990   23.0779 C.2     1  UNL1        0.0063
     10 C           6.3619   -3.2844   23.9035 C.2     1  UNL1        0.0436
     11 C           6.6549   -3.8952   25.2418 C.2     1  UNL1        0.2111
     12 O           6.5086   -3.0747   26.4889 O.2     1  UNL1       -0.2850
     13 C           7.0941   -5.3266   25.3329 C.ar    1  UNL1        0.0961
     14 C           7.9185   -6.0622   24.3183 C.ar    1  UNL1        0.0218
     15 C           8.1201   -7.4638   24.8129 C.ar    1  UNL1        0.0200
     16 C           7.4202   -7.5946   26.1332 C.ar    1  UNL1        0.0725
     17 N           6.7862   -6.2737   26.4546 N.ar    1  UNL1       -0.3495
     18 H           6.2603   -6.0650   27.2603 H       1  UNL1        0.1661
     19 O           6.7603   -4.6783   20.6582 O.3     1  UNL1       -0.4713
     20 C           8.1906   -4.2765   20.8648 C.3     1  UNL1        0.2525
@<TRIPOS>BOND
     1     7     8    1
     2     8     1    1
     3     1     2   ar
     4     2     3   ar
     5     3     4   ar
     6     4     9    1
     7     9    10    2
     8    10    11    1
     9    11    12    2
    10    11    13    1
    11    13    14   ar
    12    14    15   ar
    13    15    16   ar
    14    16    17   ar
    15     4     5   ar
    16     5    19    1
    17    19    20    1
    18     5     6   ar
    19     6     1   ar
    20    17    13   ar
    21    17    18    1
@<TRIPOS>MOLECULE
*****
 20 21 0 0 0
SMALL
GASTEIGER

@<TRIPOS>ATOM
      1 C           0.5935    1.7227   19.2044 C.ar    1  UNL1        0.1418
      2 C           0.2583    0.7785   20.3207 C.ar    1  UNL1        0.0371
      3 C           1.2011   -0.3346   20.6701 C.ar    1  UNL1        0.0061
      4 C           2.4791   -0.5036   19.9031 C.ar    1  UNL1        0.0343
      5 C           2.8142    0.4406   18.7868 C.ar    1  UNL1        0.1417
      6 C           1.8714    1.5537   18.4374 C.ar    1  UNL1        0.0737
      7 C          -0.2799    3.4808   17.5026 C.3     1  UNL1        0.2525
      8 O          -0.3494    2.8358   18.8550 O.3     1  UNL1       -0.4713
      9 C           3.4219   -1.6167   20.2525 C.2     1  UNL1        0.0063
     10 C           3.3607   -2.9145   19.5029 C.2     1  UNL1        0.0436
     11 C           4.3036   -4.0276   19.8522 C.2     1  UNL1        0.2111
     12 O           4.3362   -5.2728   19.0167 O.2     1  UNL1       -0.2850
     13 C           5.2137   -3.8954   21.0373 C.ar    1  UNL1        0.0961
     14 C           4.7866   -3.8243   22.4734 C.ar    1  UNL1        0.0218
     15 C           6.0196   -3.6961   23.3180 C.ar    1  UNL1        0.0200
     16 C           7.2088   -3.6879   22.4037 C.ar    1  UNL1        0.0725
     17 N           6.7107   -3.8111   20.9942 N.ar    1  UNL1       -0.3495
     18 H           7.2684   -3.8328   20.1832 H       1  UNL1        0.1661
     19 O           4.0922    0.2716   18.0198 O.3     1  UNL1       -0.4713
     20 C           4.1291   -0.6136   16.8095 C.3     1  UNL1        0.2525
@<TRIPOS>BOND
     1     7     8    1
     2     8     1    1
     3     1     2   ar
     4     2     3   ar
     5     3     4   ar
     6     4     9    1
     7     9    10    2
     8    10    11    1
     9    11    12    2
    10    11    13    1
    11    13    14   ar
    12    14    15   ar
    13    15    16   ar
    14    16    17   ar
    15     4     5   ar
    16     5    19    1
    17    19    20    1
    18     5     6   ar
    19     6     1   ar
    20    17    13   ar
    21    17    18    1
@<TRIPOS>MOLECULE
*****
 20 21 0 0 0
SMALL
GASTEIGER

@<TRIPOS>ATOM
      1 C           5.9672   -1.8966   32.3652 C.ar    1  UNL1        0.1418
      2 C           4.5981   -2.0655   32.9541 C.ar    1  UNL1        0.0371
      3 C           4.2776   -1.4658   34.2912 C.ar    1  UNL1        0.0061
      4 C           5.3261   -0.6972   35.0392 C.ar    1  UNL1        0.0343
      5 C           6.6953   -0.5283   34.4503 C.ar    1  UNL1        0.1417
      6 C           7.0158   -1.1280   33.1133 C.ar    1  UNL1        0.0737
      7 C           6.7808   -3.9101   30.9391 C.3     1  UNL1        0.2525
      8 O           6.2878   -2.4962   31.0282 O.3     1  UNL1       -0.4713
      9 C           5.0056   -0.0975   36.3763 C.2     1  UNL1        0.0063
     10 C           4.3992    1.2720   36.4581 C.2     1  UNL1        0.0436
     11 C           4.0786    1.8716   37.7951 C.2     1  UNL1        0.2111
     12 O           5.0511    2.8072   38.4500 O.2     1  UNL1       -0.2850
     13 C           2.7855    1.5357   38.4772 C.ar    1  UNL1        0.0961
     14 C           1.7109    2.5102   38.8588 C.ar    1  UNL1        0.0218
     15 C           0.6013    1.7432   39.5148 C.ar    1  UNL1        0.0200
     16 C           0.9902    0.2946   39.5387 C.ar    1  UNL1        0.0725
     17 N           2.3401    0.1664   38.8974 N.ar    1  UNL1       -0.3495
     18 H           2.8451   -0.6696   38.7739 H       1  UNL1        0.1661
     19 O           7.7440    0.2404   35.1984 O.3     1  UNL1       -0.4713
     20 C           9.1784   -0.1939   35.1376 C.3     1  UNL1        0.2525
@<TRIPOS>BOND
     1     7     8    1
     2     8     1    1
     3     1     2   ar
     4     2     3   ar
     5     3     4   ar
     6     4     9    1
     7     9    10    2
     8    10    11    1
     9    11    12    2
    10    11    13    1
    11    13    14   ar
    12    14    15   ar
    13    15    16   ar
    14    16    17   ar
    15     4     5   ar
    16     5    19    1
    17    19    20    1
    18     5     6   ar
    19     6     1   ar
    20    17    13   ar
    21    17    18    1
@<TRIPOS>MOLECULE
*****
 20 21 0 0 0
SMALL
GASTEIGER

@<TRIPOS>ATOM
      1 C           0.9329    4.1102   18.1397 C.ar    1  UNL1        0.1418
      2 C           2.4082    4.3757   18.0864 C.ar    1  UNL1        0.0371
      3 C           3.3804    3.2527   18.2952 C.ar    1  UNL1        0.0061
      4 C           2.8773    1.8641   18.5572 C.ar    1  UNL1        0.0343
      5 C           1.4019    1.5986   18.6104 C.ar    1  UNL1        0.1417
      6 C           0.4298    2.7216   18.4016 C.ar    1  UNL1        0.0737
      7 C          -1.2315    5.0377   17.0418 C.3     1  UNL1        0.2525
      8 O          -0.0393    5.2333   17.9309 O.3     1  UNL1       -0.4713
      9 C           3.8495    0.7411   18.7659 C.2     1  UNL1        0.0063
     10 C           4.1797   -0.1853   17.6334 C.2     1  UNL1        0.0436
     11 C           5.1519   -1.3084   17.8422 C.2     1  UNL1        0.2111
     12 O           6.5068   -1.2565   17.2007 O.2     1  UNL1       -0.2850
     13 C           4.7691   -2.4834   18.6924 C.ar    1  UNL1        0.0961
     14 C           4.7220   -2.5089   20.1915 C.ar    1  UNL1        0.0218
     15 C           4.2900   -3.8804   20.6184 C.ar    1  UNL1        0.0200
     16 C           4.0702   -4.7026   19.3832 C.ar    1  UNL1        0.0725
     17 N           4.3663   -3.8392   18.1929 N.ar    1  UNL1       -0.3495
     18 H           4.3067   -4.1141   17.2494 H       1  UNL1        0.1661
     19 O           0.8987    0.2100   18.8724 O.3     1  UNL1       -0.4713
     20 C           0.6276   -0.2367   20.2784 C.3     1  UNL1        0.2525
@<TRIPOS>BOND
     1     7     8    1
     2     8     1    1
     3     1     2   ar
     4     2     3   ar
     5     3     4   ar
     6     4     9    1
     7     9    10    2
     8    10    11    1
     9    11    12    2
    10    11    13    1
    11    13    14   ar
    12    14    15   ar
    13    15    16   ar
    14    16    17   ar
    15     4     5   ar
    16     5    19    1
    17    19    20    1
    18     5     6   ar
    19     6     1   ar
    20    17    13   ar
    21    17    18    1
@<TRIPOS>MOLECULE
*****
 20 21 0 0 0
SMALL
GASTEIGER

@<TRIPOS>ATOM
      1 C           7.6420   -5.9588   24.4039 C.ar    1  UNL1        0.1418
      2 C           7.7260   -7.0573   25.4219 C.ar    1  UNL1        0.0371
      3 C           7.3735   -6.7816   26.8536 C.ar    1  UNL1        0.0061
      4 C           6.9370   -5.4075   27.2673 C.ar    1  UNL1        0.0343
      5 C           6.8530   -4.3090   26.2493 C.ar    1  UNL1        0.1417
      6 C           7.2055   -4.5847   24.8176 C.ar    1  UNL1        0.0737
      7 C           9.1219   -5.4899   22.3207 C.3     1  UNL1        0.2525
      8 O           7.9946   -6.2345   22.9722 O.3     1  UNL1       -0.4713
      9 C           6.5844   -5.1318   28.6990 C.2     1  UNL1        0.0063
     10 C           7.4405   -5.6813   29.8013 C.2     1  UNL1        0.0436
     11 C           7.0879   -5.4056   31.2330 C.2     1  UNL1        0.2111
     12 O           6.6567   -6.5287   32.1289 O.2     1  UNL1       -0.2850
     13 C           7.1667   -4.0067   31.7689 C.ar    1  UNL1        0.0961
     14 C           6.0384   -3.0200   31.8268 C.ar    1  UNL1        0.0218
     15 C           6.5619   -1.7525   32.4345 C.ar    1  UNL1        0.0200
     16 C           8.0137   -1.9559   32.7523 C.ar    1  UNL1        0.0725
     17 N           8.3875   -3.3491   32.3409 N.ar    1  UNL1       -0.3495
     18 H           9.2777   -3.7598   32.4305 H       1  UNL1        0.1661
     19 O           6.4164   -2.9348   26.6630 O.3     1  UNL1       -0.4713
     20 C           5.6063   -2.0909   25.7242 C.3     1  UNL1        0.2525
@<TRIPOS>BOND
     1     7     8    1
     2     8     1    1
     3     1     2   ar
     4     2     3   ar
     5     3     4   ar
     6     4     9    1
     7     9    10    2
     8    10    11    1
     9    11    12    2
    10    11    13    1
    11    13    14   ar
    12    14    15   ar
    13    15    16   ar
    14    16    17   ar
    15     4     5   ar
    16     5    19    1
    17    19    20    1
    18     5     6   ar
    19     6     1   ar
    20    17    13   ar
    21    17    18    1
@<TRIPOS>MOLECULE
*****
 20 21 0 0 0
SMALL
GASTEIGER

@<TRIPOS>ATOM
      1 C           3.1134   -1.8298   20.1394 C.ar    1  UNL1        0.1418
      2 C           3.9385   -1.6582   21.3802 C.ar    1  UNL1        0.0371
      3 C           3.4623   -0.7544   22.4785 C.ar    1  UNL1        0.0061
      4 C           2.1609   -0.0222   22.3360 C.ar    1  UNL1        0.0343
      5 C           1.3358   -0.1938   21.0952 C.ar    1  UNL1        0.1417
      6 C           1.8121   -1.0976   19.9969 C.ar    1  UNL1        0.0737
      7 C           3.3528   -4.2120   19.1306 C.3     1  UNL1        0.2525
      8 O           3.5897   -2.7336   19.0410 O.3     1  UNL1       -0.4713
      9 C           1.6847    0.8816   23.4344 C.2     1  UNL1        0.0063
     10 C           2.1600    0.6677   24.8408 C.2     1  UNL1        0.0436
     11 C           1.6838    1.5715   25.9391 C.2     1  UNL1        0.2111
     12 O           2.1317    3.0024   25.9801 O.2     1  UNL1       -0.2850
     13 C           0.7596    1.0443   26.9965 C.ar    1  UNL1        0.0961
     14 C          -0.6497    1.4961   27.2408 C.ar    1  UNL1        0.0218
     15 C          -1.1979    0.7038   28.3904 C.ar    1  UNL1        0.0200
     16 C          -0.1273   -0.2378   28.8567 C.ar    1  UNL1        0.0725
     17 N           1.0824   -0.0273   27.9952 N.ar    1  UNL1       -0.3495
     18 H           1.9381   -0.5082   28.0718 H       1  UNL1        0.1661
     19 O           0.0344    0.5384   20.9526 O.3     1  UNL1       -0.4713
     20 C          -0.0181    1.8350   20.2002 C.3     1  UNL1        0.2525
@<TRIPOS>BOND
     1     7     8    1
     2     8     1    1
     3     1     2   ar
     4     2     3   ar
     5     3     4   ar
     6     4     9    1
     7     9    10    2
     8    10    11    1
     9    11    12    2
    10    11    13    1
    11    13    14   ar
    12    14    15   ar
    13    15    16   ar
    14    16    17   ar
    15     4     5   ar
    16     5    19    1
    17    19    20    1
    18     5     6   ar
    19     6     1   ar
    20    17    13   ar
    21    17    18    1
