@<TRIPOS>MOLECULE
*****
 23 25 0 0 0
SMALL
GASTEIGER

@<TRIPOS>ATOM
      1 C          -7.4436  -18.3197   21.9401 C.ar    1  UNL1       -0.0144
      2 C          -7.3738  -17.0253   22.6949 C.ar    1  UNL1        0.0051
      3 S          -8.6189  -16.2452   22.3932 S.2     1  UNL1       -0.0915
      4 C          -9.4582  -17.0574   21.4520 C.ar    1  UNL1        0.0288
      5 C         -10.7900  -16.7951   20.8137 C.ar    1  UNL1        0.0065
      6 C         -11.3954  -17.8150   19.8954 C.ar    1  UNL1        0.0005
      7 C         -10.6690  -19.0971   19.6153 C.ar    1  UNL1        0.0000
      8 C          -9.3372  -19.3594   20.2536 C.ar    1  UNL1        0.0002
      9 C          -8.7318  -18.3395   21.1719 C.ar    1  UNL1        0.0025
     10 C          -6.7412  -20.7551   22.5109 C.3     1  UNL1        0.0110
     11 C          -6.4071  -19.4039   21.9515 C.3     1  UNL1        0.0627
     12 C          -5.0366  -19.1372   21.4034 C.ar    1  UNL1        0.0629
     13 C          -3.8382  -19.2337   22.3005 C.ar    1  UNL1        0.0174
     14 C          -2.4676  -18.9669   21.7525 C.ar    1  UNL1        0.0325
     15 C          -2.2954  -18.6037   20.3073 C.ar    1  UNL1        0.1592
     16 F          -0.9248  -18.3369   19.7593 F       1  UNL1       -0.2025
     17 C          -3.4937  -18.5072   19.4103 C.ar    1  UNL1        0.1280
     18 N          -4.8642  -18.7739   19.9583 N.ar    1  UNL1       -0.2455
     19 C          -6.2553  -16.5880   23.5936 C.3     1  UNL1        0.0499
     20 C          -6.4118  -15.3620   24.4436 C.3     1  UNL1        0.0774
     21 N          -7.0727  -15.4598   25.7866 N.3     1  UNL1       -0.2700
     22 C          -6.2377  -15.4995   27.0322 C.3     1  UNL1        0.0897
     23 C          -8.5683  -15.5179   25.8841 C.3     1  UNL1        0.0897
@<TRIPOS>BOND
     1    11    10    1
     2    11    12    1
     3    12    13   ar
     4    13    14   ar
     5    14    15   ar
     6    15    16    1
     7    15    17   ar
     8    17    18   ar
     9    11     1    1
    10     1     2   ar
    11     2    19    1
    12    19    20    1
    13    20    21    1
    14    21    22    1
    15    21    23    1
    16     2     3   ar
    17     3     4   ar
    18     4     5   ar
    19     5     6   ar
    20     6     7   ar
    21     7     8   ar
    22     8     9   ar
    23    18    12   ar
    24     9     1   ar
    25     9     4   ar
@<TRIPOS>MOLECULE
*****
 23 25 0 0 0
SMALL
GASTEIGER

@<TRIPOS>ATOM
      1 C          -6.8345  -18.2750   22.1747 C.ar    1  UNL1       -0.0144
      2 C          -8.2556  -18.0234   21.7659 C.ar    1  UNL1        0.0051
      3 S          -8.7312  -16.7912   22.4770 S.2     1  UNL1       -0.0915
      4 C          -7.6040  -16.2813   23.3252 C.ar    1  UNL1        0.0288
      5 C          -7.4936  -15.1004   24.2435 C.ar    1  UNL1        0.0065
      6 C          -6.2110  -14.8366   24.9751 C.ar    1  UNL1        0.0005
      7 C          -5.0387  -15.7536   24.7882 C.ar    1  UNL1        0.0000
      8 C          -5.1491  -16.9345   23.8699 C.ar    1  UNL1        0.0002
      9 C          -6.4318  -17.1983   23.1384 C.ar    1  UNL1        0.0025
     10 C          -6.4615  -20.8183   21.7971 C.3     1  UNL1        0.0110
     11 C          -5.9681  -19.4048   21.7027 C.3     1  UNL1        0.0627
     12 C          -4.6084  -19.1214   21.1364 C.ar    1  UNL1        0.0629
     13 C          -3.3802  -19.4812   21.9188 C.ar    1  UNL1        0.0174
     14 C          -2.0204  -19.1978   21.3524 C.ar    1  UNL1        0.0325
     15 C          -1.8889  -18.5546   20.0037 C.ar    1  UNL1        0.1592
     16 F          -0.5291  -18.2712   19.4374 F       1  UNL1       -0.2025
     17 C          -3.1171  -18.1949   19.2214 C.ar    1  UNL1        0.1280
     18 N          -4.4768  -18.4783   19.7877 N.ar    1  UNL1       -0.2455
     19 C          -9.0599  -18.8575   20.8134 C.3     1  UNL1        0.0499
     20 C         -10.5117  -19.1178   21.0861 C.3     1  UNL1        0.0774
     21 N         -11.5201  -18.0255   20.8859 N.3     1  UNL1       -0.2700
     22 C         -11.3849  -17.0833   19.7265 C.3     1  UNL1        0.0897
     23 C         -12.6636  -17.8754   21.8449 C.3     1  UNL1        0.0897
@<TRIPOS>BOND
     1    11    10    1
     2    11    12    1
     3    12    13   ar
     4    13    14   ar
     5    14    15   ar
     6    15    16    1
     7    15    17   ar
     8    17    18   ar
     9    11     1    1
    10     1     2   ar
    11     2    19    1
    12    19    20    1
    13    20    21    1
    14    21    22    1
    15    21    23    1
    16     2     3   ar
    17     3     4   ar
    18     4     5   ar
    19     5     6   ar
    20     6     7   ar
    21     7     8   ar
    22     8     9   ar
    23    18    12   ar
    24     9     1   ar
    25     9     4   ar
@<TRIPOS>MOLECULE
*****
 23 25 0 0 0
SMALL
GASTEIGER

@<TRIPOS>ATOM
      1 C          -7.0400  -18.5660   21.8330 C.ar    1  UNL1       -0.0144
      2 C          -6.7077  -17.5071   22.8420 C.ar    1  UNL1        0.0051
      3 S          -5.2177  -17.4811   23.0130 S.2     1  UNL1       -0.0915
      4 C          -4.6291  -18.5239   22.1096 C.ar    1  UNL1        0.0288
      5 C          -3.2132  -18.9494   21.8568 C.ar    1  UNL1        0.0065
      6 C          -2.9235  -20.0456   20.8747 C.ar    1  UNL1        0.0005
      7 C          -4.0497  -20.7161   20.1454 C.ar    1  UNL1        0.0000
      8 C          -5.4657  -20.2906   20.3982 C.ar    1  UNL1        0.0002
      9 C          -5.7554  -19.1944   21.3803 C.ar    1  UNL1        0.0025
     10 C          -8.6272  -19.3777   19.9430 C.3     1  UNL1        0.0110
     11 C          -8.4154  -18.9323   21.3596 C.3     1  UNL1        0.0627
     12 C          -9.5790  -18.8532   22.3028 C.ar    1  UNL1        0.0629
     13 C          -9.6332  -19.7502   23.5039 C.ar    1  UNL1        0.0174
     14 C         -10.7968  -19.6712   24.4472 C.ar    1  UNL1        0.0325
     15 C         -11.9063  -18.6951   24.1893 C.ar    1  UNL1        0.1592
     16 F         -13.0699  -18.6161   25.1326 F       1  UNL1       -0.2025
     17 C         -11.8521  -17.7982   22.9883 C.ar    1  UNL1        0.1280
     18 N         -10.6885  -17.8772   22.0450 N.ar    1  UNL1       -0.2455
     19 C          -7.6924  -16.6285   23.5550 C.3     1  UNL1        0.0499
     20 C          -7.2255  -15.3742   24.2322 C.3     1  UNL1        0.0774
     21 N          -6.8909  -15.3912   25.6943 N.3     1  UNL1       -0.2700
     22 C          -7.9838  -15.5320   26.7121 C.3     1  UNL1        0.0897
     23 C          -5.4636  -15.2673   26.1385 C.3     1  UNL1        0.0897
@<TRIPOS>BOND
     1    11    10    1
     2    11    12    1
     3    12    13   ar
     4    13    14   ar
     5    14    15   ar
     6    15    16    1
     7    15    17   ar
     8    17    18   ar
     9    11     1    1
    10     1     2   ar
    11     2    19    1
    12    19    20    1
    13    20    21    1
    14    21    22    1
    15    21    23    1
    16     2     3   ar
    17     3     4   ar
    18     4     5   ar
    19     5     6   ar
    20     6     7   ar
    21     7     8   ar
    22     8     9   ar
    23    18    12   ar
    24     9     1   ar
    25     9     4   ar
@<TRIPOS>MOLECULE
*****
 23 25 0 0 0
SMALL
GASTEIGER

@<TRIPOS>ATOM
      1 C          -6.0407  -18.5241   22.2268 C.ar    1  UNL1       -0.0144
      2 C          -4.5593  -18.7001   22.3828 C.ar    1  UNL1        0.0051
      3 S          -4.0593  -17.6262   23.3030 S.2     1  UNL1       -0.0915
      4 C          -5.2317  -16.7865   23.7158 C.ar    1  UNL1        0.0288
      5 C          -5.3424  -15.5884   24.6113 C.ar    1  UNL1        0.0065
      6 C          -6.6777  -14.9451   24.8418 C.ar    1  UNL1        0.0005
      7 C          -7.9023  -15.5000   24.1766 C.ar    1  UNL1        0.0000
      8 C          -7.7916  -16.6982   23.2811 C.ar    1  UNL1        0.0002
      9 C          -6.4563  -17.3414   23.0506 C.ar    1  UNL1        0.0025
     10 C          -6.3747  -20.4842   20.5545 C.3     1  UNL1        0.0110
     11 C          -6.9474  -19.3803   21.3933 C.3     1  UNL1        0.0627
     12 C          -8.4268  -19.1329   21.3986 C.ar    1  UNL1        0.0629
     13 C          -9.2813  -19.7179   22.4839 C.ar    1  UNL1        0.0174
     14 C         -10.7607  -19.4704   22.4892 C.ar    1  UNL1        0.0325
     15 C         -11.3857  -18.6379   21.4092 C.ar    1  UNL1        0.1592
     16 F         -12.8651  -18.3905   21.4145 F       1  UNL1       -0.2025
     17 C         -10.5313  -18.0529   20.3240 C.ar    1  UNL1        0.1280
     18 N          -9.0519  -18.3004   20.3187 N.ar    1  UNL1       -0.2455
     19 C          -3.7244  -19.7633   21.7326 C.3     1  UNL1        0.0499
     20 C          -2.2935  -19.4828   21.3810 C.3     1  UNL1        0.0774
     21 N          -1.9661  -18.6632   20.1681 N.3     1  UNL1       -0.2700
     22 C          -3.0235  -18.3897   19.1399 C.3     1  UNL1        0.0897
     23 C          -0.5813  -18.1171   19.9833 C.3     1  UNL1        0.0897
@<TRIPOS>BOND
     1    11    10    1
     2    11    12    1
     3    12    13   ar
     4    13    14   ar
     5    14    15   ar
     6    15    16    1
     7    15    17   ar
     8    17    18   ar
     9    11     1    1
    10     1     2   ar
    11     2    19    1
    12    19    20    1
    13    20    21    1
    14    21    22    1
    15    21    23    1
    16     2     3   ar
    17     3     4   ar
    18     4     5   ar
    19     5     6   ar
    20     6     7   ar
    21     7     8   ar
    22     8     9   ar
    23    18    12   ar
    24     9     1   ar
    25     9     4   ar
@<TRIPOS>MOLECULE
*****
 23 25 0 0 0
SMALL
GASTEIGER

@<TRIPOS>ATOM
      1 C          -7.2781  -18.2706   22.1500 C.ar    1  UNL1       -0.0144
      2 C          -5.9307  -18.9191   22.0320 C.ar    1  UNL1        0.0051
      3 S          -4.9639  -18.1348   22.8687 S.2     1  UNL1       -0.0915
      4 C          -5.7138  -17.0014   23.5038 C.ar    1  UNL1        0.0288
      5 C          -5.2790  -15.9039   24.4291 C.ar    1  UNL1        0.0065
      6 C          -6.2745  -14.8903   24.9103 C.ar    1  UNL1        0.0005
      7 C          -7.7048  -14.9742   24.4661 C.ar    1  UNL1        0.0000
      8 C          -8.1396  -16.0718   23.5407 C.ar    1  UNL1        0.0002
      9 C          -7.1441  -17.0854   23.0596 C.ar    1  UNL1        0.0025
     10 C          -8.4764  -19.3547   20.1155 C.3     1  UNL1        0.0110
     11 C          -8.5383  -18.7270   21.4766 C.3     1  UNL1        0.0627
     12 C          -9.8604  -18.5559   22.1640 C.ar    1  UNL1        0.0629
     13 C         -10.1123  -19.2251   23.4827 C.ar    1  UNL1        0.0174
     14 C         -11.4344  -19.0540   24.1703 C.ar    1  UNL1        0.0325
     15 C         -12.5047  -18.2136   23.5391 C.ar    1  UNL1        0.1592
     16 F         -13.8268  -18.0425   24.2266 F       1  UNL1       -0.2025
     17 C         -12.2529  -17.5445   22.2205 C.ar    1  UNL1        0.1280
     18 N         -10.9308  -17.7156   21.5330 N.ar    1  UNL1       -0.2455
     19 C          -5.6070  -20.1380   21.2199 C.3     1  UNL1        0.0499
     20 C          -4.7336  -20.0204   20.0062 C.3     1  UNL1        0.0774
     21 N          -3.3782  -19.3871   20.1160 N.3     1  UNL1       -0.2700
     22 C          -2.3782  -19.9212   21.0982 C.3     1  UNL1        0.0897
     23 C          -3.0230  -18.2197   19.2437 C.3     1  UNL1        0.0897
@<TRIPOS>BOND
     1    11    10    1
     2    11    12    1
     3    12    13   ar
     4    13    14   ar
     5    14    15   ar
     6    15    16    1
     7    15    17   ar
     8    17    18   ar
     9    11     1    1
    10     1     2   ar
    11     2    19    1
    12    19    20    1
    13    20    21    1
    14    21    22    1
    15    21    23    1
    16     2     3   ar
    17     3     4   ar
    18     4     5   ar
    19     5     6   ar
    20     6     7   ar
    21     7     8   ar
    22     8     9   ar
    23    18    12   ar
    24     9     1   ar
    25     9     4   ar
@<TRIPOS>MOLECULE
*****
 23 25 0 0 0
SMALL
GASTEIGER

@<TRIPOS>ATOM
      1 C          -8.1918  -17.2173   23.8770 C.ar    1  UNL1       -0.0144
      2 C          -6.9678  -17.2978   23.0137 C.ar    1  UNL1        0.0051
      3 S          -5.8643  -16.5518   23.7035 S.2     1  UNL1       -0.0915
      4 C          -6.4063  -16.0102   24.9930 C.ar    1  UNL1        0.0288
      5 C          -5.7758  -15.1957   26.0835 C.ar    1  UNL1        0.0065
      6 C          -6.5839  -14.7925   27.2811 C.ar    1  UNL1        0.0005
      7 C          -8.0224  -15.2038   27.3884 C.ar    1  UNL1        0.0000
      8 C          -8.6529  -16.0183   26.2979 C.ar    1  UNL1        0.0002
      9 C          -7.8448  -16.4215   25.1003 C.ar    1  UNL1        0.0025
     10 C         -10.0130  -19.0065   24.3587 C.3     1  UNL1        0.0110
     11 C          -9.5282  -17.8257   23.5708 C.3     1  UNL1        0.0627
     12 C         -10.3799  -17.2534   22.4768 C.ar    1  UNL1        0.0629
     13 C         -11.7771  -17.7593   22.2715 C.ar    1  UNL1        0.0174
     14 C         -12.6289  -17.1870   21.1775 C.ar    1  UNL1        0.0325
     15 C         -12.0835  -16.1088   20.2886 C.ar    1  UNL1        0.1592
     16 F         -12.9353  -15.5366   19.1945 F       1  UNL1       -0.2025
     17 C         -10.6864  -15.6030   20.4938 C.ar    1  UNL1        0.1280
     18 N          -9.8346  -16.1752   21.5879 N.ar    1  UNL1       -0.2455
     19 C          -6.8652  -18.0008   21.6927 C.3     1  UNL1        0.0499
     20 C          -6.0805  -19.2742   21.5796 C.3     1  UNL1        0.0774
     21 N          -4.6343  -19.2313   21.1839 N.3     1  UNL1       -0.2700
     22 C          -4.2560  -19.0644   19.7419 C.3     1  UNL1        0.0897
     23 C          -3.5665  -19.3553   22.2299 C.3     1  UNL1        0.0897
@<TRIPOS>BOND
     1    11    10    1
     2    11    12    1
     3    12    13   ar
     4    13    14   ar
     5    14    15   ar
     6    15    16    1
     7    15    17   ar
     8    17    18   ar
     9    11     1    1
    10     1     2   ar
    11     2    19    1
    12    19    20    1
    13    20    21    1
    14    21    22    1
    15    21    23    1
    16     2     3   ar
    17     3     4   ar
    18     4     5   ar
    19     5     6   ar
    20     6     7   ar
    21     7     8   ar
    22     8     9   ar
    23    18    12   ar
    24     9     1   ar
    25     9     4   ar
@<TRIPOS>MOLECULE
*****
 23 25 0 0 0
SMALL
GASTEIGER

@<TRIPOS>ATOM
      1 C          -8.8963  -16.9969   22.0582 C.ar    1  UNL1       -0.0144
      2 C          -8.3351  -18.2418   21.4376 C.ar    1  UNL1        0.0051
      3 S          -9.4765  -19.1722   21.1517 S.2     1  UNL1       -0.0915
      4 C         -10.7430  -18.5023   21.5957 C.ar    1  UNL1        0.0288
      5 C         -12.1765  -18.9428   21.5622 C.ar    1  UNL1        0.0065
      6 C         -13.2513  -18.0388   22.0889 C.ar    1  UNL1        0.0005
      7 C         -12.8927  -16.6944   22.6492 C.ar    1  UNL1        0.0000
      8 C         -11.4593  -16.2539   22.6827 C.ar    1  UNL1        0.0002
      9 C         -10.3844  -17.1578   22.1560 C.ar    1  UNL1        0.0025
     10 C          -7.7528  -14.7275   21.5171 C.3     1  UNL1        0.0110
     11 C          -8.1078  -15.8009   22.5031 C.3     1  UNL1        0.0627
     12 C          -7.6741  -15.6783   23.9337 C.ar    1  UNL1        0.0629
     13 C          -8.7000  -15.6331   25.0272 C.ar    1  UNL1        0.0174
     14 C          -8.2664  -15.5104   26.4579 C.ar    1  UNL1        0.0325
     15 C          -6.8068  -15.4329   26.7952 C.ar    1  UNL1        0.1592
     16 F          -6.3732  -15.3103   28.2259 F       1  UNL1       -0.2025
     17 C          -5.7810  -15.4781   25.7018 C.ar    1  UNL1        0.1280
     18 N          -6.2146  -15.6008   24.2711 N.ar    1  UNL1       -0.2455
     19 C          -6.8869  -18.5094   21.1528 C.3     1  UNL1        0.0499
     20 C          -5.9347  -18.7634   22.2835 C.3     1  UNL1        0.0774
     21 N          -4.4658  -18.5252   22.0949 N.3     1  UNL1       -0.2700
     22 C          -3.6641  -17.8810   23.1869 C.3     1  UNL1        0.0897
     23 C          -3.7985  -18.9312   20.8144 C.3     1  UNL1        0.0897
@<TRIPOS>BOND
     1    11    10    1
     2    11    12    1
     3    12    13   ar
     4    13    14   ar
     5    14    15   ar
     6    15    16    1
     7    15    17   ar
     8    17    18   ar
     9    11     1    1
    10     1     2   ar
    11     2    19    1
    12    19    20    1
    13    20    21    1
    14    21    22    1
    15    21    23    1
    16     2     3   ar
    17     3     4   ar
    18     4     5   ar
    19     5     6   ar
    20     6     7   ar
    21     7     8   ar
    22     8     9   ar
    23    18    12   ar
    24     9     1   ar
    25     9     4   ar
@<TRIPOS>MOLECULE
*****
 23 25 0 0 0
SMALL
GASTEIGER

@<TRIPOS>ATOM
      1 C          -6.6763  -19.2353   21.0870 C.ar    1  UNL1       -0.0144
      2 C          -6.4813  -18.3439   22.2775 C.ar    1  UNL1        0.0051
      3 S          -7.7738  -17.6284   22.5375 S.2     1  UNL1       -0.0915
      4 C          -8.7676  -18.0776   21.5076 C.ar    1  UNL1        0.0288
      5 C         -10.2025  -17.7105   21.2704 C.ar    1  UNL1        0.0065
      6 C         -10.9591  -18.3367   20.1366 C.ar    1  UNL1        0.0005
      7 C         -10.2808  -19.3299   19.2402 C.ar    1  UNL1        0.0000
      8 C          -8.8460  -19.6969   19.4775 C.ar    1  UNL1        0.0002
      9 C          -8.0893  -19.0707   20.6112 C.ar    1  UNL1        0.0025
     10 C          -5.9817  -21.5567   20.1495 C.3     1  UNL1        0.0110
     11 C          -5.6403  -20.1336   20.4791 C.3     1  UNL1        0.0627
     12 C          -4.2630  -19.6091   20.2006 C.ar    1  UNL1        0.0629
     13 C          -4.0766  -18.4481   19.2692 C.ar    1  UNL1        0.0174
     14 C          -2.6992  -17.9235   18.9907 C.ar    1  UNL1        0.0325
     15 C          -1.5081  -18.5599   19.6436 C.ar    1  UNL1        0.1592
     16 F          -0.1307  -18.0352   19.3651 F       1  UNL1       -0.2025
     17 C          -1.6944  -19.7208   20.5750 C.ar    1  UNL1        0.1280
     18 N          -3.0718  -20.2454   20.8535 N.ar    1  UNL1       -0.2455
     19 C          -5.2160  -18.1943   23.0691 C.3     1  UNL1        0.0499
     20 C          -4.4404  -16.9118   23.0082 C.3     1  UNL1        0.0774
     21 N          -2.9596  -16.9414   22.7705 N.3     1  UNL1       -0.2700
     22 C          -2.3206  -15.9085   21.8902 C.3     1  UNL1        0.0897
     23 C          -2.1180  -18.0038   23.4130 C.3     1  UNL1        0.0897
@<TRIPOS>BOND
     1    11    10    1
     2    11    12    1
     3    12    13   ar
     4    13    14   ar
     5    14    15   ar
     6    15    16    1
     7    15    17   ar
     8    17    18   ar
     9    11     1    1
    10     1     2   ar
    11     2    19    1
    12    19    20    1
    13    20    21    1
    14    21    22    1
    15    21    23    1
    16     2     3   ar
    17     3     4   ar
    18     4     5   ar
    19     5     6   ar
    20     6     7   ar
    21     7     8   ar
    22     8     9   ar
    23    18    12   ar
    24     9     1   ar
    25     9     4   ar
@<TRIPOS>MOLECULE
*****
 23 25 0 0 0
SMALL
GASTEIGER

@<TRIPOS>ATOM
      1 C         -13.2950   -4.8692   19.3869 C.ar    1  UNL1       -0.0144
      2 C         -14.3201   -5.9341   19.1316 C.ar    1  UNL1        0.0051
      3 S         -13.6034   -7.1628   18.6557 S.2     1  UNL1       -0.0915
      4 C         -12.1353   -6.8574   18.6169 C.ar    1  UNL1        0.0288
      5 C         -10.9475   -7.6869   18.2285 C.ar    1  UNL1        0.0065
      6 C          -9.5690   -7.0989   18.2920 C.ar    1  UNL1        0.0005
      7 C          -9.3784   -5.6813   18.7439 C.ar    1  UNL1        0.0000
      8 C         -10.5663   -4.8518   19.1323 C.ar    1  UNL1        0.0002
      9 C         -11.9447   -5.4399   19.0688 C.ar    1  UNL1        0.0025
     10 C         -13.9554   -3.2476   21.3064 C.3     1  UNL1        0.0110
     11 C         -13.5715   -3.4780   19.8747 C.3     1  UNL1        0.0627
     12 C         -13.4642   -2.3171   18.9309 C.ar    1  UNL1        0.0629
     13 C         -12.1897   -1.5300   18.8520 C.ar    1  UNL1        0.0174
     14 C         -12.0823   -0.3691   17.9082 C.ar    1  UNL1        0.0325
     15 C         -13.2495    0.0048   17.0433 C.ar    1  UNL1        0.1592
     16 F         -13.1421    1.1657   16.0995 F       1  UNL1       -0.2025
     17 C         -14.5239   -0.7823   17.1222 C.ar    1  UNL1        0.1280
     18 N         -14.6313   -1.9432   18.0660 N.ar    1  UNL1       -0.2455
     19 C         -15.8018   -5.7947   19.3192 C.3     1  UNL1        0.0499
     20 C         -16.7297   -6.8306   18.7574 C.3     1  UNL1        0.0774
     21 N         -17.3616   -7.8432   19.6658 N.3     1  UNL1       -0.2700
     22 C         -16.5759   -9.0379   20.1191 C.3     1  UNL1        0.0897
     23 C         -18.7793   -7.6612   20.1209 C.3     1  UNL1        0.0897
@<TRIPOS>BOND
     1    11    10    1
     2    11    12    1
     3    12    13   ar
     4    13    14   ar
     5    14    15   ar
     6    15    16    1
     7    15    17   ar
     8    17    18   ar
     9    11     1    1
    10     1     2   ar
    11     2    19    1
    12    19    20    1
    13    20    21    1
    14    21    22    1
    15    21    23    1
    16     2     3   ar
    17     3     4   ar
    18     4     5   ar
    19     5     6   ar
    20     6     7   ar
    21     7     8   ar
    22     8     9   ar
    23    18    12   ar
    24     9     1   ar
    25     9     4   ar
