@<TRIPOS>MOLECULE
*****
 34 38 0 0 0
SMALL
GASTEIGER

@<TRIPOS>ATOM
      1 C           0.3401    1.8272   27.1564 C.ar    1  UNL1        0.0004
      2 C          -0.7761    2.8261   27.0765 C.ar    1  UNL1        0.0031
      3 C          -1.2906    3.2704   25.7394 C.ar    1  UNL1        0.0370
      4 C          -0.6889    2.7159   24.4823 C.ar    1  UNL1        0.1415
      5 C           0.4272    1.7170   24.5621 C.ar    1  UNL1        0.0699
      6 C           0.9417    1.2727   25.8992 C.ar    1  UNL1        0.0061
      7 C           1.1625    1.0445   23.4410 C.ar    1  UNL1        0.1704
      8 N           2.2696    0.0553   23.6548 N.ar    1  UNL1       -0.1273
      9 N           2.7546   -0.3958   22.3089 N.ar    1  UNL1       -0.1127
     10 C           1.9471    0.3146   21.2633 C.ar    1  UNL1        0.2224
     11 N           0.9631    1.2048   21.9629 N.ar    1  UNL1       -0.2796
     12 C          -0.0207    2.0771   21.2411 C.3     1  UNL1        0.1574
     13 C          -1.0482    3.0047   21.8189 C.3     1  UNL1        0.2299
     14 O          -1.3456    3.2889   23.2614 O.3     1  UNL1       -0.4733
     15 C           1.1788    1.8114   31.0354 C.ar    1  UNL1        0.0590
     16 C           0.6642    2.2558   29.6983 C.ar    1  UNL1        0.0147
     17 C           0.8547    1.3829   28.4935 C.ar    1  UNL1        0.0027
     18 C           1.5597    0.0655   28.6257 C.ar    1  UNL1        0.0207
     19 C           2.0743   -0.3789   29.9628 C.ar    1  UNL1        0.0984
     20 N           1.8838    0.4941   31.1677 N.ar    1  UNL1       -0.2482
     21 C           1.8262    2.4657   33.4650 C.3     1  UNL1        0.0067
     22 C           0.9883    2.6844   32.2403 C.3     1  UNL1        0.0458
     23 N           2.0973    0.1617   19.7787 N.pl3   1  UNL1       -0.2826
     24 H           1.5063    0.6613   19.1701 H       1  UNL1        0.1551
     25 C           3.1479   -0.7524   19.2212 C.ar    1  UNL1        0.0504
     26 C           4.2769   -0.1903   18.4092 C.ar    1  UNL1        0.0147
     27 C           5.3275   -1.1045   17.8518 C.ar    1  UNL1        0.0012
     28 C           5.2490   -2.5805   18.1065 C.ar    1  UNL1        0.0039
     29 C           4.1200   -3.1427   18.9185 C.ar    1  UNL1        0.0726
     30 C           3.0694   -2.2285   19.4759 C.ar    1  UNL1        0.0185
     31 C           4.0415   -4.6187   19.1731 C.3     1  UNL1        0.4186
     32 F           3.9631   -6.0949   19.4278 F       1  UNL1       -0.1659
     33 F           5.5140   -4.6480   19.4573 F       1  UNL1       -0.1659
     34 F           2.5690   -4.5896   18.8889 F       1  UNL1       -0.1659
@<TRIPOS>BOND
     1    21    22    1
     2    22    15    1
     3    15    16   ar
     4    16    17   ar
     5    17     1    1
     6     1     2   ar
     7     2     3   ar
     8     3     4   ar
     9     4     5   ar
    10     5     6   ar
    11     5     7    1
    12     7     8   ar
    13     8     9   ar
    14     9    10   ar
    15    10    23    1
    16    23    25    1
    17    25    26   ar
    18    26    27   ar
    19    27    28   ar
    20    28    29   ar
    21    29    31    1
    22    31    32    1
    23    31    33    1
    24    31    34    1
    25    29    30   ar
    26    10    11   ar
    27    11    12    1
    28    12    13    1
    29    13    14    1
    30    17    18   ar
    31    18    19   ar
    32    19    20   ar
    33    20    15   ar
    34     6     1   ar
    35    11     7   ar
    36    14     4    1
    37    30    25   ar
    38    23    24    1
@<TRIPOS>MOLECULE
*****
 34 38 0 0 0
SMALL
GASTEIGER

@<TRIPOS>ATOM
      1 C           2.5454   -0.0628   19.8656 C.ar    1  UNL1        0.0004
      2 C           1.2262    0.1440   19.1824 C.ar    1  UNL1        0.0031
      3 C           0.1645    0.9764   19.8380 C.ar    1  UNL1        0.0370
      4 C           0.4220    1.6019   21.1769 C.ar    1  UNL1        0.1415
      5 C           1.7413    1.3951   21.8600 C.ar    1  UNL1        0.0699
      6 C           2.8030    0.5627   21.2044 C.ar    1  UNL1        0.0061
      7 C           2.2008    1.9241   23.1862 C.ar    1  UNL1        0.1704
      8 N           3.5564    1.6427   23.7635 N.ar    1  UNL1       -0.1273
      9 N           3.6479    2.3354   25.0908 N.ar    1  UNL1       -0.1127
     10 C           2.3489    3.0449   25.3339 C.ar    1  UNL1        0.2224
     11 N           1.4545    2.7908   24.1568 N.ar    1  UNL1       -0.2796
     12 C           0.0645    3.3423   24.0409 C.3     1  UNL1        0.1574
     13 C          -0.9227    3.1635   22.9259 C.3     1  UNL1        0.2299
     14 O          -0.7636    2.3889   21.6512 O.3     1  UNL1       -0.4733
     15 C           4.6064   -3.2239   18.6366 C.ar    1  UNL1        0.0590
     16 C           3.5446   -2.3916   19.2922 C.ar    1  UNL1        0.0147
     17 C           3.6072   -0.8952   19.2099 C.ar    1  UNL1        0.0027
     18 C           4.7317   -0.2311   18.4720 C.ar    1  UNL1        0.0207
     19 C           5.7935   -1.0633   17.8163 C.ar    1  UNL1        0.0984
     20 N           5.7308   -2.5598   17.8986 N.ar    1  UNL1       -0.2482
     21 C           3.6735   -5.3791   19.7479 C.3     1  UNL1        0.0067
     22 C           4.5437   -4.7203   18.7189 C.3     1  UNL1        0.0458
     23 N           2.0048    3.8647   26.5421 N.pl3   1  UNL1       -0.2826
     24 H           2.1401    4.8398   26.5301 H       1  UNL1        0.1551
     25 C           1.4546    3.1988   27.7684 C.ar    1  UNL1        0.0504
     26 C           1.7583    3.7592   29.1262 C.ar    1  UNL1        0.0147
     27 C           1.2080    3.0933   30.3526 C.ar    1  UNL1        0.0012
     28 C           0.3541    1.8672   30.2210 C.ar    1  UNL1        0.0039
     29 C           0.0503    1.3068   28.8631 C.ar    1  UNL1        0.0726
     30 C           0.6007    1.9727   27.6368 C.ar    1  UNL1        0.0185
     31 C          -0.8036    0.0807   28.7316 C.3     1  UNL1        0.4186
     32 F          -1.6576   -1.1454   28.5999 F       1  UNL1       -0.1659
     33 F          -2.0078    0.9443   28.4992 F       1  UNL1       -0.1659
     34 F           0.4006   -0.7830   28.9639 F       1  UNL1       -0.1659
@<TRIPOS>BOND
     1    21    22    1
     2    22    15    1
     3    15    16   ar
     4    16    17   ar
     5    17     1    1
     6     1     2   ar
     7     2     3   ar
     8     3     4   ar
     9     4     5   ar
    10     5     6   ar
    11     5     7    1
    12     7     8   ar
    13     8     9   ar
    14     9    10   ar
    15    10    23    1
    16    23    25    1
    17    25    26   ar
    18    26    27   ar
    19    27    28   ar
    20    28    29   ar
    21    29    31    1
    22    31    32    1
    23    31    33    1
    24    31    34    1
    25    29    30   ar
    26    10    11   ar
    27    11    12    1
    28    12    13    1
    29    13    14    1
    30    17    18   ar
    31    18    19   ar
    32    19    20   ar
    33    20    15   ar
    34     6     1   ar
    35    11     7   ar
    36    14     4    1
    37    30    25   ar
    38    23    24    1
@<TRIPOS>MOLECULE
*****
 34 38 0 0 0
SMALL
GASTEIGER

@<TRIPOS>ATOM
      1 C           7.5798   -5.6438   28.0364 C.ar    1  UNL1        0.0004
      2 C           7.8547   -7.1169   27.9692 C.ar    1  UNL1        0.0031
      3 C           8.2431   -7.7486   26.6654 C.ar    1  UNL1        0.0370
      4 C           8.3566   -6.9072   25.4287 C.ar    1  UNL1        0.1415
      5 C           8.0817   -5.4342   25.4959 C.ar    1  UNL1        0.0699
      6 C           7.6933   -4.8025   26.7997 C.ar    1  UNL1        0.0061
      7 C           8.1369   -4.4212   24.3911 C.ar    1  UNL1        0.1704
      8 N           7.8371   -2.9649   24.5895 N.ar    1  UNL1       -0.1273
      9 N           7.9955   -2.2747   23.2671 N.ar    1  UNL1       -0.1127
     10 C           8.3932   -3.3044   22.2515 C.ar    1  UNL1        0.2224
     11 N           8.4805   -4.6310   22.9461 N.ar    1  UNL1       -0.2796
     12 C           8.8539   -5.9057   22.2492 C.3     1  UNL1        0.1574
     13 C           8.9759   -7.2854   22.8250 C.3     1  UNL1        0.2299
     14 O           8.7545   -7.7311   24.2401 O.3     1  UNL1       -0.4733
     15 C           6.3507   -2.9505   30.6795 C.ar    1  UNL1        0.0590
     16 C           6.7391   -3.5823   29.3756 C.ar    1  UNL1        0.0147
     17 C           7.1914   -5.0120   29.3403 C.ar    1  UNL1        0.0027
     18 C           7.2554   -5.8100   30.6088 C.ar    1  UNL1        0.0207
     19 C           6.8670   -5.1783   31.9126 C.ar    1  UNL1        0.0984
     20 N           6.4147   -3.7485   31.9480 N.ar    1  UNL1       -0.2482
     21 C           4.6920   -1.1355   31.5187 C.3     1  UNL1        0.0067
     22 C           5.8984   -1.5208   30.7148 C.3     1  UNL1        0.0458
     23 N           8.6571   -3.0518   20.7967 N.pl3   1  UNL1       -0.2826
     24 H           9.5811   -3.0514   20.4569 H       1  UNL1        0.1551
     25 C           7.5133   -2.7997   19.8596 C.ar    1  UNL1        0.0504
     26 C           7.6146   -1.7165   18.8269 C.ar    1  UNL1        0.0147
     27 C           6.4707   -1.4644   17.8898 C.ar    1  UNL1        0.0012
     28 C           5.2257   -2.2956   17.9854 C.ar    1  UNL1        0.0039
     29 C           5.1245   -3.3788   19.0180 C.ar    1  UNL1        0.0726
     30 C           6.2684   -3.6309   19.9551 C.ar    1  UNL1        0.0185
     31 C           3.8796   -4.2100   19.1136 C.3     1  UNL1        0.4186
     32 F           2.6346   -5.0413   19.2092 F       1  UNL1       -0.1659
     33 F           4.6029   -5.3654   18.4876 F       1  UNL1       -0.1659
     34 F           3.1562   -3.0547   19.7396 F       1  UNL1       -0.1659
@<TRIPOS>BOND
     1    21    22    1
     2    22    15    1
     3    15    16   ar
     4    16    17   ar
     5    17     1    1
     6     1     2   ar
     7     2     3   ar
     8     3     4   ar
     9     4     5   ar
    10     5     6   ar
    11     5     7    1
    12     7     8   ar
    13     8     9   ar
    14     9    10   ar
    15    10    23    1
    16    23    25    1
    17    25    26   ar
    18    26    27   ar
    19    27    28   ar
    20    28    29   ar
    21    29    31    1
    22    31    32    1
    23    31    33    1
    24    31    34    1
    25    29    30   ar
    26    10    11   ar
    27    11    12    1
    28    12    13    1
    29    13    14    1
    30    17    18   ar
    31    18    19   ar
    32    19    20   ar
    33    20    15   ar
    34     6     1   ar
    35    11     7   ar
    36    14     4    1
    37    30    25   ar
    38    23    24    1
@<TRIPOS>MOLECULE
*****
 34 38 0 0 0
SMALL
GASTEIGER

@<TRIPOS>ATOM
      1 C           3.0904   -0.8668   22.7542 C.ar    1  UNL1        0.0004
      2 C           2.9475   -0.5147   24.2052 C.ar    1  UNL1        0.0031
      3 C           2.0689    0.6295   24.6163 C.ar    1  UNL1        0.0370
      4 C           1.3333    1.4215   23.5763 C.ar    1  UNL1        0.1415
      5 C           1.4763    1.0694   22.1253 C.ar    1  UNL1        0.0699
      6 C           2.3548   -0.0748   21.7142 C.ar    1  UNL1        0.0061
      7 C           0.8369    1.7238   20.9367 C.ar    1  UNL1        0.1704
      8 N           1.0627    1.2729   19.5240 N.ar    1  UNL1       -0.1273
      9 N           0.2620    2.1625   18.6198 N.ar    1  UNL1       -0.1127
     10 C          -0.4588    3.1631   19.4737 C.ar    1  UNL1        0.2224
     11 N          -0.1036    2.8921   20.9056 N.ar    1  UNL1       -0.2796
     12 C          -0.6367    3.6943   22.0554 C.3     1  UNL1        0.1574
     13 C          -0.3612    3.5266   23.5203 C.3     1  UNL1        0.2299
     14 O           0.5156    2.5151   24.1971 O.3     1  UNL1       -0.4733
     15 C           4.9038   -3.5787   20.4941 C.ar    1  UNL1        0.0590
     16 C           4.0253   -2.4344   20.9052 C.ar    1  UNL1        0.0147
     17 C           3.9690   -2.0110   22.3431 C.ar    1  UNL1        0.0027
     18 C           4.7913   -2.7318   23.3699 C.ar    1  UNL1        0.0207
     19 C           5.6698   -3.8759   22.9589 C.ar    1  UNL1        0.0984
     20 N           5.7261   -4.2994   21.5209 N.ar    1  UNL1       -0.2482
     21 C           4.5818   -5.4016   18.6712 C.3     1  UNL1        0.0067
     22 C           4.9601   -4.0021   19.0563 C.3     1  UNL1        0.0458
     23 N          -1.3742    4.2449   18.9819 N.pl3   1  UNL1       -0.2826
     24 H          -1.0002    5.0930   18.6499 H       1  UNL1        0.1551
     25 C          -2.8593    4.0347   18.9960 C.ar    1  UNL1        0.0504
     26 C          -3.6114    3.9105   17.7041 C.ar    1  UNL1        0.0147
     27 C          -5.0966    3.7003   17.7182 C.ar    1  UNL1        0.0012
     28 C          -5.8295    3.6143   19.0241 C.ar    1  UNL1        0.0039
     29 C          -5.0774    3.7386   20.3160 C.ar    1  UNL1        0.0726
     30 C          -3.5922    3.9488   20.3018 C.ar    1  UNL1        0.0185
     31 C          -5.8103    3.6526   21.6218 C.3     1  UNL1        0.4186
     32 F          -6.5432    3.5666   22.9278 F       1  UNL1       -0.1659
     33 F          -4.6729    2.8703   22.2087 F       1  UNL1       -0.1659
     34 F          -6.9476    4.4350   21.0351 F       1  UNL1       -0.1659
@<TRIPOS>BOND
     1    21    22    1
     2    22    15    1
     3    15    16   ar
     4    16    17   ar
     5    17     1    1
     6     1     2   ar
     7     2     3   ar
     8     3     4   ar
     9     4     5   ar
    10     5     6   ar
    11     5     7    1
    12     7     8   ar
    13     8     9   ar
    14     9    10   ar
    15    10    23    1
    16    23    25    1
    17    25    26   ar
    18    26    27   ar
    19    27    28   ar
    20    28    29   ar
    21    29    31    1
    22    31    32    1
    23    31    33    1
    24    31    34    1
    25    29    30   ar
    26    10    11   ar
    27    11    12    1
    28    12    13    1
    29    13    14    1
    30    17    18   ar
    31    18    19   ar
    32    19    20   ar
    33    20    15   ar
    34     6     1   ar
    35    11     7   ar
    36    14     4    1
    37    30    25   ar
    38    23    24    1
@<TRIPOS>MOLECULE
*****
 34 38 0 0 0
SMALL
GASTEIGER

@<TRIPOS>ATOM
      1 C           2.5689   -0.8430   19.9029 C.ar    1  UNL1        0.0004
      2 C           2.3402   -0.3422   18.5076 C.ar    1  UNL1        0.0031
      3 C           1.5506    0.9128   18.2813 C.ar    1  UNL1        0.0370
      4 C           0.9896    1.6671   19.4502 C.ar    1  UNL1        0.1415
      5 C           1.2184    1.1664   20.8455 C.ar    1  UNL1        0.0699
      6 C           2.0080   -0.0887   21.0718 C.ar    1  UNL1        0.0061
      7 C           0.7514    1.7611   22.1409 C.ar    1  UNL1        0.1704
      8 N           1.0490    1.1584   23.4818 N.ar    1  UNL1       -0.1273
      9 N           0.4219    2.0283   24.5306 N.ar    1  UNL1       -0.1127
     10 C          -0.2633    3.1687   23.8379 C.ar    1  UNL1        0.2224
     11 N          -0.0598    3.0036   22.3609 N.ar    1  UNL1       -0.2796
     12 C          -0.6042    3.9581   21.3399 C.3     1  UNL1        0.1574
     13 C          -0.4720    3.9060   19.8467 C.3     1  UNL1        0.2299
     14 O           0.2374    2.8863   19.0057 O.3     1  UNL1       -0.4733
     15 C           4.7974   -3.6014   21.6850 C.ar    1  UNL1        0.0590
     16 C           4.0077   -2.3463   21.4586 C.ar    1  UNL1        0.0147
     17 C           3.3586   -2.0981   20.1293 C.ar    1  UNL1        0.0027
     18 C           3.4993   -3.1049   19.0264 C.ar    1  UNL1        0.0207
     19 C           4.2889   -4.3599   19.2527 C.ar    1  UNL1        0.0984
     20 N           4.9380   -4.6082   20.5821 N.ar    1  UNL1       -0.2482
     21 C           5.5697   -2.7334   24.0088 C.3     1  UNL1        0.0067
     22 C           5.4464   -3.8496   23.0143 C.3     1  UNL1        0.0458
     23 N          -1.0195    4.2792   24.5050 N.pl3   1  UNL1       -0.2826
     24 H          -0.5419    5.0812   24.8180 H       1  UNL1        0.1551
     25 C          -2.5032    4.1679   24.6953 C.ar    1  UNL1        0.0504
     26 C          -3.0823    4.1461   26.0788 C.ar    1  UNL1        0.0147
     27 C          -4.5661    4.0347   26.2690 C.ar    1  UNL1        0.0012
     28 C          -5.4705    3.9451   25.0757 C.ar    1  UNL1        0.0039
     29 C          -4.8914    3.9669   23.6922 C.ar    1  UNL1        0.0726
     30 C          -3.4076    4.0783   23.5020 C.ar    1  UNL1        0.0185
     31 C          -5.7958    3.8773   22.4990 C.3     1  UNL1        0.4186
     32 F          -6.7004    3.7877   21.3057 F       1  UNL1       -0.1659
     33 F          -6.9911    4.0162   23.3946 F       1  UNL1       -0.1659
     34 F          -4.6007    3.7384   21.6034 F       1  UNL1       -0.1659
@<TRIPOS>BOND
     1    21    22    1
     2    22    15    1
     3    15    16   ar
     4    16    17   ar
     5    17     1    1
     6     1     2   ar
     7     2     3   ar
     8     3     4   ar
     9     4     5   ar
    10     5     6   ar
    11     5     7    1
    12     7     8   ar
    13     8     9   ar
    14     9    10   ar
    15    10    23    1
    16    23    25    1
    17    25    26   ar
    18    26    27   ar
    19    27    28   ar
    20    28    29   ar
    21    29    31    1
    22    31    32    1
    23    31    33    1
    24    31    34    1
    25    29    30   ar
    26    10    11   ar
    27    11    12    1
    28    12    13    1
    29    13    14    1
    30    17    18   ar
    31    18    19   ar
    32    19    20   ar
    33    20    15   ar
    34     6     1   ar
    35    11     7   ar
    36    14     4    1
    37    30    25   ar
    38    23    24    1
@<TRIPOS>MOLECULE
*****
 34 38 0 0 0
SMALL
GASTEIGER

@<TRIPOS>ATOM
      1 C           8.0029   -5.1322   22.7211 C.ar    1  UNL1        0.0004
      2 C           8.7543   -6.4093   22.4881 C.ar    1  UNL1        0.0031
      3 C           9.0561   -7.3225   23.6392 C.ar    1  UNL1        0.0370
      4 C           8.6064   -6.9586   25.0231 C.ar    1  UNL1        0.1415
      5 C           7.8550   -5.6815   25.2561 C.ar    1  UNL1        0.0699
      6 C           7.5532   -4.7683   24.1051 C.ar    1  UNL1        0.0061
      7 C           7.3197   -5.1332   26.5456 C.ar    1  UNL1        0.1704
      8 N           6.5790   -3.8328   26.6465 N.ar    1  UNL1       -0.1273
      9 N           6.2051   -3.6225   28.0839 N.ar    1  UNL1       -0.1127
     10 C           6.7149   -4.7930   28.8713 C.ar    1  UNL1        0.2224
     11 N           7.4037   -5.7267   27.9207 N.ar    1  UNL1       -0.2796
     12 C           8.0437   -7.0149   28.3458 C.3     1  UNL1        0.1574
     13 C           8.7578   -8.0280   27.5010 C.3     1  UNL1        0.2299
     14 O           9.0082   -8.0029   26.0222 O.3     1  UNL1       -0.4733
     15 C           5.9763   -2.9843   20.0696 C.ar    1  UNL1        0.0590
     16 C           6.2781   -3.8976   21.2206 C.ar    1  UNL1        0.0147
     17 C           7.7010   -4.2189   21.5700 C.ar    1  UNL1        0.0027
     18 C           8.8222   -3.6269   20.7684 C.ar    1  UNL1        0.0207
     19 C           8.5204   -2.7136   19.6174 C.ar    1  UNL1        0.0984
     20 N           7.0975   -2.3923   19.2680 N.ar    1  UNL1       -0.2482
     21 C           3.6112   -3.7621   19.3270 C.3     1  UNL1        0.0067
     22 C           4.5534   -2.6631   19.7202 C.3     1  UNL1        0.0458
     23 N           6.5625   -4.9944   30.3499 N.pl3   1  UNL1       -0.2826
     24 H           6.2192   -5.8491   30.6975 H       1  UNL1        0.1551
     25 C           6.9331   -3.8935   31.2990 C.ar    1  UNL1        0.0504
     26 C           8.3769   -3.5695   31.5447 C.ar    1  UNL1        0.0147
     27 C           8.7475   -2.4686   32.4938 C.ar    1  UNL1        0.0012
     28 C           7.6742   -1.6918   33.1971 C.ar    1  UNL1        0.0039
     29 C           6.2304   -2.0158   32.9514 C.ar    1  UNL1        0.0726
     30 C           5.8599   -3.1167   32.0023 C.ar    1  UNL1        0.0185
     31 C           5.1572   -1.2390   33.6547 C.3     1  UNL1        0.4186
     32 F           4.0838   -0.4623   34.3580 F       1  UNL1       -0.1659
     33 F           4.3897   -2.5072   33.8842 F       1  UNL1       -0.1659
     34 F           5.9246    0.0292   33.4253 F       1  UNL1       -0.1659
@<TRIPOS>BOND
     1    21    22    1
     2    22    15    1
     3    15    16   ar
     4    16    17   ar
     5    17     1    1
     6     1     2   ar
     7     2     3   ar
     8     3     4   ar
     9     4     5   ar
    10     5     6   ar
    11     5     7    1
    12     7     8   ar
    13     8     9   ar
    14     9    10   ar
    15    10    23    1
    16    23    25    1
    17    25    26   ar
    18    26    27   ar
    19    27    28   ar
    20    28    29   ar
    21    29    31    1
    22    31    32    1
    23    31    33    1
    24    31    34    1
    25    29    30   ar
    26    10    11   ar
    27    11    12    1
    28    12    13    1
    29    13    14    1
    30    17    18   ar
    31    18    19   ar
    32    19    20   ar
    33    20    15   ar
    34     6     1   ar
    35    11     7   ar
    36    14     4    1
    37    30    25   ar
    38    23    24    1
@<TRIPOS>MOLECULE
*****
 34 38 0 0 0
SMALL
GASTEIGER

@<TRIPOS>ATOM
      1 C           4.3145   -0.9304   29.7307 C.ar    1  UNL1        0.0004
      2 C           5.2736   -1.4082   30.7803 C.ar    1  UNL1        0.0031
      3 C           6.4658   -2.2299   30.3886 C.ar    1  UNL1        0.0370
      4 C           6.6988   -2.5737   28.9473 C.ar    1  UNL1        0.1415
      5 C           5.7397   -2.0959   27.8977 C.ar    1  UNL1        0.0699
      6 C           4.5475   -1.2742   28.2894 C.ar    1  UNL1        0.0061
      7 C           5.7850   -2.3241   26.4159 C.ar    1  UNL1        0.1704
      8 N           4.7560   -1.7879   25.4653 N.ar    1  UNL1       -0.1273
      9 N           5.1357   -2.2189   24.0796 N.ar    1  UNL1       -0.1127
     10 C           6.3994   -3.0215   24.1738 C.ar    1  UNL1        0.2224
     11 N           6.8007   -3.0865   25.6176 N.ar    1  UNL1       -0.2796
     12 C           8.0219   -3.8090   26.1041 C.3     1  UNL1        0.1574
     13 C           8.5291   -3.9476   27.5089 C.3     1  UNL1        0.2299
     14 O           7.9402   -3.3978   28.7743 O.3     1  UNL1       -0.4733
     15 C           0.6981    0.7028   29.6583 C.ar    1  UNL1        0.0590
     16 C           1.8903   -0.1189   29.2666 C.ar    1  UNL1        0.0147
     17 C           3.1222   -0.1086   30.1224 C.ar    1  UNL1        0.0027
     18 C           3.1619    0.7234   31.3699 C.ar    1  UNL1        0.0207
     19 C           1.9697    1.5451   31.7616 C.ar    1  UNL1        0.0984
     20 N           0.7378    1.5348   30.9058 N.ar    1  UNL1       -0.2482
     21 C          -1.3897   -0.5374   28.7348 C.3     1  UNL1        0.0067
     22 C          -0.5338    0.6925   28.8025 C.3     1  UNL1        0.0458
     23 N           7.1329   -3.6489   23.0256 N.pl3   1  UNL1       -0.2826
     24 H           7.8893   -4.2553   23.1971 H       1  UNL1        0.1551
     25 C           6.7141   -3.3524   21.6161 C.ar    1  UNL1        0.0504
     26 C           7.5939   -2.5192   20.7318 C.ar    1  UNL1        0.0147
     27 C           7.1750   -2.2228   19.3223 C.ar    1  UNL1        0.0012
     28 C           5.8765   -2.7595   18.7972 C.ar    1  UNL1        0.0039
     29 C           4.9967   -3.5926   19.6814 C.ar    1  UNL1        0.0726
     30 C           5.4156   -3.8891   21.0910 C.ar    1  UNL1        0.0185
     31 C           3.6983   -4.1293   19.1563 C.3     1  UNL1        0.4186
     32 F           2.3996   -4.6659   18.6312 F       1  UNL1       -0.1659
     33 F           2.9797   -2.9367   19.7144 F       1  UNL1       -0.1659
     34 F           4.4167   -5.3219   18.5983 F       1  UNL1       -0.1659
@<TRIPOS>BOND
     1    21    22    1
     2    22    15    1
     3    15    16   ar
     4    16    17   ar
     5    17     1    1
     6     1     2   ar
     7     2     3   ar
     8     3     4   ar
     9     4     5   ar
    10     5     6   ar
    11     5     7    1
    12     7     8   ar
    13     8     9   ar
    14     9    10   ar
    15    10    23    1
    16    23    25    1
    17    25    26   ar
    18    26    27   ar
    19    27    28   ar
    20    28    29   ar
    21    29    31    1
    22    31    32    1
    23    31    33    1
    24    31    34    1
    25    29    30   ar
    26    10    11   ar
    27    11    12    1
    28    12    13    1
    29    13    14    1
    30    17    18   ar
    31    18    19   ar
    32    19    20   ar
    33    20    15   ar
    34     6     1   ar
    35    11     7   ar
    36    14     4    1
    37    30    25   ar
    38    23    24    1
@<TRIPOS>MOLECULE
*****
 34 38 0 0 0
SMALL
GASTEIGER

@<TRIPOS>ATOM
      1 C          -1.8093    2.8432   25.9268 C.ar    1  UNL1        0.0004
      2 C          -1.4413    2.3892   27.3082 C.ar    1  UNL1        0.0031
      3 C          -0.1306    1.6999   27.5468 C.ar    1  UNL1        0.0370
      4 C           0.8120    1.4645   26.4039 C.ar    1  UNL1        0.1415
      5 C           0.4440    1.9185   25.0225 C.ar    1  UNL1        0.0699
      6 C          -0.8667    2.6078   24.7839 C.ar    1  UNL1        0.0061
      7 C           1.2315    1.7841   23.7530 C.ar    1  UNL1        0.1704
      8 N           0.7484    2.2841   22.4239 N.ar    1  UNL1       -0.1273
      9 N           1.8000    1.9716   21.4009 N.ar    1  UNL1       -0.1127
     10 C           2.9331    1.2785   22.0978 C.ar    1  UNL1        0.2224
     11 N           2.5818    1.1626   23.5515 N.ar    1  UNL1       -0.2796
     12 C           3.4779    0.5219   24.5696 C.3     1  UNL1        0.1574
     13 C           3.2451    0.3446   26.0408 C.3     1  UNL1        0.2299
     14 O           2.0586    0.7641   26.8571 O.3     1  UNL1       -0.4733
     15 C          -5.0576    4.1904   24.0871 C.ar    1  UNL1        0.0590
     16 C          -3.7468    3.5010   24.3257 C.ar    1  UNL1        0.0147
     17 C          -3.1200    3.5325   25.6881 C.ar    1  UNL1        0.0027
     18 C          -3.8038    4.2534   26.8118 C.ar    1  UNL1        0.0207
     19 C          -5.1145    4.9427   26.5732 C.ar    1  UNL1        0.0984
     20 N          -5.7414    4.9113   25.2108 N.ar    1  UNL1       -0.2482
     21 C          -5.0431    3.3697   21.6221 C.3     1  UNL1        0.0067
     22 C          -5.6844    4.1589   22.7247 C.3     1  UNL1        0.0458
     23 N           4.1958    0.7874   21.4540 N.pl3   1  UNL1       -0.2826
     24 H           5.0622    0.9268   21.9002 H       1  UNL1        0.1551
     25 C           4.1384    0.0842   20.1303 C.ar    1  UNL1        0.0504
     26 C           3.9829    0.8765   18.8662 C.ar    1  UNL1        0.0147
     27 C           3.9255    0.1731   17.5425 C.ar    1  UNL1        0.0012
     28 C           4.0237   -1.3224   17.4830 C.ar    1  UNL1        0.0039
     29 C           4.1792   -2.1148   18.7471 C.ar    1  UNL1        0.0726
     30 C           4.2366   -1.4114   20.0708 C.ar    1  UNL1        0.0185
     31 C           4.2774   -3.6103   18.6877 C.3     1  UNL1        0.4186
     32 F           4.3755   -5.1059   18.6283 F       1  UNL1       -0.1659
     33 F           2.9644   -3.7250   19.4039 F       1  UNL1       -0.1659
     34 F           5.5903   -3.4957   17.9715 F       1  UNL1       -0.1659
@<TRIPOS>BOND
     1    21    22    1
     2    22    15    1
     3    15    16   ar
     4    16    17   ar
     5    17     1    1
     6     1     2   ar
     7     2     3   ar
     8     3     4   ar
     9     4     5   ar
    10     5     6   ar
    11     5     7    1
    12     7     8   ar
    13     8     9   ar
    14     9    10   ar
    15    10    23    1
    16    23    25    1
    17    25    26   ar
    18    26    27   ar
    19    27    28   ar
    20    28    29   ar
    21    29    31    1
    22    31    32    1
    23    31    33    1
    24    31    34    1
    25    29    30   ar
    26    10    11   ar
    27    11    12    1
    28    12    13    1
    29    13    14    1
    30    17    18   ar
    31    18    19   ar
    32    19    20   ar
    33    20    15   ar
    34     6     1   ar
    35    11     7   ar
    36    14     4    1
    37    30    25   ar
    38    23    24    1
@<TRIPOS>MOLECULE
*****
 34 38 0 0 0
SMALL
GASTEIGER

@<TRIPOS>ATOM
      1 C           4.2839   -2.0881   22.4986 C.ar    1  UNL1        0.0004
      2 C           4.3534   -2.6720   21.1187 C.ar    1  UNL1        0.0031
      3 C           3.5218   -2.0890   20.0149 C.ar    1  UNL1        0.0370
      4 C           2.6206   -0.9221   20.2910 C.ar    1  UNL1        0.1415
      5 C           2.5510   -0.3382   21.6709 C.ar    1  UNL1        0.0699
      6 C           3.3827   -0.9212   22.7747 C.ar    1  UNL1        0.0061
      7 C           1.7255    0.8157   22.1577 C.ar    1  UNL1        0.1704
      8 N           1.7459    1.3067   23.5749 N.ar    1  UNL1       -0.1273
      9 N           0.7986    2.4652   23.6778 N.ar    1  UNL1       -0.1127
     10 C           0.1928    2.6902   22.3242 C.ar    1  UNL1        0.2224
     11 N           0.7656    1.6707   21.3846 N.ar    1  UNL1       -0.2796
     12 C           0.3942    1.5830   19.9340 C.3     1  UNL1        0.1574
     13 C           0.8908    0.6186   18.8981 C.3     1  UNL1        0.2299
     14 O           1.8817   -0.4963   19.0570 O.3     1  UNL1       -0.4733
     15 C           6.8016   -4.4590   24.4455 C.ar    1  UNL1        0.0590
     16 C           5.9699   -3.8760   23.3416 C.ar    1  UNL1        0.0147
     17 C           5.1155   -2.6711   23.6025 C.ar    1  UNL1        0.0027
     18 C           5.0928   -2.0490   24.9673 C.ar    1  UNL1        0.0207
     19 C           5.9244   -2.6319   26.0711 C.ar    1  UNL1        0.0984
     20 N           6.7788   -3.8370   25.8103 N.ar    1  UNL1       -0.2482
     21 C           7.9242   -6.6459   25.2863 C.3     1  UNL1        0.0067
     22 C           7.6559   -5.6639   24.1846 C.3     1  UNL1        0.0458
     23 N          -0.8099    3.7488   21.9719 N.pl3   1  UNL1       -0.2826
     24 H          -0.5368    4.5252   21.4317 H       1  UNL1        0.1551
     25 C          -2.2287    3.6244   22.4427 C.ar    1  UNL1        0.0504
     26 C          -3.3222    3.3302   21.4590 C.ar    1  UNL1        0.0147
     27 C          -4.7410    3.2059   21.9299 C.ar    1  UNL1        0.0012
     28 C          -5.0661    3.3758   23.3843 C.ar    1  UNL1        0.0039
     29 C          -3.9726    3.6700   24.3680 C.ar    1  UNL1        0.0726
     30 C          -2.5538    3.7944   23.8971 C.ar    1  UNL1        0.0185
     31 C          -4.2978    3.8400   25.8223 C.3     1  UNL1        0.4186
     32 F          -4.6228    4.0099   27.2768 F       1  UNL1       -0.1659
     33 F          -2.8349    3.8090   26.1530 F       1  UNL1       -0.1659
     34 F          -5.7605    3.8709   25.4918 F       1  UNL1       -0.1659
@<TRIPOS>BOND
     1    21    22    1
     2    22    15    1
     3    15    16   ar
     4    16    17   ar
     5    17     1    1
     6     1     2   ar
     7     2     3   ar
     8     3     4   ar
     9     4     5   ar
    10     5     6   ar
    11     5     7    1
    12     7     8   ar
    13     8     9   ar
    14     9    10   ar
    15    10    23    1
    16    23    25    1
    17    25    26   ar
    18    26    27   ar
    19    27    28   ar
    20    28    29   ar
    21    29    31    1
    22    31    32    1
    23    31    33    1
    24    31    34    1
    25    29    30   ar
    26    10    11   ar
    27    11    12    1
    28    12    13    1
    29    13    14    1
    30    17    18   ar
    31    18    19   ar
    32    19    20   ar
    33    20    15   ar
    34     6     1   ar
    35    11     7   ar
    36    14     4    1
    37    30    25   ar
    38    23    24    1
