@<TRIPOS>MOLECULE
*****
 34 38 0 0 0
SMALL
GASTEIGER

@<TRIPOS>ATOM
      1 N           7.9470   -9.0707   27.2180 N.3     1  UNL1       -0.2726
      2 C           9.3693   -9.4838   27.4553 C.3     1  UNL1        0.0721
      3 C           9.3648  -10.9032   27.9405 C.3     1  UNL1        0.0190
      4 C           7.9397  -11.3672   28.0031 C.3     1  UNL1        0.0202
      5 C           8.2466  -12.7500   28.4968 C.3     1  UNL1        0.0062
      6 C           6.8243  -12.3368   28.2595 C.3     1  UNL1        0.0259
      7 C           7.0635  -10.2346   27.5566 C.3     1  UNL1        0.0724
      8 C           5.3592  -12.6580   28.2706 C.ar    1  UNL1        0.0050
      9 C           4.5045  -12.2222   29.4236 C.ar    1  UNL1       -0.0021
     10 C           3.0393  -12.5434   29.4347 C.ar    1  UNL1        0.0037
     11 C           2.4289  -13.3004   28.2926 C.ar    1  UNL1        0.0736
     12 C           3.2836  -13.7362   27.1395 C.ar    1  UNL1        0.0332
     13 C           4.7487  -13.4150   27.1285 C.ar    1  UNL1        0.1361
     14 F           5.6034  -13.8508   25.9755 F       1  UNL1       -0.2045
     15 C           0.9637  -13.6216   28.3037 C.3     1  UNL1        0.4186
     16 F          -0.5015  -13.9428   28.3147 F       1  UNL1       -0.1659
     17 F           1.2636  -15.0063   27.8111 F       1  UNL1       -0.1659
     18 F           0.6639  -12.2370   28.7962 F       1  UNL1       -0.1659
     19 C           7.4886   -7.7290   26.7282 C.3     1  UNL1        0.0730
     20 C           8.4043   -6.8816   25.8956 C.3     1  UNL1        0.0294
     21 C           8.2020   -5.3966   25.8331 C.3     1  UNL1        0.0666
     22 S           6.9402   -4.8356   25.2473 S.3     1  UNL1       -0.0756
     23 C           6.1733   -3.6613   21.6281 C.ar    1  UNL1        0.2029
     24 N           7.2468   -4.6795   21.3812 N.ar    1  UNL1       -0.1250
     25 N           7.6648   -5.2433   22.7069 N.ar    1  UNL1       -0.1220
     26 C           6.8495   -4.5736   23.7732 C.ar    1  UNL1        0.1933
     27 N           5.9278   -3.5959   23.1065 N.ar    1  UNL1       -0.2860
     28 C           4.9348   -2.7086   23.7969 C.3     1  UNL1        0.1341
     29 C           3.8969   -4.7584   19.5631 C.3     1  UNL1        0.0556
     30 C           4.4226   -3.3552   19.6315 C.ar    1  UNL1        0.1001
     31 N           3.9944   -2.2099   18.7627 N.ar    1  UNL1       -0.2085
     32 C           4.7760   -0.9978   19.1749 C.ar    1  UNL1        0.2849
     33 O           5.6873   -1.3940   20.2985 O.2     1  UNL1       -0.4283
     34 C           5.4689   -2.8510   20.5806 C.ar    1  UNL1        0.1964
@<TRIPOS>BOND
     1    29    30    1
     2    30    31   ar
     3    31    32   ar
     4    32    33   ar
     5    33    34   ar
     6    34    23    1
     7    23    24   ar
     8    24    25   ar
     9    25    26   ar
    10    26    22    1
    11    22    21    1
    12    21    20    1
    13    20    19    1
    14    19     1    1
    15     1     2    1
    16     2     3    1
    17     4     3    1
    18     4     5    1
    19     5     6    1
    20     6     8    1
    21     8     9   ar
    22     9    10   ar
    23    10    11   ar
    24    11    15    1
    25    15    16    1
    26    15    17    1
    27    15    18    1
    28    11    12   ar
    29    12    13   ar
    30    13    14    1
    31     4     7    1
    32    26    27   ar
    33    27    28    1
    34    34    30   ar
    35    27    23   ar
    36     7     1    1
    37     6     4    1
    38    13     8   ar
@<TRIPOS>MOLECULE
*****
 34 38 0 0 0
SMALL
GASTEIGER

@<TRIPOS>ATOM
      1 N          -2.4377    4.0454   18.2121 N.3     1  UNL1       -0.2726
      2 C          -3.2062    3.7980   16.9479 C.3     1  UNL1        0.0721
      3 C          -4.6554    3.6542   17.3072 C.3     1  UNL1        0.0190
      4 C          -4.7826    3.8128   18.7934 C.3     1  UNL1        0.0202
      5 C          -6.2702    3.6277   18.8441 C.3     1  UNL1        0.0062
      6 C          -5.5017    3.8751   20.1083 C.3     1  UNL1        0.0259
      7 C          -3.4119    4.0545   19.3526 C.3     1  UNL1        0.0724
      8 C          -5.4732    4.0540   21.5973 C.ar    1  UNL1        0.0050
      9 C          -4.8659    2.9945   22.4684 C.ar    1  UNL1       -0.0021
     10 C          -4.8374    3.1734   23.9574 C.ar    1  UNL1        0.0037
     11 C          -5.4161    4.4117   24.5753 C.ar    1  UNL1        0.0736
     12 C          -6.0233    5.4711   23.7042 C.ar    1  UNL1        0.0332
     13 C          -6.0518    5.2923   22.2151 C.ar    1  UNL1        0.1361
     14 F          -6.6590    6.3516   21.3440 F       1  UNL1       -0.2045
     15 C          -5.3875    4.5905   26.0643 C.3     1  UNL1        0.4186
     16 F          -5.3590    4.7694   27.5534 F       1  UNL1       -0.1659
     17 F          -4.2982    3.5644   26.1667 F       1  UNL1       -0.1659
     18 F          -6.4768    5.6166   25.9620 F       1  UNL1       -0.1659
     19 C          -0.9552    4.2482   18.3173 C.3     1  UNL1        0.0730
     20 C          -0.0166    3.1725   17.8569 C.3     1  UNL1        0.0294
     21 C           0.5564    2.2026   18.8474 C.3     1  UNL1        0.0666
     22 S           1.2246    0.9481   18.3682 S.3     1  UNL1       -0.0756
     23 C           3.5405   -1.5082   20.2837 C.ar    1  UNL1        0.2029
     24 N           2.6300   -1.0502   21.3843 N.ar    1  UNL1       -0.1250
     25 N           1.6517   -0.0743   20.8008 N.ar    1  UNL1       -0.1220
     26 C           1.9575    0.0708   19.3394 C.ar    1  UNL1        0.1933
     27 N           3.1248   -0.8154   19.0199 N.ar    1  UNL1       -0.2860
     28 C           3.7642   -0.9799   17.6730 C.3     1  UNL1        0.1341
     29 C           3.5191   -4.6141   19.2823 C.3     1  UNL1        0.0556
     30 C           4.6586   -3.9148   19.9623 C.ar    1  UNL1        0.1001
     31 N           5.9884   -4.5202   20.3013 N.ar    1  UNL1       -0.2085
     32 C           6.8202   -3.4669   20.9711 C.ar    1  UNL1        0.2849
     33 O           6.0044   -2.2104   21.0461 O.2     1  UNL1       -0.4283
     34 C           4.6685   -2.4872   20.4226 C.ar    1  UNL1        0.1964
@<TRIPOS>BOND
     1    29    30    1
     2    30    31   ar
     3    31    32   ar
     4    32    33   ar
     5    33    34   ar
     6    34    23    1
     7    23    24   ar
     8    24    25   ar
     9    25    26   ar
    10    26    22    1
    11    22    21    1
    12    21    20    1
    13    20    19    1
    14    19     1    1
    15     1     2    1
    16     2     3    1
    17     4     3    1
    18     4     5    1
    19     5     6    1
    20     6     8    1
    21     8     9   ar
    22     9    10   ar
    23    10    11   ar
    24    11    15    1
    25    15    16    1
    26    15    17    1
    27    15    18    1
    28    11    12   ar
    29    12    13   ar
    30    13    14    1
    31     4     7    1
    32    26    27   ar
    33    27    28    1
    34    34    30   ar
    35    27    23   ar
    36     7     1    1
    37     6     4    1
    38    13     8   ar
@<TRIPOS>MOLECULE
*****
 34 38 0 0 0
SMALL
GASTEIGER

@<TRIPOS>ATOM
      1 N           4.3022   -2.4720   22.8683 N.3     1  UNL1       -0.2726
      2 C           4.7582   -3.8275   22.4159 C.3     1  UNL1        0.0721
      3 C           4.5305   -3.9233   20.9364 C.3     1  UNL1        0.0190
      4 C           3.9339   -2.6269   20.4743 C.3     1  UNL1        0.0202
      5 C           3.8263   -3.0105   19.0282 C.3     1  UNL1        0.0062
      6 C           3.3704   -1.6549   19.4805 C.3     1  UNL1        0.0259
      7 C           3.7928   -1.7300   21.6683 C.3     1  UNL1        0.0724
      8 C           2.7817   -0.3111   19.1679 C.ar    1  UNL1        0.0050
      9 C           3.6255    0.7441   18.5163 C.ar    1  UNL1       -0.0021
     10 C           3.0369    2.0879   18.2037 C.ar    1  UNL1        0.0037
     11 C           1.6045    2.3764   18.5427 C.ar    1  UNL1        0.0736
     12 C           0.7607    1.3212   19.1943 C.ar    1  UNL1        0.0332
     13 C           1.3493   -0.0226   19.5069 C.ar    1  UNL1        0.1361
     14 F           0.5056   -1.0777   20.1584 F       1  UNL1       -0.2045
     15 C           1.0159    3.7202   18.2301 C.3     1  UNL1        0.4186
     16 F           0.4273    5.0641   17.9175 F       1  UNL1       -0.1659
     17 F          -0.3316    3.0873   18.0468 F       1  UNL1       -0.1659
     18 F           2.3634    4.3531   18.4134 F       1  UNL1       -0.1659
     19 C           4.3476   -1.9501   24.2738 C.3     1  UNL1        0.0730
     20 C           3.8197   -0.5805   24.5827 C.3     1  UNL1        0.0294
     21 C           3.5021   -0.2007   25.9987 C.3     1  UNL1        0.0666
     22 S           3.8787   -1.1185   27.1238 S.3     1  UNL1       -0.0756
     23 C           3.2309   -0.4367   30.8896 C.ar    1  UNL1        0.2029
     24 N           1.8282   -0.5376   30.3677 N.ar    1  UNL1       -0.1250
     25 N           1.9001   -0.8053   28.8936 N.ar    1  UNL1       -0.1220
     26 C           3.3473   -0.8698   28.5043 C.ar    1  UNL1        0.1933
     27 N           4.1698   -0.6420   29.7378 N.ar    1  UNL1       -0.2860
     28 C           5.6681   -0.6229   29.8075 C.3     1  UNL1        0.1341
     29 C           4.6145   -2.5842   32.9203 C.3     1  UNL1        0.0556
     30 C           4.2614   -1.1633   33.2465 C.ar    1  UNL1        0.1001
     31 N           4.4823   -0.4801   34.5634 N.ar    1  UNL1       -0.2085
     32 C           3.9829    0.9293   34.4440 C.ar    1  UNL1        0.2849
     33 O           3.4533    1.1171   33.0532 O.2     1  UNL1       -0.4283
     34 C           3.6255   -0.1762   32.3131 C.ar    1  UNL1        0.1964
@<TRIPOS>BOND
     1    29    30    1
     2    30    31   ar
     3    31    32   ar
     4    32    33   ar
     5    33    34   ar
     6    34    23    1
     7    23    24   ar
     8    24    25   ar
     9    25    26   ar
    10    26    22    1
    11    22    21    1
    12    21    20    1
    13    20    19    1
    14    19     1    1
    15     1     2    1
    16     2     3    1
    17     4     3    1
    18     4     5    1
    19     5     6    1
    20     6     8    1
    21     8     9   ar
    22     9    10   ar
    23    10    11   ar
    24    11    15    1
    25    15    16    1
    26    15    17    1
    27    15    18    1
    28    11    12   ar
    29    12    13   ar
    30    13    14    1
    31     4     7    1
    32    26    27   ar
    33    27    28    1
    34    34    30   ar
    35    27    23   ar
    36     7     1    1
    37     6     4    1
    38    13     8   ar
@<TRIPOS>MOLECULE
*****
 34 38 0 0 0
SMALL
GASTEIGER

@<TRIPOS>ATOM
      1 N           6.1768   -2.0059   21.7399 N.3     1  UNL1       -0.2726
      2 C           6.4738   -3.4279   21.3663 C.3     1  UNL1        0.0721
      3 C           5.3931   -3.8989   20.4388 C.3     1  UNL1        0.0190
      4 C           4.4282   -2.7679   20.2391 C.3     1  UNL1        0.0202
      5 C           3.5091   -3.5076   19.3128 C.3     1  UNL1        0.0062
      6 C           3.2121   -2.0856   19.6863 C.3     1  UNL1        0.0259
      7 C           4.9125   -1.5979   21.0432 C.3     1  UNL1        0.0724
      8 C           2.3385   -0.8706   19.5829 C.ar    1  UNL1        0.0050
      9 C           1.2359   -0.6529   20.5763 C.ar    1  UNL1       -0.0021
     10 C           0.3623    0.5620   20.4729 C.ar    1  UNL1        0.0037
     11 C           0.5913    1.5593   19.3760 C.ar    1  UNL1        0.0736
     12 C           1.6940    1.3415   18.3826 C.ar    1  UNL1        0.0332
     13 C           2.5675    0.1266   18.4861 C.ar    1  UNL1        0.1361
     14 F           3.6701   -0.0911   17.4927 F       1  UNL1       -0.2045
     15 C          -0.2823    2.7742   19.2726 C.3     1  UNL1        0.4186
     16 F          -1.1559    3.9892   19.1692 F       1  UNL1       -0.1659
     17 F           0.4386    3.1862   18.0234 F       1  UNL1       -0.1659
     18 F          -1.0031    2.3622   20.5218 F       1  UNL1       -0.1659
     19 C           6.9995   -1.1432   22.6503 C.3     1  UNL1        0.0730
     20 C           6.3293   -0.3102   23.7024 C.3     1  UNL1        0.0294
     21 C           5.6577   -0.9729   24.8686 C.3     1  UNL1        0.0666
     22 S           4.1865   -1.2613   24.8222 S.3     1  UNL1       -0.0756
     23 C           1.9587    0.7387   27.2927 C.ar    1  UNL1        0.2029
     24 N           1.5211    1.3127   25.9777 N.ar    1  UNL1       -0.1250
     25 N           2.3023    0.6334   24.8923 N.ar    1  UNL1       -0.1220
     26 C           3.2228   -0.3605   25.5363 C.ar    1  UNL1        0.1933
     27 N           3.0105   -0.2955   27.0198 N.ar    1  UNL1       -0.2860
     28 C           3.7246   -1.1198   28.0497 C.3     1  UNL1        0.1341
     29 C          -0.8622   -0.2342   28.6139 C.3     1  UNL1        0.0556
     30 C           0.1397    0.6828   29.2505 C.ar    1  UNL1        0.1001
     31 N           0.0209    1.3137   30.6062 N.ar    1  UNL1       -0.2085
     32 C           1.2441    2.1508   30.8367 C.ar    1  UNL1        0.2849
     33 O           2.1189    2.0373   29.6235 O.2     1  UNL1       -0.4283
     34 C           1.4363    1.1300   28.6432 C.ar    1  UNL1        0.1964
@<TRIPOS>BOND
     1    29    30    1
     2    30    31   ar
     3    31    32   ar
     4    32    33   ar
     5    33    34   ar
     6    34    23    1
     7    23    24   ar
     8    24    25   ar
     9    25    26   ar
    10    26    22    1
    11    22    21    1
    12    21    20    1
    13    20    19    1
    14    19     1    1
    15     1     2    1
    16     2     3    1
    17     4     3    1
    18     4     5    1
    19     5     6    1
    20     6     8    1
    21     8     9   ar
    22     9    10   ar
    23    10    11   ar
    24    11    15    1
    25    15    16    1
    26    15    17    1
    27    15    18    1
    28    11    12   ar
    29    12    13   ar
    30    13    14    1
    31     4     7    1
    32    26    27   ar
    33    27    28    1
    34    34    30   ar
    35    27    23   ar
    36     7     1    1
    37     6     4    1
    38    13     8   ar
@<TRIPOS>MOLECULE
*****
 34 38 0 0 0
SMALL
GASTEIGER

@<TRIPOS>ATOM
      1 N           5.3166   -2.8449   22.5041 N.3     1  UNL1       -0.2726
      2 C           6.1149   -3.9004   21.7980 C.3     1  UNL1        0.0721
      3 C           5.7611   -3.8520   20.3411 C.3     1  UNL1        0.0190
      4 C           4.7440   -2.7667   20.1469 C.3     1  UNL1        0.0202
      5 C           4.5963   -2.9534   18.6659 C.3     1  UNL1        0.0062
      6 C           3.7980   -1.8979   19.3721 C.3     1  UNL1        0.0259
      7 C           4.4693   -2.1443   21.4837 C.3     1  UNL1        0.0724
      8 C           2.7909   -0.7870   19.3325 C.ar    1  UNL1        0.0050
      9 C           1.5367   -0.8821   20.1499 C.ar    1  UNL1       -0.0021
     10 C           0.5296    0.2288   20.1103 C.ar    1  UNL1        0.0037
     11 C           0.7766    1.4348   19.2533 C.ar    1  UNL1        0.0736
     12 C           2.0308    1.5299   18.4359 C.ar    1  UNL1        0.0332
     13 C           3.0379    0.4190   18.4755 C.ar    1  UNL1        0.1361
     14 F           4.2919    0.5141   17.6581 F       1  UNL1       -0.2045
     15 C          -0.2305    2.5457   19.2137 C.3     1  UNL1        0.4186
     16 F          -1.2376    3.6567   19.1741 F       1  UNL1       -0.1659
     17 F           0.1979    2.8842   17.8166 F       1  UNL1       -0.1659
     18 F          -0.6588    2.2072   20.6107 F       1  UNL1       -0.1659
     19 C           5.3582   -2.5431   23.9729 C.3     1  UNL1        0.0730
     20 C           4.3095   -1.6646   24.5880 C.3     1  UNL1        0.0294
     21 C           4.2190   -1.5364   26.0798 C.3     1  UNL1        0.0666
     22 S           3.4795   -0.3828   26.6899 S.3     1  UNL1       -0.0756
     23 C           3.0495   -0.6413   30.5388 C.ar    1  UNL1        0.2029
     24 N           1.6251   -0.4759   30.0984 N.ar    1  UNL1       -0.1250
     25 N           1.6129   -0.3589   28.6030 N.ar    1  UNL1       -0.1220
     26 C           3.0297   -0.4520   28.1192 C.ar    1  UNL1        0.1933
     27 N           3.9175   -0.6266   29.3155 N.ar    1  UNL1       -0.2860
     28 C           5.4112   -0.7625   29.2927 C.3     1  UNL1        0.1341
     29 C           3.2410    1.7367   32.7655 C.3     1  UNL1        0.0556
     30 C           3.6107    0.2985   32.9775 C.ar    1  UNL1        0.1001
     31 N           4.1333   -0.2992   34.2501 N.ar    1  UNL1       -0.2085
     32 C           4.3683   -1.7616   34.0131 C.ar    1  UNL1        0.2849
     33 O           3.9909   -2.0678   32.5940 O.2     1  UNL1       -0.4283
     34 C           3.5227   -0.7946   31.9540 C.ar    1  UNL1        0.1964
@<TRIPOS>BOND
     1    29    30    1
     2    30    31   ar
     3    31    32   ar
     4    32    33   ar
     5    33    34   ar
     6    34    23    1
     7    23    24   ar
     8    24    25   ar
     9    25    26   ar
    10    26    22    1
    11    22    21    1
    12    21    20    1
    13    20    19    1
    14    19     1    1
    15     1     2    1
    16     2     3    1
    17     4     3    1
    18     4     5    1
    19     5     6    1
    20     6     8    1
    21     8     9   ar
    22     9    10   ar
    23    10    11   ar
    24    11    15    1
    25    15    16    1
    26    15    17    1
    27    15    18    1
    28    11    12   ar
    29    12    13   ar
    30    13    14    1
    31     4     7    1
    32    26    27   ar
    33    27    28    1
    34    34    30   ar
    35    27    23   ar
    36     7     1    1
    37     6     4    1
    38    13     8   ar
@<TRIPOS>MOLECULE
*****
 34 38 0 0 0
SMALL
GASTEIGER

@<TRIPOS>ATOM
      1 N           2.0259    3.6612   18.4370 N.3     1  UNL1       -0.2726
      2 C           2.9922    4.7308   18.0221 C.3     1  UNL1        0.0721
      3 C           4.3553    4.1122   17.9261 C.3     1  UNL1        0.0190
      4 C           4.2314    2.6602   18.2815 C.3     1  UNL1        0.0202
      5 C           5.6839    2.3307   18.1033 C.3     1  UNL1        0.0062
      6 C           4.7176    1.2610   18.5182 C.3     1  UNL1        0.0259
      7 C           2.7918    2.3814   18.5973 C.3     1  UNL1        0.0724
      8 C           4.4404   -0.1644   18.8943 C.ar    1  UNL1        0.0050
      9 C           4.4112   -0.5667   20.3391 C.ar    1  UNL1       -0.0021
     10 C           4.1339   -1.9921   20.7152 C.ar    1  UNL1        0.0037
     11 C           3.8860   -3.0151   19.6466 C.ar    1  UNL1        0.0736
     12 C           3.9152   -2.6127   18.2018 C.ar    1  UNL1        0.0332
     13 C           4.1924   -1.1874   17.8257 C.ar    1  UNL1        0.1361
     14 F           4.2217   -0.7850   16.3810 F       1  UNL1       -0.2045
     15 C           3.6088   -4.4404   20.0227 C.3     1  UNL1        0.4186
     16 F           3.3315   -5.8658   20.3989 F       1  UNL1       -0.1659
     17 F           4.3726   -4.2520   21.2998 F       1  UNL1       -0.1659
     18 F           2.8449   -4.6289   18.7456 F       1  UNL1       -0.1659
     19 C           0.5524    3.8398   18.6535 C.3     1  UNL1        0.0730
     20 C          -0.2361    2.7774   19.3603 C.3     1  UNL1        0.0294
     21 C          -1.0107    3.1173   20.5990 C.3     1  UNL1        0.0666
     22 S          -2.3621    3.7583   20.4862 S.3     1  UNL1       -0.0756
     23 C          -4.4656    4.0006   23.7393 C.ar    1  UNL1        0.2029
     24 N          -5.2290    2.9581   22.9774 N.ar    1  UNL1       -0.1250
     25 N          -4.5340    2.7404   21.6661 N.ar    1  UNL1       -0.1220
     26 C          -3.3410    3.6484   21.6175 C.ar    1  UNL1        0.1933
     27 N          -3.2987    4.4272   22.8988 N.ar    1  UNL1       -0.2860
     28 C          -2.2701    5.4526   23.2738 C.3     1  UNL1        0.1341
     29 C          -2.7747    3.4707   26.4797 C.3     1  UNL1        0.0556
     30 C          -4.0316    4.2809   26.3619 C.ar    1  UNL1        0.1001
     31 N          -4.7320    4.9897   27.4831 N.ar    1  UNL1       -0.2085
     32 C          -5.9420    5.6714   26.9164 C.ar    1  UNL1        0.2849
     33 O          -5.9895    5.3838   25.4450 O.2     1  UNL1       -0.4283
     34 C          -4.8088    4.5244   25.1023 C.ar    1  UNL1        0.1964
@<TRIPOS>BOND
     1    29    30    1
     2    30    31   ar
     3    31    32   ar
     4    32    33   ar
     5    33    34   ar
     6    34    23    1
     7    23    24   ar
     8    24    25   ar
     9    25    26   ar
    10    26    22    1
    11    22    21    1
    12    21    20    1
    13    20    19    1
    14    19     1    1
    15     1     2    1
    16     2     3    1
    17     4     3    1
    18     4     5    1
    19     5     6    1
    20     6     8    1
    21     8     9   ar
    22     9    10   ar
    23    10    11   ar
    24    11    15    1
    25    15    16    1
    26    15    17    1
    27    15    18    1
    28    11    12   ar
    29    12    13   ar
    30    13    14    1
    31     4     7    1
    32    26    27   ar
    33    27    28    1
    34    34    30   ar
    35    27    23   ar
    36     7     1    1
    37     6     4    1
    38    13     8   ar
@<TRIPOS>MOLECULE
*****
 34 38 0 0 0
SMALL
GASTEIGER

@<TRIPOS>ATOM
      1 N           3.4611    3.1138   22.3626 N.3     1  UNL1       -0.2726
      2 C           3.0097    3.5080   23.7377 C.3     1  UNL1        0.0721
      3 C           2.7426    2.2533   24.5152 C.3     1  UNL1        0.0190
      4 C           3.0290    1.0838   23.6207 C.3     1  UNL1        0.0202
      5 C           2.6871    0.0275   24.6293 C.3     1  UNL1        0.0062
      6 C           3.1385   -0.3667   23.2543 C.3     1  UNL1        0.0259
      7 C           3.4730    1.6156   22.2903 C.3     1  UNL1        0.0724
      8 C           3.4624   -1.4316   22.2488 C.ar    1  UNL1        0.0050
      9 C           2.9469   -1.3190   20.8446 C.ar    1  UNL1       -0.0021
     10 C           3.2707   -2.3840   19.8392 C.ar    1  UNL1        0.0037
     11 C           4.1101   -3.5615   20.2379 C.ar    1  UNL1        0.0736
     12 C           4.6256   -3.6740   21.6420 C.ar    1  UNL1        0.0332
     13 C           4.3017   -2.6091   22.6475 C.ar    1  UNL1        0.1361
     14 F           4.8172   -2.7216   24.0516 F       1  UNL1       -0.2045
     15 C           4.4340   -4.6264   19.2324 C.3     1  UNL1        0.4186
     16 F           4.7579   -5.6914   18.2269 F       1  UNL1       -0.1659
     17 F           3.0139   -4.6026   18.7498 F       1  UNL1       -0.1659
     18 F           5.8540   -4.6502   19.7150 F       1  UNL1       -0.1659
     19 C           3.8350    4.0530   21.2544 C.3     1  UNL1        0.0730
     20 C           2.8833    4.2907   20.1196 C.3     1  UNL1        0.0294
     21 C           2.7964    3.3030   18.9940 C.3     1  UNL1        0.0666
     22 S           1.6359    2.3560   18.9151 S.3     1  UNL1       -0.0756
     23 C          -1.8570    3.3469   20.2878 C.ar    1  UNL1        0.2029
     24 N          -1.9346    3.8779   18.8870 N.ar    1  UNL1       -0.1250
     25 N          -0.6357    3.5713   18.2023 N.ar    1  UNL1       -0.1220
     26 C           0.2448    2.8509   19.1799 C.ar    1  UNL1        0.1933
     27 N          -0.5099    2.7121   20.4688 N.ar    1  UNL1       -0.2860
     28 C          -0.0061    2.0542   21.7191 C.3     1  UNL1        0.1341
     29 C          -1.7563    5.1388   23.0133 C.3     1  UNL1        0.0556
     30 C          -2.8904    4.2588   22.5781 C.ar    1  UNL1        0.1001
     31 N          -4.1774    4.0479   23.3192 N.ar    1  UNL1       -0.2085
     32 C          -5.0190    3.0939   22.5244 C.ar    1  UNL1        0.2849
     33 O          -4.2522    2.7152   21.2921 O.2     1  UNL1       -0.4283
     34 C          -2.9367    3.4351   21.3253 C.ar    1  UNL1        0.1964
@<TRIPOS>BOND
     1    29    30    1
     2    30    31   ar
     3    31    32   ar
     4    32    33   ar
     5    33    34   ar
     6    34    23    1
     7    23    24   ar
     8    24    25   ar
     9    25    26   ar
    10    26    22    1
    11    22    21    1
    12    21    20    1
    13    20    19    1
    14    19     1    1
    15     1     2    1
    16     2     3    1
    17     4     3    1
    18     4     5    1
    19     5     6    1
    20     6     8    1
    21     8     9   ar
    22     9    10   ar
    23    10    11   ar
    24    11    15    1
    25    15    16    1
    26    15    17    1
    27    15    18    1
    28    11    12   ar
    29    12    13   ar
    30    13    14    1
    31     4     7    1
    32    26    27   ar
    33    27    28    1
    34    34    30   ar
    35    27    23   ar
    36     7     1    1
    37     6     4    1
    38    13     8   ar
@<TRIPOS>MOLECULE
*****
 34 38 0 0 0
SMALL
GASTEIGER

@<TRIPOS>ATOM
      1 N           7.3867   -4.8348   24.5497 N.3     1  UNL1       -0.2726
      2 C           8.7036   -5.4557   24.1886 C.3     1  UNL1        0.0721
      3 C           8.9435   -5.2166   22.7274 C.3     1  UNL1        0.0190
      4 C           7.7750   -4.4479   22.1853 C.3     1  UNL1        0.0202
      5 C           8.2815   -4.3660   20.7758 C.3     1  UNL1        0.0062
      6 C           6.9646   -3.7451   21.1369 C.3     1  UNL1        0.0259
      7 C           6.8128   -4.2120   23.3116 C.3     1  UNL1        0.0724
      8 C           5.7364   -2.9808   20.7400 C.ar    1  UNL1        0.0050
      9 C           4.6189   -3.6776   20.0219 C.ar    1  UNL1       -0.0021
     10 C           3.3908   -2.9133   19.6251 C.ar    1  UNL1        0.0037
     11 C           3.2801   -1.4523   19.9464 C.ar    1  UNL1        0.0736
     12 C           4.3977   -0.7556   20.6645 C.ar    1  UNL1        0.0332
     13 C           5.6258   -1.5198   21.0614 C.ar    1  UNL1        0.1361
     14 F           6.7433   -0.8232   21.7795 F       1  UNL1       -0.2045
     15 C           2.0520   -0.6881   19.5496 C.3     1  UNL1        0.4186
     16 F           0.8237    0.0762   19.1527 F       1  UNL1       -0.1659
     17 F           1.4079   -1.0445   20.8565 F       1  UNL1       -0.1659
     18 F           2.6960   -0.3317   18.2426 F       1  UNL1       -0.1659
     19 C           6.7546   -4.8363   25.9100 C.3     1  UNL1        0.0730
     20 C           6.5980   -6.1243   26.6627 C.3     1  UNL1        0.0294
     21 C           7.6368   -6.5405   27.6616 C.3     1  UNL1        0.0666
     22 S           8.2525   -5.5203   28.5727 S.3     1  UNL1       -0.0756
     23 C           6.5298   -3.9584   31.6805 C.ar    1  UNL1        0.2029
     24 N           6.6372   -5.3946   32.0998 N.ar    1  UNL1       -0.1250
     25 N           7.2956   -6.1545   30.9866 N.ar    1  UNL1       -0.1220
     26 C           7.5951   -5.1879   29.8794 C.ar    1  UNL1        0.1933
     27 N           7.1219   -3.8306   30.3082 N.ar    1  UNL1       -0.2860
     28 C           7.2229   -2.5674   29.5056 C.3     1  UNL1        0.1341
     29 C           8.1623   -1.4542   32.9897 C.3     1  UNL1        0.0556
     30 C           6.6853   -1.6943   33.0930 C.ar    1  UNL1        0.1001
     31 N           5.6992   -0.8256   33.8161 N.ar    1  UNL1       -0.2085
     32 C           4.3395   -1.4397   33.6614 C.ar    1  UNL1        0.2849
     33 O           4.4851   -2.6880   32.8425 O.2     1  UNL1       -0.4283
     34 C           5.9349   -2.8453   32.4912 C.ar    1  UNL1        0.1964
@<TRIPOS>BOND
     1    29    30    1
     2    30    31   ar
     3    31    32   ar
     4    32    33   ar
     5    33    34   ar
     6    34    23    1
     7    23    24   ar
     8    24    25   ar
     9    25    26   ar
    10    26    22    1
    11    22    21    1
    12    21    20    1
    13    20    19    1
    14    19     1    1
    15     1     2    1
    16     2     3    1
    17     4     3    1
    18     4     5    1
    19     5     6    1
    20     6     8    1
    21     8     9   ar
    22     9    10   ar
    23    10    11   ar
    24    11    15    1
    25    15    16    1
    26    15    17    1
    27    15    18    1
    28    11    12   ar
    29    12    13   ar
    30    13    14    1
    31     4     7    1
    32    26    27   ar
    33    27    28    1
    34    34    30   ar
    35    27    23   ar
    36     7     1    1
    37     6     4    1
    38    13     8   ar
@<TRIPOS>MOLECULE
*****
 34 38 0 0 0
SMALL
GASTEIGER

@<TRIPOS>ATOM
      1 N           3.2985    2.5904   37.2775 N.3     1  UNL1       -0.2726
      2 C           2.8644    3.8768   37.9153 C.3     1  UNL1        0.0721
      3 C           2.1010    4.6662   36.8935 C.3     1  UNL1        0.0190
      4 C           2.0633    3.8677   35.6242 C.3     1  UNL1        0.0202
      5 C           1.2732    4.8677   34.8332 C.3     1  UNL1        0.0062
      6 C           1.7073    3.5813   34.1955 C.3     1  UNL1        0.0259
      7 C           2.8034    2.5848   35.8616 C.3     1  UNL1        0.0724
      8 C           1.7524    2.6733   33.0024 C.ar    1  UNL1        0.0050
      9 C           2.8354    1.6420   32.8853 C.ar    1  UNL1       -0.0021
     10 C           2.8805    0.7340   31.6923 C.ar    1  UNL1        0.0037
     11 C           1.8426    0.8572   30.6163 C.ar    1  UNL1        0.0736
     12 C           0.7596    1.8885   30.7335 C.ar    1  UNL1        0.0332
     13 C           0.7145    2.7965   31.9265 C.ar    1  UNL1        0.1361
     14 F          -0.3684    3.8277   32.0436 F       1  UNL1       -0.2045
     15 C           1.8877   -0.0508   29.4233 C.3     1  UNL1        0.4186
     16 F           1.9328   -0.9590   28.2302 F       1  UNL1       -0.1659
     17 F           0.4904    0.3564   29.0605 F       1  UNL1       -0.1659
     18 F           3.2850   -0.4581   29.7860 F       1  UNL1       -0.1659
     19 C           4.0889    1.5009   37.9395 C.3     1  UNL1        0.0730
     20 C           4.4119    0.2448   37.1859 C.3     1  UNL1        0.0294
     21 C           5.7850    0.0437   36.6166 C.3     1  UNL1        0.0666
     22 S           6.0132    0.1853   35.1409 S.3     1  UNL1       -0.0756
     23 C           5.7829   -2.6974   32.5519 C.ar    1  UNL1        0.2029
     24 N           4.3610   -2.6164   33.0229 N.ar    1  UNL1       -0.1250
     25 N           4.2742   -1.5267   34.0500 N.ar    1  UNL1       -0.1220
     26 C           5.6425   -0.9342   34.2139 C.ar    1  UNL1        0.1933
     27 N           6.5749   -1.6577   33.2880 N.ar    1  UNL1       -0.2860
     28 C           8.0417   -1.3888   33.1266 C.3     1  UNL1        0.1341
     29 C           6.0703   -2.1106   29.3546 C.3     1  UNL1        0.0556
     30 C           6.4507   -3.3810   30.0555 C.ar    1  UNL1        0.1001
     31 N           7.0301   -4.6047   29.4099 N.ar    1  UNL1       -0.2085
     32 C           7.2561   -5.6307   30.4805 C.ar    1  UNL1        0.2849
     33 O           6.8164   -5.0412   31.7878 O.2     1  UNL1       -0.4283
     34 C           6.3187   -3.6507   31.5251 C.ar    1  UNL1        0.1964
@<TRIPOS>BOND
     1    29    30    1
     2    30    31   ar
     3    31    32   ar
     4    32    33   ar
     5    33    34   ar
     6    34    23    1
     7    23    24   ar
     8    24    25   ar
     9    25    26   ar
    10    26    22    1
    11    22    21    1
    12    21    20    1
    13    20    19    1
    14    19     1    1
    15     1     2    1
    16     2     3    1
    17     4     3    1
    18     4     5    1
    19     5     6    1
    20     6     8    1
    21     8     9   ar
    22     9    10   ar
    23    10    11   ar
    24    11    15    1
    25    15    16    1
    26    15    17    1
    27    15    18    1
    28    11    12   ar
    29    12    13   ar
    30    13    14    1
    31     4     7    1
    32    26    27   ar
    33    27    28    1
    34    34    30   ar
    35    27    23   ar
    36     7     1    1
    37     6     4    1
    38    13     8   ar
