@<TRIPOS>MOLECULE
*****
 19 20 0 0 0
SMALL
GASTEIGER

@<TRIPOS>ATOM
      1 C          -9.6664  -19.2899   20.0708 C.3     1  UNL1        0.0341
      2 C          -8.5048  -18.7404   20.8446 C.2     1  UNL1        0.0151
      3 C          -9.0576  -17.6606   21.7268 C.2     1  UNL1        0.0015
      4 C          -8.7804  -16.6139   22.7650 C.3     1  UNL1        0.1347
      5 O         -10.0973  -15.9653   23.0733 O.3     1  UNL1       -0.3800
      6 C          -7.7612  -15.9327   23.6294 C.3     1  UNL1        0.0634
      7 C          -6.3236  -15.8333   24.0456 C.3     1  UNL1        0.1202
      8 C          -7.0044  -14.7827   24.8718 C.3     1  UNL1        0.0322
      9 O          -5.2069  -15.2385   24.8514 O.3     1  UNL1       -0.3561
     10 C          -4.9239  -16.3471   23.8815 C.3     1  UNL1        0.1401
     11 C          -4.0066  -17.3112   23.1892 C.3     1  UNL1        0.0360
     12 C          -3.8630  -18.4193   22.1885 C.3     1  UNL1        0.0211
     13 C          -2.8394  -19.3267   21.5728 C.3     1  UNL1        0.0044
     14 C          -2.5179  -18.1125   22.7772 C.3     1  UNL1        0.0044
     15 C          -4.5386  -19.3197   21.1970 C.2     1  UNL1       -0.0234
     16 C          -5.8189  -19.7264   20.5297 C.2     1  UNL1        0.0371
     17 C          -7.2974  -19.5105   20.3983 C.2     1  UNL1        0.1912
     18 O          -7.7787  -20.4940   19.3731 O.2     1  UNL1       -0.2869
     19 H          -9.9693  -15.2765   23.7443 H       1  UNL1        0.2108
@<TRIPOS>BOND
     1     1     2    1
     2     2     3    2
     3     3     4    1
     4     4     5    1
     5     4     6    1
     6     6     7    1
     7     7     8    1
     8     7     9    1
     9     9    10    1
    10    10    11    1
    11    11    12    1
    12    12    13    1
    13    12    14    1
    14    12    15    1
    15    15    16    2
    16    16    17    1
    17    17    18    2
    18    17     2    1
    19    10     7    1
    20     5    19    1
@<TRIPOS>MOLECULE
*****
 19 20 0 0 0
SMALL
GASTEIGER

@<TRIPOS>ATOM
      1 C          -5.4775  -15.1735   25.2316 C.3     1  UNL1        0.0341
      2 C          -5.7220  -16.1723   24.1395 C.2     1  UNL1        0.0151
      3 C          -4.3894  -16.7805   23.8170 C.2     1  UNL1        0.0015
      4 C          -3.6175  -17.7585   22.9815 C.3     1  UNL1        0.1347
      5 O          -2.1873  -17.6535   23.4211 O.3     1  UNL1       -0.3800
      6 C          -3.6516  -18.7955   21.8983 C.3     1  UNL1        0.0634
      7 C          -4.4808  -19.5625   20.9112 C.3     1  UNL1        0.1202
      8 C          -3.0928  -20.0860   20.6894 C.3     1  UNL1        0.0322
      9 O          -4.6555  -20.5763   19.8196 O.3     1  UNL1       -0.3561
     10 C          -5.8418  -19.8158   20.3337 C.3     1  UNL1        0.1401
     11 C          -7.3025  -19.4751   20.3492 C.3     1  UNL1        0.0360
     12 C          -8.3992  -18.6485   20.9526 C.3     1  UNL1        0.0211
     13 C          -9.8766  -18.4043   20.8641 C.3     1  UNL1        0.0044
     14 C          -8.9811  -19.5388   19.8949 C.3     1  UNL1        0.0044
     15 C          -8.7836  -17.5985   21.9525 C.2     1  UNL1       -0.0234
     16 C          -8.3337  -16.6584   23.0313 C.2     1  UNL1        0.0371
     17 C          -7.1924  -16.1268   23.8466 C.2     1  UNL1        0.1912
     18 O          -7.7765  -15.1024   24.7737 O.2     1  UNL1       -0.2869
     19 H          -1.6446  -18.2711   22.9063 H       1  UNL1        0.2108
@<TRIPOS>BOND
     1     1     2    1
     2     2     3    2
     3     3     4    1
     4     4     5    1
     5     4     6    1
     6     6     7    1
     7     7     8    1
     8     7     9    1
     9     9    10    1
    10    10    11    1
    11    11    12    1
    12    12    13    1
    13    12    14    1
    14    12    15    1
    15    15    16    2
    16    16    17    1
    17    17    18    2
    18    17     2    1
    19    10     7    1
    20     5    19    1
@<TRIPOS>MOLECULE
*****
 19 20 0 0 0
SMALL
GASTEIGER

@<TRIPOS>ATOM
      1 C          -7.3796  -14.9599   24.9539 C.3     1  UNL1        0.0341
      2 C          -7.0743  -16.0250   23.9427 C.2     1  UNL1        0.0151
      3 C          -8.3765  -16.3641   23.2799 C.2     1  UNL1        0.0015
      4 C          -9.0933  -17.1957   22.2578 C.3     1  UNL1        0.1347
      5 O         -10.5361  -16.7904   22.3195 O.3     1  UNL1       -0.3800
      6 C          -8.9970  -18.2557   21.2009 C.3     1  UNL1        0.0634
      7 C          -8.1183  -19.2076   20.4446 C.3     1  UNL1        0.1202
      8 C          -9.4812  -19.4492   19.8665 C.3     1  UNL1        0.0322
      9 O          -7.8823  -20.2734   19.4159 O.3     1  UNL1       -0.3561
     10 C          -6.7362  -19.7491   20.2293 C.3     1  UNL1        0.1401
     11 C          -5.2894  -19.7084   20.6231 C.3     1  UNL1        0.0360
     12 C          -4.2373  -19.0983   21.5011 C.3     1  UNL1        0.0211
     13 C          -2.7680  -19.1590   21.7971 C.3     1  UNL1        0.0044
     14 C          -3.5996  -20.1237   20.6113 C.3     1  UNL1        0.0044
     15 C          -3.9140  -18.1125   22.5846 C.2     1  UNL1       -0.0234
     16 C          -4.4220  -17.0641   23.5294 C.2     1  UNL1        0.0371
     17 C          -5.6002  -16.2859   24.0357 C.2     1  UNL1        0.1912
     18 O          -5.0748  -15.3679   25.0993 O.2     1  UNL1       -0.2869
     19 H         -11.0443  -17.3040   21.6723 H       1  UNL1        0.2108
@<TRIPOS>BOND
     1     1     2    1
     2     2     3    2
     3     3     4    1
     4     4     5    1
     5     4     6    1
     6     6     7    1
     7     7     8    1
     8     7     9    1
     9     9    10    1
    10    10    11    1
    11    11    12    1
    12    12    13    1
    13    12    14    1
    14    12    15    1
    15    15    16    2
    16    16    17    1
    17    17    18    2
    18    17     2    1
    19    10     7    1
    20     5    19    1
@<TRIPOS>MOLECULE
*****
 19 20 0 0 0
SMALL
GASTEIGER

@<TRIPOS>ATOM
      1 C          -3.7479  -20.3920   20.2624 C.3     1  UNL1        0.0341
      2 C          -4.7360  -19.4903   20.9410 C.2     1  UNL1        0.0151
      3 C          -6.0696  -19.7801   20.3184 C.2     1  UNL1        0.0015
      4 C          -7.5366  -19.4699   20.2758 C.3     1  UNL1        0.1347
      5 O          -8.1264  -20.3600   19.2224 O.3     1  UNL1       -0.3800
      6 C          -8.6711  -18.6580   20.8267 C.3     1  UNL1        0.0634
      7 C          -9.1132  -17.6023   21.7963 C.3     1  UNL1        0.1202
      8 C         -10.3800  -17.9883   21.0919 C.3     1  UNL1        0.0322
      9 O         -10.1525  -16.7286   22.4338 O.3     1  UNL1       -0.3561
     10 C          -8.7223  -16.6380   22.8767 C.3     1  UNL1        0.1401
     11 C          -7.6226  -16.0711   23.7249 C.3     1  UNL1        0.0360
     12 C          -6.1633  -16.0818   24.0716 C.3     1  UNL1        0.0211
     13 C          -5.1624  -15.4318   24.9804 C.3     1  UNL1        0.0044
     14 C          -6.8643  -15.0719   24.9310 C.3     1  UNL1        0.0044
     15 C          -4.8075  -16.6666   23.8066 C.2     1  UNL1       -0.0234
     16 C          -3.9860  -17.6398   23.0142 C.2     1  UNL1        0.0371
     17 C          -3.9593  -18.6924   21.9460 C.2     1  UNL1        0.1912
     18 O          -2.5335  -19.1445   21.8337 O.2     1  UNL1       -0.2869
     19 H          -9.0801  -20.1954   19.1569 H       1  UNL1        0.2108
@<TRIPOS>BOND
     1     1     2    1
     2     2     3    2
     3     3     4    1
     4     4     5    1
     5     4     6    1
     6     6     7    1
     7     7     8    1
     8     7     9    1
     9     9    10    1
    10    10    11    1
    11    11    12    1
    12    12    13    1
    13    12    14    1
    14    12    15    1
    15    15    16    2
    16    16    17    1
    17    17    18    2
    18    17     2    1
    19    10     7    1
    20     5    19    1
@<TRIPOS>MOLECULE
*****
 19 20 0 0 0
SMALL
GASTEIGER

@<TRIPOS>ATOM
      1 C          -9.7358  -19.4859   20.0901 C.3     1  UNL1        0.0341
      2 C          -8.5807  -18.9304   20.8692 C.2     1  UNL1        0.0151
      3 C          -7.3842  -19.7547   20.4967 C.2     1  UNL1        0.0015
      4 C          -5.9166  -20.0043   20.6814 C.3     1  UNL1        0.1347
      5 O          -5.5706  -21.1650   19.7965 O.3     1  UNL1       -0.3800
      6 C          -4.6441  -19.5999   21.3648 C.3     1  UNL1        0.0634
      7 C          -3.9705  -18.6699   22.3299 C.3     1  UNL1        0.1202
      8 C          -2.8604  -19.5685   21.8714 C.3     1  UNL1        0.0322
      9 O          -2.7735  -18.1636   23.0787 O.3     1  UNL1       -0.3561
     10 C          -4.1097  -17.5095   23.2702 C.3     1  UNL1        0.1401
     11 C          -5.0176  -16.4872   23.8872 C.3     1  UNL1        0.0360
     12 C          -6.4058  -15.9276   23.9851 C.3     1  UNL1        0.0211
     13 C          -7.1998  -14.8571   24.6734 C.3     1  UNL1        0.0044
     14 C          -5.4973  -15.1467   24.8877 C.3     1  UNL1        0.0044
     15 C          -7.8338  -16.0083   23.5327 C.2     1  UNL1       -0.0234
     16 C          -8.8479  -16.7037   22.6736 C.2     1  UNL1        0.0371
     17 C          -9.1264  -17.7930   21.6808 C.2     1  UNL1        0.1912
     18 O         -10.5889  -17.7077   21.3589 O.2     1  UNL1       -0.2869
     19 H          -4.6255  -21.3660   19.8816 H       1  UNL1        0.2108
@<TRIPOS>BOND
     1     1     2    1
     2     2     3    2
     3     3     4    1
     4     4     5    1
     5     4     6    1
     6     6     7    1
     7     7     8    1
     8     7     9    1
     9     9    10    1
    10    10    11    1
    11    11    12    1
    12    12    13    1
    13    12    14    1
    14    12    15    1
    15    15    16    2
    16    16    17    1
    17    17    18    2
    18    17     2    1
    19    10     7    1
    20     5    19    1
@<TRIPOS>MOLECULE
*****
 19 20 0 0 0
SMALL
GASTEIGER

@<TRIPOS>ATOM
      1 C          -5.4592  -14.7938   25.9905 C.3     1  UNL1        0.0341
      2 C          -6.0387  -15.9048   25.1659 C.2     1  UNL1        0.0151
      3 C          -4.9212  -16.4228   24.3099 C.2     1  UNL1        0.0015
      4 C          -4.4849  -17.4024   23.2610 C.3     1  UNL1        0.1347
      5 O          -3.0300  -17.1353   23.0122 O.3     1  UNL1       -0.3800
      6 C          -4.8684  -18.5325   22.3523 C.3     1  UNL1        0.0634
      7 C          -5.9500  -19.4544   21.8722 C.3     1  UNL1        0.1202
      8 C          -4.7489  -19.8744   21.0779 C.3     1  UNL1        0.0322
      9 O          -6.4652  -20.5742   21.0177 O.3     1  UNL1       -0.3561
     10 C          -7.3862  -19.8753   21.9733 C.3     1  UNL1        0.1401
     11 C          -8.7210  -19.6616   22.6234 C.3     1  UNL1        0.0360
     12 C          -9.5307  -18.8812   23.6160 C.3     1  UNL1        0.0211
     13 C         -10.9146  -18.7741   24.1848 C.3     1  UNL1        0.0044
     14 C         -10.4085  -19.9105   22.9679 C.3     1  UNL1        0.0044
     15 C          -9.5581  -17.7818   24.6362 C.2     1  UNL1       -0.0234
     16 C          -8.7946  -16.7125   25.3599 C.2     1  UNL1        0.0371
     17 C          -7.4826  -16.0128   25.5573 C.2     1  UNL1        0.1912
     18 O          -7.7169  -14.9626   26.6025 O.2     1  UNL1       -0.2869
     19 H          -2.6997  -17.7480   22.3366 H       1  UNL1        0.2108
@<TRIPOS>BOND
     1     1     2    1
     2     2     3    2
     3     3     4    1
     4     4     5    1
     5     4     6    1
     6     6     7    1
     7     7     8    1
     8     7     9    1
     9     9    10    1
    10    10    11    1
    11    11    12    1
    12    12    13    1
    13    12    14    1
    14    12    15    1
    15    15    16    2
    16    16    17    1
    17    17    18    2
    18    17     2    1
    19    10     7    1
    20     5    19    1
@<TRIPOS>MOLECULE
*****
 19 20 0 0 0
SMALL
GASTEIGER

@<TRIPOS>ATOM
      1 C          -5.4462  -16.8708   23.6340 C.3     1  UNL1        0.0341
      2 C          -6.6837  -17.2455   22.8735 C.2     1  UNL1        0.0151
      3 C          -7.8122  -16.4810   23.4996 C.2     1  UNL1        0.0015
      4 C          -9.2797  -16.1704   23.4984 C.3     1  UNL1        0.1347
      5 O          -9.5050  -15.1899   24.6110 O.3     1  UNL1       -0.3800
      6 C         -10.6202  -16.4122   22.8704 C.3     1  UNL1        0.0634
      7 C         -11.4082  -17.1298   21.8148 C.3     1  UNL1        0.1202
      8 C         -12.4405  -16.3103   22.5309 C.3     1  UNL1        0.0322
      9 O         -12.6829  -17.4609   21.0969 O.3     1  UNL1       -0.3561
     10 C         -11.3935  -18.0952   20.6669 C.3     1  UNL1        0.1401
     11 C         -10.5806  -19.0020   19.7910 C.3     1  UNL1        0.0360
     12 C          -9.2279  -19.5622   19.4654 C.3     1  UNL1        0.0211
     13 C          -8.5363  -20.5006   18.5212 C.3     1  UNL1        0.0044
     14 C         -10.2388  -20.1402   18.5199 C.3     1  UNL1        0.0044
     15 C          -7.7645  -19.5980   19.7933 C.2     1  UNL1       -0.0234
     16 C          -6.6553  -19.0981   20.6707 C.2     1  UNL1        0.0371
     17 C          -6.2524  -18.2211   21.8189 C.2     1  UNL1        0.1912
     18 O          -4.7720  -18.3961   21.9851 O.2     1  UNL1       -0.2869
     19 H         -10.4458  -14.9567   24.6509 H       1  UNL1        0.2108
@<TRIPOS>BOND
     1     1     2    1
     2     2     3    2
     3     3     4    1
     4     4     5    1
     5     4     6    1
     6     6     7    1
     7     7     8    1
     8     7     9    1
     9     9    10    1
    10    10    11    1
    11    11    12    1
    12    12    13    1
    13    12    14    1
    14    12    15    1
    15    15    16    2
    16    16    17    1
    17    17    18    2
    18    17     2    1
    19    10     7    1
    20     5    19    1
@<TRIPOS>MOLECULE
*****
 19 20 0 0 0
SMALL
GASTEIGER

@<TRIPOS>ATOM
      1 C          -4.4321  -20.4649   20.3748 C.3     1  UNL1        0.0341
      2 C          -5.2919  -19.5049   21.1425 C.2     1  UNL1        0.0151
      3 C          -4.3672  -18.7277   22.0318 C.2     1  UNL1        0.0015
      4 C          -4.2206  -17.6563   23.0714 C.3     1  UNL1        0.1347
      5 O          -2.7572  -17.5746   23.3907 O.3     1  UNL1       -0.3800
      6 C          -4.8985  -16.6309   23.9311 C.3     1  UNL1        0.0634
      7 C          -6.1857  -15.9771   24.3380 C.3     1  UNL1        0.1202
      8 C          -5.1543  -15.2768   25.1721 C.3     1  UNL1        0.0322
      9 O          -6.9866  -14.9931   25.1381 O.3     1  UNL1       -0.3561
     10 C          -7.6736  -15.9024   24.1628 C.3     1  UNL1        0.1401
     11 C          -8.8897  -16.4306   23.4613 C.3     1  UNL1        0.0360
     12 C          -9.4479  -17.3938   22.4561 C.3     1  UNL1        0.0211
     13 C         -10.7403  -17.8284   21.8307 C.3     1  UNL1        0.0044
     14 C         -10.5702  -16.5855   23.0368 C.3     1  UNL1        0.0044
     15 C          -9.1711  -18.4865   21.4664 C.2     1  UNL1       -0.0234
     16 C          -8.1470  -19.3616   20.8064 C.2     1  UNL1        0.0371
     17 C          -6.7009  -19.7412   20.6856 C.2     1  UNL1        0.1912
     18 O          -6.6351  -20.8343   19.6606 O.2     1  UNL1       -0.2869
     19 H          -2.6106  -16.8909   24.0629 H       1  UNL1        0.2108
@<TRIPOS>BOND
     1     1     2    1
     2     2     3    2
     3     3     4    1
     4     4     5    1
     5     4     6    1
     6     6     7    1
     7     7     8    1
     8     7     9    1
     9     9    10    1
    10    10    11    1
    11    11    12    1
    12    12    13    1
    13    12    14    1
    14    12    15    1
    15    15    16    2
    16    16    17    1
    17    17    18    2
    18    17     2    1
    19    10     7    1
    20     5    19    1
@<TRIPOS>MOLECULE
*****
 19 20 0 0 0
SMALL
GASTEIGER

@<TRIPOS>ATOM
      1 C          -5.6839  -16.5705   23.9013 C.3     1  UNL1        0.0341
      2 C          -6.8821  -17.0446   23.1334 C.2     1  UNL1        0.0151
      3 C          -6.3629  -17.9530   22.0586 C.2     1  UNL1        0.0015
      4 C          -6.6837  -18.8402   20.8924 C.3     1  UNL1        0.1347
      5 O          -5.3738  -19.3779   20.3975 O.3     1  UNL1       -0.3800
      6 C          -7.7426  -19.4244   20.0050 C.3     1  UNL1        0.0634
      7 C          -9.2035  -19.5201   19.6782 C.3     1  UNL1        0.1202
      8 C          -8.5535  -20.4029   18.6544 C.3     1  UNL1        0.0322
      9 O         -10.3578  -20.0321   18.8687 O.3     1  UNL1       -0.3561
     10 C         -10.6024  -19.0970   20.0157 C.3     1  UNL1        0.1401
     11 C         -11.4954  -18.2894   20.9105 C.3     1  UNL1        0.0360
     12 C         -11.5987  -17.3537   22.0782 C.3     1  UNL1        0.0211
     13 C         -12.6015  -16.5948   22.8960 C.3     1  UNL1        0.0044
     14 C         -12.9736  -17.6240   21.5430 C.3     1  UNL1        0.0044
     15 C         -10.8797  -16.5870   23.1484 C.2     1  UNL1       -0.0234
     16 C          -9.5666  -16.2327   23.7811 C.2     1  UNL1        0.0371
     17 C          -8.0764  -16.4032   23.7755 C.2     1  UNL1        0.1912
     18 O          -7.5512  -15.5678   24.9052 O.2     1  UNL1       -0.2869
     19 H          -5.5298  -19.9613   19.6384 H       1  UNL1        0.2108
@<TRIPOS>BOND
     1     1     2    1
     2     2     3    2
     3     3     4    1
     4     4     5    1
     5     4     6    1
     6     6     7    1
     7     7     8    1
     8     7     9    1
     9     9    10    1
    10    10    11    1
    11    11    12    1
    12    12    13    1
    13    12    14    1
    14    12    15    1
    15    15    16    2
    16    16    17    1
    17    17    18    2
    18    17     2    1
    19    10     7    1
    20     5    19    1
