@<TRIPOS>MOLECULE
*****
 29 32 0 0 0
SMALL
GASTEIGER

@<TRIPOS>ATOM
      1 C           6.5883   -3.9379   29.2069 C.ar    1  UNL1        0.0785
      2 C           6.2797   -2.4708   29.1604 C.ar    1  UNL1        0.0183
      3 C           6.1659   -1.6876   30.4346 C.ar    1  UNL1        0.0168
      4 C           6.3607   -2.3715   31.7553 C.ar    1  UNL1        0.0636
      5 C           6.6693   -3.8387   31.8018 C.ar    1  UNL1        0.0462
      6 C           6.7831   -4.6219   30.5275 C.ar    1  UNL1        0.1547
      7 F           7.0918   -6.0891   30.5740 F       1  UNL1       -0.2028
      8 N           6.2468   -1.5883   33.0295 N.am    1  UNL1       -0.2010
      9 C           5.0531   -1.5495   33.9369 C.2     1  UNL1        0.2590
     10 O           3.7635   -2.2871   33.7295 O.2     1  UNL1       -0.2691
     11 C           5.3752   -0.6436   35.0883 C.ar    1  UNL1        0.0609
     12 C           4.5802   -0.2259   36.2897 C.ar    1  UNL1        0.0048
     13 C           5.1780    0.7129   37.2952 C.ar    1  UNL1        0.0025
     14 C           6.5709    1.2340   37.0994 C.ar    1  UNL1        0.0298
     15 C           7.3660    0.8162   35.8980 C.ar    1  UNL1        0.1446
     16 F           8.7588    1.3373   35.7022 F       1  UNL1       -0.2040
     17 C           6.7681   -0.1225   34.8925 C.ar    1  UNL1        0.0861
     18 C           7.3068   -0.7064   33.6201 C.2     1  UNL1        0.2611
     19 O           8.6667   -0.4528   33.0401 O.2     1  UNL1       -0.2691
     20 C           8.0436   -4.9196   27.2916 C.2     1  UNL1        0.2840
     21 O           9.2714   -4.3348   27.9247 O.2     1  UNL1       -0.2665
     22 N           6.7022   -4.7211   27.9326 N.am    1  UNL1       -0.2761
     23 H           5.8964   -5.1049   27.5171 H       1  UNL1        0.1553
     24 C           7.9305   -8.1697   27.0211 C.3     1  UNL1        0.0345
     25 C           8.1055   -7.1968   25.8931 C.ar    1  UNL1        0.0204
     26 C           8.2592   -7.5468   24.4425 C.ar    1  UNL1        0.0396
     27 C           8.4061   -6.2692   23.6704 C.ar    1  UNL1        0.1795
     28 O           8.3433   -5.1296   24.6437 O.2     1  UNL1       -0.4461
     29 C           8.1575   -5.7028   26.0173 C.ar    1  UNL1        0.1948
@<TRIPOS>BOND
     1    24    25    1
     2    25    26   ar
     3    26    27   ar
     4    27    28   ar
     5    28    29   ar
     6    29    20    1
     7    20    21    2
     8    20    22   am
     9    22     1    1
    10     1     2   ar
    11     2     3   ar
    12     3     4   ar
    13     4     8    1
    14     8     9   am
    15     9    10    2
    16     9    11    1
    17    11    12   ar
    18    12    13   ar
    19    13    14   ar
    20    14    15   ar
    21    15    16    1
    22    15    17   ar
    23    17    18    1
    24    18    19    2
    25     4     5   ar
    26     5     6   ar
    27     6     7    1
    28    29    25   ar
    29     6     1   ar
    30    18     8   am
    31    17    11   ar
    32    22    23    1
@<TRIPOS>MOLECULE
*****
 29 32 0 0 0
SMALL
GASTEIGER

@<TRIPOS>ATOM
      1 C          -5.3256  -18.2276   22.3735 C.ar    1  UNL1        0.0785
      2 C          -6.1603  -19.4142   21.9927 C.ar    1  UNL1        0.0183
      3 C          -7.6241  -19.4374   22.3193 C.ar    1  UNL1        0.0168
      4 C          -8.2533  -18.2738   23.0266 C.ar    1  UNL1        0.0636
      5 C          -7.4185  -17.0872   23.4074 C.ar    1  UNL1        0.0462
      6 C          -5.9547  -17.0640   23.0808 C.ar    1  UNL1        0.1547
      7 F          -5.1200  -15.8773   23.4617 F       1  UNL1       -0.2028
      8 N          -9.7171  -18.2970   23.3531 N.am    1  UNL1       -0.2010
      9 C         -10.3158  -18.5764   24.6998 C.2     1  UNL1        0.2590
     10 O          -9.5557  -18.8818   25.9564 O.2     1  UNL1       -0.2691
     11 C         -11.8080  -18.4969   24.5693 C.ar    1  UNL1        0.0609
     12 C         -12.9139  -18.6812   25.5657 C.ar    1  UNL1        0.0048
     13 C         -14.3433  -18.5370   25.1348 C.ar    1  UNL1        0.0025
     14 C         -14.6669  -18.2084   23.7075 C.ar    1  UNL1        0.0298
     15 C         -13.5610  -18.0240   22.7110 C.ar    1  UNL1        0.1446
     16 F         -13.8846  -17.6954   21.2837 F       1  UNL1       -0.2040
     17 C         -12.1315  -18.1683   23.1419 C.ar    1  UNL1        0.0861
     18 C         -10.8393  -18.0447   22.3903 C.2     1  UNL1        0.2611
     19 O         -10.6947  -17.7251   20.9319 O.2     1  UNL1       -0.2691
     20 C          -3.4107  -18.2773   20.6183 C.2     1  UNL1        0.2840
     21 O          -4.4236  -18.3733   19.5160 O.2     1  UNL1       -0.2665
     22 N          -3.8617  -18.2044   22.0470 N.am    1  UNL1       -0.2761
     23 H          -3.1969  -18.1414   22.7704 H       1  UNL1        0.1553
     24 C          -2.0945  -17.3775   17.7709 C.3     1  UNL1        0.0345
     25 C          -1.3419  -17.8405   18.9829 C.ar    1  UNL1        0.0204
     26 C           0.1479  -17.9713   19.0990 C.ar    1  UNL1        0.0396
     27 C           0.4637  -18.4658   20.4795 C.ar    1  UNL1        0.1795
     28 O          -0.8310  -18.6406   21.2167 O.2     1  UNL1       -0.4461
     29 C          -1.9469  -18.2542   20.2918 C.ar    1  UNL1        0.1948
@<TRIPOS>BOND
     1    24    25    1
     2    25    26   ar
     3    26    27   ar
     4    27    28   ar
     5    28    29   ar
     6    29    20    1
     7    20    21    2
     8    20    22   am
     9    22     1    1
    10     1     2   ar
    11     2     3   ar
    12     3     4   ar
    13     4     8    1
    14     8     9   am
    15     9    10    2
    16     9    11    1
    17    11    12   ar
    18    12    13   ar
    19    13    14   ar
    20    14    15   ar
    21    15    16    1
    22    15    17   ar
    23    17    18    1
    24    18    19    2
    25     4     5   ar
    26     5     6   ar
    27     6     7    1
    28    29    25   ar
    29     6     1   ar
    30    18     8   am
    31    17    11   ar
    32    22    23    1
@<TRIPOS>MOLECULE
*****
 29 32 0 0 0
SMALL
GASTEIGER

@<TRIPOS>ATOM
      1 C           6.6583   -2.6108   31.9329 C.ar    1  UNL1        0.0785
      2 C           5.1779   -2.5939   32.1735 C.ar    1  UNL1        0.0183
      3 C           4.5959   -1.6718   33.2035 C.ar    1  UNL1        0.0168
      4 C           5.4943   -0.7665   33.9929 C.ar    1  UNL1        0.0636
      5 C           6.9748   -0.7834   33.7523 C.ar    1  UNL1        0.0462
      6 C           7.5568   -1.7055   32.7223 C.ar    1  UNL1        0.1547
      7 F           9.0373   -1.7224   32.4818 F       1  UNL1       -0.2028
      8 N           4.9123    0.1557   35.0230 N.am    1  UNL1       -0.2010
      9 C           5.3145    0.2318   36.4660 C.2     1  UNL1        0.2590
     10 O           6.3693   -0.6008   37.1325 O.2     1  UNL1       -0.2691
     11 C           4.4767    1.2868   37.1257 C.ar    1  UNL1        0.0609
     12 C           4.4327    1.7974   38.5354 C.ar    1  UNL1        0.0048
     13 C           3.4687    2.8839   38.9097 C.ar    1  UNL1        0.0025
     14 C           2.5487    3.4598   37.8743 C.ar    1  UNL1        0.0298
     15 C           2.5927    2.9492   36.4646 C.ar    1  UNL1        0.1446
     16 F           1.6727    3.5250   35.4292 F       1  UNL1       -0.2040
     17 C           3.5567    1.8626   36.0903 C.ar    1  UNL1        0.0861
     18 C           3.8260    1.1636   34.7908 C.2     1  UNL1        0.2611
     19 O           3.1308    1.4263   33.4878 O.2     1  UNL1       -0.2691
     20 C           7.2500   -5.0137   31.1419 C.2     1  UNL1        0.2840
     21 O           6.6777   -5.5724   32.4109 O.2     1  UNL1       -0.2665
     22 N           7.2403   -3.5329   30.9029 N.am    1  UNL1       -0.2761
     23 H           7.6160   -3.1663   30.0700 H       1  UNL1        0.1553
     24 C           6.2612   -5.2989   28.0450 C.3     1  UNL1        0.0345
     25 C           7.3775   -6.0669   28.6883 C.ar    1  UNL1        0.0204
     26 C           8.2353   -7.1009   28.0212 C.ar    1  UNL1        0.0396
     27 C           9.2200   -7.6089   29.0324 C.ar    1  UNL1        0.1795
     28 O           8.9707   -6.8888   30.3244 O.2     1  UNL1       -0.4461
     29 C           7.8320   -5.9359   30.1119 C.ar    1  UNL1        0.1948
@<TRIPOS>BOND
     1    24    25    1
     2    25    26   ar
     3    26    27   ar
     4    27    28   ar
     5    28    29   ar
     6    29    20    1
     7    20    21    2
     8    20    22   am
     9    22     1    1
    10     1     2   ar
    11     2     3   ar
    12     3     4   ar
    13     4     8    1
    14     8     9   am
    15     9    10    2
    16     9    11    1
    17    11    12   ar
    18    12    13   ar
    19    13    14   ar
    20    14    15   ar
    21    15    16    1
    22    15    17   ar
    23    17    18    1
    24    18    19    2
    25     4     5   ar
    26     5     6   ar
    27     6     7    1
    28    29    25   ar
    29     6     1   ar
    30    18     8   am
    31    17    11   ar
    32    22    23    1
@<TRIPOS>MOLECULE
*****
 29 32 0 0 0
SMALL
GASTEIGER

@<TRIPOS>ATOM
      1 C           0.0636    2.9881   27.9832 C.ar    1  UNL1        0.0785
      2 C          -0.7479    4.2361   27.7991 C.ar    1  UNL1        0.0183
      3 C          -1.6205    4.3917   26.5890 C.ar    1  UNL1        0.0168
      4 C          -1.6816    3.2993   25.5629 C.ar    1  UNL1        0.0636
      5 C          -0.8701    2.0513   25.7470 C.ar    1  UNL1        0.0462
      6 C           0.0025    1.8957   26.9571 C.ar    1  UNL1        0.1547
      7 F           0.8140    0.6476   27.1412 F       1  UNL1       -0.2028
      8 N          -2.5542    3.4549   24.3528 N.am    1  UNL1       -0.2010
      9 C          -2.0835    3.5349   22.9308 C.2     1  UNL1        0.2590
     10 O          -0.6576    3.4734   22.4693 O.2     1  UNL1       -0.2691
     11 C          -3.2891    3.6872   22.0514 C.ar    1  UNL1        0.0609
     12 C          -3.4368    3.8149   20.5642 C.ar    1  UNL1        0.0048
     13 C          -4.8004    3.9567   19.9554 C.ar    1  UNL1        0.0025
     14 C          -6.0161    3.9708   20.8339 C.ar    1  UNL1        0.0298
     15 C          -5.8684    3.8431   22.3211 C.ar    1  UNL1        0.1446
     16 F          -7.0841    3.8572   23.1996 F       1  UNL1       -0.2040
     17 C          -4.5048    3.7013   22.9298 C.ar    1  UNL1        0.0861
     18 C          -4.0506    3.5577   24.3522 C.2     1  UNL1        0.2611
     19 O          -4.9373    3.5231   25.5616 O.2     1  UNL1       -0.2691
     20 C           0.5919    1.8151   30.2404 C.2     1  UNL1        0.2840
     21 O          -0.6249    0.9532   30.0773 O.2     1  UNL1       -0.2665
     22 N           0.9362    2.8326   29.1933 N.am    1  UNL1       -0.2761
     23 H           1.7348    3.3982   29.3003 H       1  UNL1        0.1553
     24 C           0.7435    3.8679   32.7727 C.3     1  UNL1        0.0345
     25 C           1.5342    2.6032   32.6145 C.ar    1  UNL1        0.0204
     26 C           2.5334    2.0598   33.5925 C.ar    1  UNL1        0.0396
     27 C           3.0813    0.7805   33.0329 C.ar    1  UNL1        0.1795
     28 O           2.4207    0.5331   31.7091 O.2     1  UNL1       -0.4461
     29 C           1.4645    1.6596   31.4505 C.ar    1  UNL1        0.1948
@<TRIPOS>BOND
     1    24    25    1
     2    25    26   ar
     3    26    27   ar
     4    27    28   ar
     5    28    29   ar
     6    29    20    1
     7    20    21    2
     8    20    22   am
     9    22     1    1
    10     1     2   ar
    11     2     3   ar
    12     3     4   ar
    13     4     8    1
    14     8     9   am
    15     9    10    2
    16     9    11    1
    17    11    12   ar
    18    12    13   ar
    19    13    14   ar
    20    14    15   ar
    21    15    16    1
    22    15    17   ar
    23    17    18    1
    24    18    19    2
    25     4     5   ar
    26     5     6   ar
    27     6     7    1
    28    29    25   ar
    29     6     1   ar
    30    18     8   am
    31    17    11   ar
    32    22    23    1
@<TRIPOS>MOLECULE
*****
 29 32 0 0 0
SMALL
GASTEIGER

@<TRIPOS>ATOM
      1 C           6.4790   -2.3777   31.8549 C.ar    1  UNL1        0.0785
      2 C           4.9810   -2.3240   31.9094 C.ar    1  UNL1        0.0183
      3 C           4.2982   -1.3654   32.8394 C.ar    1  UNL1        0.0168
      4 C           5.1135   -0.4607   33.7151 C.ar    1  UNL1        0.0636
      5 C           6.6115   -0.5145   33.6606 C.ar    1  UNL1        0.0462
      6 C           7.2943   -1.4730   32.7305 C.ar    1  UNL1        0.1547
      7 F           8.7924   -1.5267   32.6761 F       1  UNL1       -0.2028
      8 N           4.4307    0.4978   34.6452 N.am    1  UNL1       -0.2010
      9 C           3.4988    1.6027   34.2443 C.2     1  UNL1        0.2590
     10 O           3.0861    1.9432   32.8430 O.2     1  UNL1       -0.2691
     11 C           3.0521    2.3075   35.4908 C.ar    1  UNL1        0.0609
     12 C           2.1329    3.4723   35.7107 C.ar    1  UNL1        0.0048
     13 C           1.8696    3.9677   37.1018 C.ar    1  UNL1        0.0025
     14 C           2.5254    3.2983   38.2730 C.ar    1  UNL1        0.0298
     15 C           3.4446    2.1335   38.0532 C.ar    1  UNL1        0.1446
     16 F           4.1004    1.4642   39.2244 F       1  UNL1       -0.2040
     17 C           3.7079    1.6381   36.6621 C.ar    1  UNL1        0.0861
     18 C           4.5599    0.5197   36.1394 C.2     1  UNL1        0.2611
     19 O           5.3947   -0.4131   36.9660 O.2     1  UNL1       -0.2691
     20 C           7.1673   -4.8043   31.2322 C.2     1  UNL1        0.2840
     21 O           6.4900   -5.3140   32.4698 O.2     1  UNL1       -0.2665
     22 N           7.1618   -3.3362   30.9248 N.am    1  UNL1       -0.2761
     23 H           7.6063   -3.0017   30.1125 H       1  UNL1        0.1553
     24 C           6.3397   -5.3849   28.1294 C.3     1  UNL1        0.0345
     25 C           7.4696   -6.0297   28.8759 C.ar    1  UNL1        0.0204
     26 C           8.4176   -7.0546   28.3273 C.ar    1  UNL1        0.0396
     27 C           9.3839   -7.4212   29.4144 C.ar    1  UNL1        0.1795
     28 O           9.0331   -6.6228   30.6349 O.2     1  UNL1       -0.4461
     29 C           7.8501   -5.7629   30.3021 C.ar    1  UNL1        0.1948
@<TRIPOS>BOND
     1    24    25    1
     2    25    26   ar
     3    26    27   ar
     4    27    28   ar
     5    28    29   ar
     6    29    20    1
     7    20    21    2
     8    20    22   am
     9    22     1    1
    10     1     2   ar
    11     2     3   ar
    12     3     4   ar
    13     4     8    1
    14     8     9   am
    15     9    10    2
    16     9    11    1
    17    11    12   ar
    18    12    13   ar
    19    13    14   ar
    20    14    15   ar
    21    15    16    1
    22    15    17   ar
    23    17    18    1
    24    18    19    2
    25     4     5   ar
    26     5     6   ar
    27     6     7    1
    28    29    25   ar
    29     6     1   ar
    30    18     8   am
    31    17    11   ar
    32    22    23    1
@<TRIPOS>MOLECULE
*****
 29 32 0 0 0
SMALL
GASTEIGER

@<TRIPOS>ATOM
      1 C           5.1811   -0.9492   34.6037 C.ar    1  UNL1        0.0785
      2 C           4.2577   -1.9535   33.9804 C.ar    1  UNL1        0.0183
      3 C           4.6909   -2.7173   32.7643 C.ar    1  UNL1        0.0168
      4 C           6.0476   -2.4768   32.1715 C.ar    1  UNL1        0.0636
      5 C           6.9711   -1.4725   32.7948 C.ar    1  UNL1        0.0462
      6 C           6.5378   -0.7087   34.0109 C.ar    1  UNL1        0.1547
      7 F           7.4614    0.2957   34.6342 F       1  UNL1       -0.2028
      8 N           6.4808   -3.2406   30.9554 N.am    1  UNL1       -0.2010
      9 C           6.8168   -4.7016   30.9052 C.2     1  UNL1        0.2590
     10 O           6.7786   -5.6554   32.0623 O.2     1  UNL1       -0.2691
     11 C           7.1978   -5.0414   29.4947 C.ar    1  UNL1        0.0609
     12 C           7.6233   -6.3284   28.8523 C.ar    1  UNL1        0.0048
     13 C           7.9482   -6.3643   27.3884 C.ar    1  UNL1        0.0025
     14 C           7.8476   -5.1133   26.5669 C.ar    1  UNL1        0.0298
     15 C           7.4221   -3.8264   27.2093 C.ar    1  UNL1        0.1446
     16 F           7.3216   -2.5754   26.3877 F       1  UNL1       -0.2040
     17 C           7.0972   -3.7905   28.6732 C.ar    1  UNL1        0.0861
     18 C           6.6541   -2.6775   29.5759 C.2     1  UNL1        0.2611
     19 O           6.4246   -1.2517   29.1704 O.2     1  UNL1       -0.2691
     20 C           3.9725    1.0896   35.6679 C.2     1  UNL1        0.2840
     21 O           3.6303    1.6008   34.2998 O.2     1  UNL1       -0.2665
     22 N           4.7479   -0.1854   35.8198 N.am    1  UNL1       -0.2761
     23 H           4.9725   -0.5210   36.7177 H       1  UNL1        0.1553
     24 C           5.9442    2.3853   37.9225 C.3     1  UNL1        0.0345
     25 C           4.4457    2.4490   37.9204 C.ar    1  UNL1        0.0204
     26 C           3.5901    3.1194   38.9542 C.ar    1  UNL1        0.0396
     27 C           2.1551    2.9381   38.5568 C.ar    1  UNL1        0.1795
     28 O           2.1237    2.1557   37.2774 O.2     1  UNL1       -0.4461
     29 C           3.5393    1.8534   36.8840 C.ar    1  UNL1        0.1948
@<TRIPOS>BOND
     1    24    25    1
     2    25    26   ar
     3    26    27   ar
     4    27    28   ar
     5    28    29   ar
     6    29    20    1
     7    20    21    2
     8    20    22   am
     9    22     1    1
    10     1     2   ar
    11     2     3   ar
    12     3     4   ar
    13     4     8    1
    14     8     9   am
    15     9    10    2
    16     9    11    1
    17    11    12   ar
    18    12    13   ar
    19    13    14   ar
    20    14    15   ar
    21    15    16    1
    22    15    17   ar
    23    17    18    1
    24    18    19    2
    25     4     5   ar
    26     5     6   ar
    27     6     7    1
    28    29    25   ar
    29     6     1   ar
    30    18     8   am
    31    17    11   ar
    32    22    23    1
@<TRIPOS>MOLECULE
*****
 29 32 0 0 0
SMALL
GASTEIGER

@<TRIPOS>ATOM
      1 C          -1.8824    3.7085   21.6100 C.ar    1  UNL1        0.0785
      2 C          -1.7021    3.7782   20.1226 C.ar    1  UNL1        0.0183
      3 C          -0.5389    3.0872   19.4749 C.ar    1  UNL1        0.0168
      4 C           0.4440    2.3265   20.3146 C.ar    1  UNL1        0.0636
      5 C           0.2637    2.2569   21.8021 C.ar    1  UNL1        0.0462
      6 C          -0.8995    2.9478   22.4498 C.ar    1  UNL1        0.1547
      7 F          -1.0798    2.8781   23.9373 F       1  UNL1       -0.2028
      8 N           1.6072    1.6356   19.6669 N.am    1  UNL1       -0.2010
      9 C           2.7373    2.3039   18.9416 C.2     1  UNL1        0.2590
     10 O           2.9026    3.7806   18.7366 O.2     1  UNL1       -0.2691
     11 C           3.6731    1.2364   18.4572 C.ar    1  UNL1        0.0609
     12 C           4.9563    1.3021   17.6833 C.ar    1  UNL1        0.0048
     13 C           5.6878    0.0396   17.3354 C.ar    1  UNL1        0.0025
     14 C           5.1360   -1.2886   17.7614 C.ar    1  UNL1        0.0298
     15 C           3.8528   -1.3543   18.5353 C.ar    1  UNL1        0.1446
     16 F           3.3010   -2.6825   18.9613 F       1  UNL1       -0.2040
     17 C           3.1213   -0.0918   18.8832 C.ar    1  UNL1        0.0861
     18 C           1.8446    0.1549   19.6308 C.2     1  UNL1        0.2611
     19 O           0.9604   -0.8948   20.2361 O.2     1  UNL1       -0.2691
     20 C          -4.4086    3.7747   22.2134 C.2     1  UNL1        0.2840
     21 O          -4.6084    2.4589   21.5214 O.2     1  UNL1       -0.2665
     22 N          -3.0456    4.3994   22.2577 N.am    1  UNL1       -0.2761
     23 H          -2.9145    5.2630   22.7119 H       1  UNL1        0.1553
     24 C          -5.0349    3.8840   25.4143 C.3     1  UNL1        0.0345
     25 C          -5.8597    4.5159   24.3325 C.ar    1  UNL1        0.0204
     26 C          -7.1172    5.3090   24.5319 C.ar    1  UNL1        0.0396
     27 C          -7.6065    5.7489   23.1839 C.ar    1  UNL1        0.1795
     28 O          -6.6514    5.2276   22.1513 O.2     1  UNL1       -0.4461
     29 C          -5.5718    4.4656   22.8611 C.ar    1  UNL1        0.1948
@<TRIPOS>BOND
     1    24    25    1
     2    25    26   ar
     3    26    27   ar
     4    27    28   ar
     5    28    29   ar
     6    29    20    1
     7    20    21    2
     8    20    22   am
     9    22     1    1
    10     1     2   ar
    11     2     3   ar
    12     3     4   ar
    13     4     8    1
    14     8     9   am
    15     9    10    2
    16     9    11    1
    17    11    12   ar
    18    12    13   ar
    19    13    14   ar
    20    14    15   ar
    21    15    16    1
    22    15    17   ar
    23    17    18    1
    24    18    19    2
    25     4     5   ar
    26     5     6   ar
    27     6     7    1
    28    29    25   ar
    29     6     1   ar
    30    18     8   am
    31    17    11   ar
    32    22    23    1
@<TRIPOS>MOLECULE
*****
 29 32 0 0 0
SMALL
GASTEIGER

@<TRIPOS>ATOM
      1 C           4.9948   -1.0988   23.3286 C.ar    1  UNL1        0.0785
      2 C           6.3840   -1.5403   23.6825 C.ar    1  UNL1        0.0183
      3 C           6.6896   -2.0119   25.0733 C.ar    1  UNL1        0.0168
      4 C           5.6061   -2.0421   26.1101 C.ar    1  UNL1        0.0636
      5 C           4.2170   -1.6007   25.7562 C.ar    1  UNL1        0.0462
      6 C           3.9113   -1.1290   24.3655 C.ar    1  UNL1        0.1547
      7 F           2.5220   -0.6876   24.0116 F       1  UNL1       -0.2028
      8 N           5.9118   -2.5137   27.5008 N.am    1  UNL1       -0.2010
      9 C           5.8378   -1.6852   28.7491 C.2     1  UNL1        0.2590
     10 O           5.4452   -0.2395   28.8257 O.2     1  UNL1       -0.2691
     11 C           6.2254   -2.5561   29.9072 C.ar    1  UNL1        0.0609
     12 C           6.3334   -2.2811   31.3778 C.ar    1  UNL1        0.0048
     13 C           6.7549   -3.3729   32.3160 C.ar    1  UNL1        0.0025
     14 C           7.0684   -4.7397   31.7835 C.ar    1  UNL1        0.0298
     15 C           6.9605   -5.0147   30.3129 C.ar    1  UNL1        0.1446
     16 F           7.2740   -6.3815   29.7805 F       1  UNL1       -0.2040
     17 C           6.5390   -3.9229   29.3748 C.ar    1  UNL1        0.0861
     18 C           6.3451   -3.8967   27.8876 C.2     1  UNL1        0.2611
     19 O           6.5489   -5.0509   26.9515 O.2     1  UNL1       -0.2691
     20 C           4.2586   -1.6105   20.8902 C.2     1  UNL1        0.2840
     21 O           4.1337   -3.0655   21.2332 O.2     1  UNL1       -0.2665
     22 N           4.6891   -0.6272   21.9379 N.am    1  UNL1       -0.2761
     23 H           4.7711    0.3277   21.7128 H       1  UNL1        0.1553
     24 C           5.4684   -2.8634   18.1305 C.3     1  UNL1        0.0345
     25 C           4.5091   -1.7148   18.2309 C.ar    1  UNL1        0.0204
     26 C           3.9372   -0.9404   17.0805 C.ar    1  UNL1        0.0396
     27 C           3.0277    0.1142   17.6381 C.ar    1  UNL1        0.1795
     28 O           3.0374   -0.0085   19.1330 O.2     1  UNL1       -0.4461
     29 C           3.9529   -1.1389   19.4995 C.ar    1  UNL1        0.1948
@<TRIPOS>BOND
     1    24    25    1
     2    25    26   ar
     3    26    27   ar
     4    27    28   ar
     5    28    29   ar
     6    29    20    1
     7    20    21    2
     8    20    22   am
     9    22     1    1
    10     1     2   ar
    11     2     3   ar
    12     3     4   ar
    13     4     8    1
    14     8     9   am
    15     9    10    2
    16     9    11    1
    17    11    12   ar
    18    12    13   ar
    19    13    14   ar
    20    14    15   ar
    21    15    16    1
    22    15    17   ar
    23    17    18    1
    24    18    19    2
    25     4     5   ar
    26     5     6   ar
    27     6     7    1
    28    29    25   ar
    29     6     1   ar
    30    18     8   am
    31    17    11   ar
    32    22    23    1
@<TRIPOS>MOLECULE
*****
 29 32 0 0 0
SMALL
GASTEIGER

@<TRIPOS>ATOM
      1 C           0.0335    2.9711   27.9179 C.ar    1  UNL1        0.0785
      2 C          -0.8305    4.1896   27.7815 C.ar    1  UNL1        0.0183
      3 C          -1.7170    4.3500   26.5822 C.ar    1  UNL1        0.0168
      4 C          -1.7396    3.2918   25.5193 C.ar    1  UNL1        0.0636
      5 C          -0.8757    2.0733   25.6558 C.ar    1  UNL1        0.0462
      6 C           0.0108    1.9129   26.8551 C.ar    1  UNL1        0.1547
      7 F           0.8748    0.6942   26.9915 F       1  UNL1       -0.2028
      8 N          -2.6262    3.4522   24.3200 N.am    1  UNL1       -0.2010
      9 C          -4.1224    3.5576   24.3374 C.2     1  UNL1        0.2590
     10 O          -4.9947    3.5210   25.5571 O.2     1  UNL1       -0.2691
     11 C          -4.5931    3.7059   22.9209 C.ar    1  UNL1        0.0609
     12 C          -5.9635    3.8516   22.3287 C.ar    1  UNL1        0.0048
     13 C          -6.1286    3.9837   20.8437 C.ar    1  UNL1        0.0025
     14 C          -4.9233    3.9700   19.9509 C.ar    1  UNL1        0.0298
     15 C          -3.5529    3.8242   20.5431 C.ar    1  UNL1        0.1446
     16 F          -2.3476    3.8105   19.6503 F       1  UNL1       -0.2040
     17 C          -3.3878    3.6922   22.0281 C.ar    1  UNL1        0.0861
     18 C          -2.1722    3.5354   22.8928 C.2     1  UNL1        0.2611
     19 O          -0.7520    3.4728   22.4143 O.2     1  UNL1       -0.2691
     20 C           0.6029    1.7707   30.1506 C.2     1  UNL1        0.2840
     21 O          -0.6008    0.8911   29.9847 O.2     1  UNL1       -0.2665
     22 N           0.9200    2.8107   29.1172 N.am    1  UNL1       -0.2761
     23 H           1.7100    3.3880   29.2261 H       1  UNL1        0.1553
     24 C           2.9287   -0.4870   30.5285 C.3     1  UNL1        0.0345
     25 C           2.5586    0.5725   31.5236 C.ar    1  UNL1        0.0204
     26 C           3.1924    0.7804   32.8671 C.ar    1  UNL1        0.0396
     27 C           2.5151    1.9466   33.5238 C.ar    1  UNL1        0.1795
     28 O           1.4626    2.4595   32.5861 O.2     1  UNL1       -0.4461
     29 C           1.4895    1.6103   31.3499 C.ar    1  UNL1        0.1948
@<TRIPOS>BOND
     1    24    25    1
     2    25    26   ar
     3    26    27   ar
     4    27    28   ar
     5    28    29   ar
     6    29    20    1
     7    20    21    2
     8    20    22   am
     9    22     1    1
    10     1     2   ar
    11     2     3   ar
    12     3     4   ar
    13     4     8    1
    14     8     9   am
    15     9    10    2
    16     9    11    1
    17    11    12   ar
    18    12    13   ar
    19    13    14   ar
    20    14    15   ar
    21    15    16    1
    22    15    17   ar
    23    17    18    1
    24    18    19    2
    25     4     5   ar
    26     5     6   ar
    27     6     7    1
    28    29    25   ar
    29     6     1   ar
    30    18     8   am
    31    17    11   ar
    32    22    23    1
