@<TRIPOS>MOLECULE
*****
 36 39 0 0 0
SMALL
GASTEIGER

@<TRIPOS>ATOM
      1 C         -11.6462  -16.1126   21.4456 C.3     1  UNL1        0.0542
      2 C         -10.7061  -17.2500   21.1764 C.ar    1  UNL1        0.0861
      3 N         -10.6737  -18.0923   19.9357 N.ar    1  UNL1       -0.1724
      4 N          -9.5808  -19.1077   20.0931 N.ar    1  UNL1       -0.2385
      5 C          -8.9378  -18.8929   21.4312 C.ar    1  UNL1        0.1493
      6 C          -9.6332  -17.7448   22.1007 C.ar    1  UNL1        0.1009
      7 C          -9.1982  -20.1542   19.0888 C.3     1  UNL1        0.1116
      8 C          -8.0372  -21.0645   19.3594 C.3     1  UNL1        0.0565
      9 C          -7.6546  -22.1109   18.3551 C.3     1  UNL1        0.1442
     10 O          -8.4331  -22.2470   17.0802 O.3     1  UNL1       -0.3536
     11 C          -9.5942  -21.3367   16.8096 C.3     1  UNL1        0.1442
     12 C          -9.9767  -20.2903   17.8139 C.3     1  UNL1        0.0565
     13 C          -9.3122  -17.1890   23.4564 C.2     1  UNL1        0.2498
     14 O         -10.0791  -17.6544   24.6586 O.2     1  UNL1       -0.2700
     15 N          -8.2242  -16.1678   23.6100 N.am    1  UNL1       -0.3024
     16 H          -7.7209  -15.8624   22.8210 H       1  UNL1        0.1497
     17 C          -7.9031  -15.6120   24.9656 C.3     1  UNL1        0.0718
     18 C          -9.0022  -15.0847   25.8397 C.3     1  UNL1        0.0213
     19 C          -6.4828  -15.5836   25.4473 C.3     1  UNL1        0.0165
     20 C          -6.0006  -15.6094   24.0271 C.3     1  UNL1        0.0016
     21 C          -6.9649  -15.5578   26.8675 C.3     1  UNL1        0.0016
     22 C          -5.0625  -15.5552   25.9289 C.3     1  UNL1        0.0016
     23 N          -7.7993  -19.6868   21.9999 N.pl3   1  UNL1       -0.1990
     24 H          -7.9800  -20.4475   22.5981 H       1  UNL1        0.1753
     25 S          -6.3853  -19.3215   21.6572 S.O2    1  UNL1        0.0747
     26 O          -5.9244  -20.6721   22.1192 O.2     1  UNL1       -0.1499
     27 O          -6.8463  -17.9709   21.1952 O.2     1  UNL1       -0.1499
     28 C          -4.9715  -18.9562   21.3144 C.ar    1  UNL1        0.1252
     29 C          -4.4597  -19.1656   19.9201 C.ar    1  UNL1        0.0199
     30 C          -3.0458  -18.8003   19.5774 C.ar    1  UNL1       -0.0029
     31 C          -2.1437  -18.2255   20.6290 C.ar    1  UNL1       -0.0224
     32 C          -2.6555  -18.0160   22.0233 C.ar    1  UNL1       -0.0029
     33 C          -4.0694  -18.3814   22.3660 C.ar    1  UNL1        0.0199
     34 C          -0.7298  -17.8602   20.2862 C.3     1  UNL1        0.0224
     35 C           0.3033  -16.8188   19.9731 C.3     1  UNL1        0.0047
     36 C           0.6859  -18.2688   20.0058 C.3     1  UNL1        0.0047
@<TRIPOS>BOND
     1     1     2    1
     2     2     3   ar
     3     3     4   ar
     4     4     7    1
     5     7     8    1
     6     8     9    1
     7     9    10    1
     8    10    11    1
     9    11    12    1
    10     4     5   ar
    11     5    23    1
    12    23    25    1
    13    25    26    2
    14    25    27    2
    15    25    28    1
    16    28    29   ar
    17    29    30   ar
    18    30    31   ar
    19    31    34    1
    20    34    35    1
    21    35    36    1
    22    31    32   ar
    23    32    33   ar
    24     5     6   ar
    25     6    13    1
    26    13    14    2
    27    13    15   am
    28    15    17    1
    29    17    18    1
    30    17    19    1
    31    19    20    1
    32    19    21    1
    33    19    22    1
    34     6     2   ar
    35    12     7    1
    36    33    28   ar
    37    36    34    1
    38    23    24    1
    39    15    16    1
@<TRIPOS>MOLECULE
*****
 36 39 0 0 0
SMALL
GASTEIGER

@<TRIPOS>ATOM
      1 C          -3.9885    3.7066   23.0780 C.3     1  UNL1        0.0542
      2 C          -2.7116    3.4074   23.8059 C.ar    1  UNL1        0.0861
      3 N          -2.5654    3.2111   25.2858 N.ar    1  UNL1       -0.1724
      4 N          -1.1201    2.9343   25.5762 N.ar    1  UNL1       -0.2385
      5 C          -0.3729    2.9595   24.2758 C.ar    1  UNL1        0.1493
      6 C          -1.3565    3.2519   23.1817 C.ar    1  UNL1        0.1009
      7 C          -0.5262    2.6773   26.9295 C.3     1  UNL1        0.1116
      8 C           0.1302    3.7947   27.6849 C.3     1  UNL1        0.0565
      9 C           0.7240    3.5377   29.0382 C.3     1  UNL1        0.1442
     10 O           0.6615    2.1634   29.6360 O.3     1  UNL1       -0.3536
     11 C           0.0052    1.0461   28.8806 C.3     1  UNL1        0.1442
     12 C          -0.5887    1.3030   27.5274 C.3     1  UNL1        0.0565
     13 C          -1.0405    3.3683   21.7200 C.2     1  UNL1        0.2498
     14 O          -1.7128    2.4610   20.7327 O.2     1  UNL1       -0.2700
     15 N          -0.0522    4.3921   21.2455 N.am    1  UNL1       -0.3024
     16 H           0.3891    4.9876   21.8935 H       1  UNL1        0.1497
     17 C           0.2639    4.5086   19.7839 C.3     1  UNL1        0.0718
     18 C          -0.6815    5.2266   18.8670 C.3     1  UNL1        0.0213
     19 C           1.5255    3.9071   19.2392 C.3     1  UNL1        0.0165
     20 C           2.3355    4.9016   20.0171 C.3     1  UNL1        0.0016
     21 C           0.7156    2.9127   18.4613 C.3     1  UNL1        0.0016
     22 C           2.7871    3.3057   18.6945 C.3     1  UNL1        0.0016
     23 N           1.0993    2.7322   24.1003 N.pl3   1  UNL1       -0.1990
     24 H           1.7457    3.3166   24.5584 H       1  UNL1        0.1753
     25 S           1.5867    1.6144   23.2267 S.O2    1  UNL1        0.0747
     26 O           0.8644    0.6239   24.0911 O.2     1  UNL1       -0.1499
     27 O           2.3090    2.6049   22.3624 O.2     1  UNL1       -0.1499
     28 C           2.0741    0.4967   22.3532 C.ar    1  UNL1        0.1252
     29 C           3.1233   -0.4481   22.8596 C.ar    1  UNL1        0.0199
     30 C           3.6107   -1.5658   21.9860 C.ar    1  UNL1       -0.0029
     31 C           3.0489   -1.7388   20.6060 C.ar    1  UNL1       -0.0224
     32 C           1.9996   -0.7941   20.0996 C.ar    1  UNL1       -0.0029
     33 C           1.5122    0.3237   20.9732 C.ar    1  UNL1        0.0199
     34 C           3.5362   -2.8565   19.7325 C.3     1  UNL1        0.0224
     35 C           4.4003   -3.3436   18.6072 C.3     1  UNL1        0.0047
     36 C           3.5164   -4.3054   19.3446 C.3     1  UNL1        0.0047
@<TRIPOS>BOND
     1     1     2    1
     2     2     3   ar
     3     3     4   ar
     4     4     7    1
     5     7     8    1
     6     8     9    1
     7     9    10    1
     8    10    11    1
     9    11    12    1
    10     4     5   ar
    11     5    23    1
    12    23    25    1
    13    25    26    2
    14    25    27    2
    15    25    28    1
    16    28    29   ar
    17    29    30   ar
    18    30    31   ar
    19    31    34    1
    20    34    35    1
    21    35    36    1
    22    31    32   ar
    23    32    33   ar
    24     5     6   ar
    25     6    13    1
    26    13    14    2
    27    13    15   am
    28    15    17    1
    29    17    18    1
    30    17    19    1
    31    19    20    1
    32    19    21    1
    33    19    22    1
    34     6     2   ar
    35    12     7    1
    36    33    28   ar
    37    36    34    1
    38    23    24    1
    39    15    16    1
@<TRIPOS>MOLECULE
*****
 36 39 0 0 0
SMALL
GASTEIGER

@<TRIPOS>ATOM
      1 C           4.5120   -5.3710   18.9826 C.3     1  UNL1        0.0542
      2 C           4.2500   -3.9800   19.4790 C.ar    1  UNL1        0.0861
      3 N           3.1690   -3.0598   18.9945 N.ar    1  UNL1       -0.1724
      4 N           3.2740   -1.7760   19.7632 N.ar    1  UNL1       -0.2385
      5 C           4.4198   -1.9027   20.7229 C.ar    1  UNL1        0.1493
      6 C           5.0231   -3.2648   20.5473 C.ar    1  UNL1        0.1009
      7 C           2.3885   -0.5762   19.6008 C.3     1  UNL1        0.1116
      8 C           2.8449    0.5858   18.7693 C.3     1  UNL1        0.0565
      9 C           1.9594    1.7855   18.6069 C.3     1  UNL1        0.1442
     10 O           0.6175    1.8233   19.2760 O.3     1  UNL1       -0.3536
     11 C           0.1610    0.6614   20.1075 C.3     1  UNL1        0.1442
     12 C           1.0465   -0.5384   20.2699 C.3     1  UNL1        0.0565
     13 C           6.1938   -3.8152   21.3065 C.2     1  UNL1        0.2498
     14 O           7.2117   -4.6636   20.6037 O.2     1  UNL1       -0.2700
     15 N           6.3467   -3.5171   22.7686 N.am    1  UNL1       -0.3024
     16 H           5.6786   -2.9602   23.2299 H       1  UNL1        0.1497
     17 C           7.5173   -4.0674   23.5279 C.3     1  UNL1        0.0718
     18 C           8.9119   -3.6604   23.1545 C.3     1  UNL1        0.0213
     19 C           7.2933   -5.0247   24.6608 C.3     1  UNL1        0.0165
     20 C           6.5363   -3.9657   25.4061 C.3     1  UNL1        0.0016
     21 C           8.0503   -6.0838   23.9156 C.3     1  UNL1        0.0016
     22 C           7.0693   -5.9820   25.7937 C.3     1  UNL1        0.0016
     23 N           4.8814   -0.8519   21.6886 N.pl3   1  UNL1       -0.1990
     24 H           5.7798   -0.4596   21.5970 H       1  UNL1        0.1753
     25 S           3.9743   -0.3987   22.7939 S.O2    1  UNL1        0.0747
     26 O           3.9652   -1.7891   23.3566 O.2     1  UNL1       -0.1499
     27 O           3.9834    0.9917   22.2313 O.2     1  UNL1       -0.1499
     28 C           3.0671    0.0545   23.8992 C.ar    1  UNL1        0.1252
     29 C           1.7279    0.6471   23.5749 C.ar    1  UNL1        0.0199
     30 C           0.8207    1.1003   24.6802 C.ar    1  UNL1       -0.0029
     31 C           1.2529    0.9610   26.1098 C.ar    1  UNL1       -0.0224
     32 C           2.5921    0.3684   26.4342 C.ar    1  UNL1       -0.0029
     33 C           3.4992   -0.0849   25.3289 C.ar    1  UNL1        0.0199
     34 C           0.3457    1.4142   27.2151 C.3     1  UNL1        0.0224
     35 C           0.0665    2.3206   28.3772 C.3     1  UNL1        0.0047
     36 C          -0.9463    1.2928   27.9674 C.3     1  UNL1        0.0047
@<TRIPOS>BOND
     1     1     2    1
     2     2     3   ar
     3     3     4   ar
     4     4     7    1
     5     7     8    1
     6     8     9    1
     7     9    10    1
     8    10    11    1
     9    11    12    1
    10     4     5   ar
    11     5    23    1
    12    23    25    1
    13    25    26    2
    14    25    27    2
    15    25    28    1
    16    28    29   ar
    17    29    30   ar
    18    30    31   ar
    19    31    34    1
    20    34    35    1
    21    35    36    1
    22    31    32   ar
    23    32    33   ar
    24     5     6   ar
    25     6    13    1
    26    13    14    2
    27    13    15   am
    28    15    17    1
    29    17    18    1
    30    17    19    1
    31    19    20    1
    32    19    21    1
    33    19    22    1
    34     6     2   ar
    35    12     7    1
    36    33    28   ar
    37    36    34    1
    38    23    24    1
    39    15    16    1
@<TRIPOS>MOLECULE
*****
 36 39 0 0 0
SMALL
GASTEIGER

@<TRIPOS>ATOM
      1 C          -4.4274    3.8510   23.9988 C.3     1  UNL1        0.0542
      2 C          -3.0910    3.5103   24.5887 C.ar    1  UNL1        0.0861
      3 N          -2.8354    3.0787   26.0023 N.ar    1  UNL1       -0.1724
      4 N          -1.3620    2.8430   26.1558 N.ar    1  UNL1       -0.2385
      5 C          -0.7070    3.1289   24.8371 C.ar    1  UNL1        0.1493
      6 C          -1.7755    3.5414   23.8685 C.ar    1  UNL1        0.1009
      7 C          -0.6659    2.3992   27.4083 C.3     1  UNL1        0.1116
      8 C           0.1813    3.3679   28.1789 C.3     1  UNL1        0.0565
      9 C           0.8773    2.9241   29.4313 C.3     1  UNL1        0.1442
     10 O           0.7263    1.5117   29.9130 O.3     1  UNL1       -0.3536
     11 C          -0.1208    0.5430   29.1424 C.3     1  UNL1        0.1442
     12 C          -0.8169    0.9867   27.8900 C.3     1  UNL1        0.0565
     13 C          -1.5655    3.9186   22.4320 C.2     1  UNL1        0.2498
     14 O          -0.8404    5.1857   22.0876 O.2     1  UNL1       -0.2700
     15 N          -2.0807    3.0288   21.3398 N.am    1  UNL1       -0.3024
     16 H          -2.5567    2.1972   21.5659 H       1  UNL1        0.1497
     17 C          -1.8708    3.4060   19.9034 C.3     1  UNL1        0.0718
     18 C          -0.5141    3.2607   19.2803 C.3     1  UNL1        0.0213
     19 C          -3.0177    3.9286   19.0899 C.3     1  UNL1        0.0165
     20 C          -2.0531    4.4609   18.0719 C.3     1  UNL1        0.0016
     21 C          -3.9823    3.3963   20.1079 C.3     1  UNL1        0.0016
     22 C          -4.1645    4.4512   18.2765 C.3     1  UNL1        0.0016
     23 N           0.7592    3.0214   24.5391 N.pl3   1  UNL1       -0.1990
     24 H           1.3949    3.6403   24.9657 H       1  UNL1        0.1753
     25 S           1.2567    1.9707   23.5911 S.O2    1  UNL1        0.0747
     26 O           0.6568    0.9040   24.4584 O.2     1  UNL1       -0.1499
     27 O           1.8566    3.0374   22.7238 O.2     1  UNL1       -0.1499
     28 C           1.7542    0.9201   22.6431 C.ar    1  UNL1        0.1252
     29 C           0.9707    0.5944   21.4062 C.ar    1  UNL1        0.0199
     30 C           1.4682   -0.4562   20.4582 C.ar    1  UNL1       -0.0029
     31 C           2.7493   -1.1811   20.7472 C.ar    1  UNL1       -0.0224
     32 C           3.5328   -0.8554   21.9841 C.ar    1  UNL1       -0.0029
     33 C           3.0353    0.1952   22.9321 C.ar    1  UNL1        0.0199
     34 C           3.2468   -2.2317   19.7992 C.3     1  UNL1        0.0224
     35 C           3.2974   -3.6645   19.3582 C.3     1  UNL1        0.0047
     36 C           4.0580   -2.6186   18.5982 C.3     1  UNL1        0.0047
@<TRIPOS>BOND
     1     1     2    1
     2     2     3   ar
     3     3     4   ar
     4     4     7    1
     5     7     8    1
     6     8     9    1
     7     9    10    1
     8    10    11    1
     9    11    12    1
    10     4     5   ar
    11     5    23    1
    12    23    25    1
    13    25    26    2
    14    25    27    2
    15    25    28    1
    16    28    29   ar
    17    29    30   ar
    18    30    31   ar
    19    31    34    1
    20    34    35    1
    21    35    36    1
    22    31    32   ar
    23    32    33   ar
    24     5     6   ar
    25     6    13    1
    26    13    14    2
    27    13    15   am
    28    15    17    1
    29    17    18    1
    30    17    19    1
    31    19    20    1
    32    19    21    1
    33    19    22    1
    34     6     2   ar
    35    12     7    1
    36    33    28   ar
    37    36    34    1
    38    23    24    1
    39    15    16    1
@<TRIPOS>MOLECULE
*****
 36 39 0 0 0
SMALL
GASTEIGER

@<TRIPOS>ATOM
      1 C          -5.2722    3.6539   24.6147 C.3     1  UNL1        0.0542
      2 C          -3.8123    3.5680   24.2811 C.ar    1  UNL1        0.0861
      3 N          -2.7125    3.1875   25.2275 N.ar    1  UNL1       -0.1724
      4 N          -1.4164    3.2318   24.4737 N.ar    1  UNL1       -0.2385
      5 C          -1.7151    3.6396   23.0615 C.ar    1  UNL1        0.1493
      6 C          -3.1959    3.8474   22.9424 C.ar    1  UNL1        0.1009
      7 C          -0.0597    2.9225   25.0339 C.3     1  UNL1        0.1116
      8 C           0.8711    4.0389   25.4043 C.3     1  UNL1        0.0565
      9 C           2.2277    3.7297   25.9645 C.3     1  UNL1        0.1442
     10 O           2.6536    2.3039   26.1543 O.3     1  UNL1       -0.3536
     11 C           1.7228    1.1875   25.7839 C.3     1  UNL1        0.1442
     12 C           0.3662    1.4968   25.2237 C.3     1  UNL1        0.0565
     13 C          -3.9312    4.2618   21.7024 C.2     1  UNL1        0.2498
     14 O          -4.7174    5.5391   21.6882 O.2     1  UNL1       -0.2700
     15 N          -3.8802    3.3989   20.4765 N.am    1  UNL1       -0.3024
     16 H          -3.3642    2.5605   20.4858 H       1  UNL1        0.1497
     17 C          -4.6154    3.8132   19.2365 C.3     1  UNL1        0.0718
     18 C          -5.9728    3.2456   18.9443 C.3     1  UNL1        0.0213
     19 C          -3.9931    4.7952   18.2886 C.3     1  UNL1        0.0165
     20 C          -2.6930    4.0516   18.3716 C.3     1  UNL1        0.0016
     21 C          -5.2932    5.5388   18.2055 C.3     1  UNL1        0.0016
     22 C          -3.3709    5.7771   17.3407 C.3     1  UNL1        0.0016
     23 N          -0.7097    3.8098   21.9614 N.pl3   1  UNL1       -0.1990
     24 H          -0.5651    4.6968   21.5595 H       1  UNL1        0.1753
     25 S           0.0755    2.6283   21.4737 S.O2    1  UNL1        0.0747
     26 O          -1.1707    2.0475   20.8742 O.2     1  UNL1       -0.1499
     27 O           1.3217    3.2092   22.0733 O.2     1  UNL1       -0.1499
     28 C           0.8607    1.4470   20.9861 C.ar    1  UNL1        0.1252
     29 C           0.8486    1.0878   19.5298 C.ar    1  UNL1        0.0199
     30 C           1.6338   -0.0935   19.0421 C.ar    1  UNL1       -0.0029
     31 C           2.4311   -0.9157   20.0108 C.ar    1  UNL1       -0.0224
     32 C           2.4433   -0.5566   21.4671 C.ar    1  UNL1       -0.0029
     33 C           1.6580    0.6248   21.9547 C.ar    1  UNL1        0.0199
     34 C           3.2164   -2.0971   19.5231 C.3     1  UNL1        0.0224
     35 C           3.5381   -3.5606   19.5908 C.3     1  UNL1        0.0047
     36 C           4.2547   -2.6797   18.6107 C.3     1  UNL1        0.0047
@<TRIPOS>BOND
     1     1     2    1
     2     2     3   ar
     3     3     4   ar
     4     4     7    1
     5     7     8    1
     6     8     9    1
     7     9    10    1
     8    10    11    1
     9    11    12    1
    10     4     5   ar
    11     5    23    1
    12    23    25    1
    13    25    26    2
    14    25    27    2
    15    25    28    1
    16    28    29   ar
    17    29    30   ar
    18    30    31   ar
    19    31    34    1
    20    34    35    1
    21    35    36    1
    22    31    32   ar
    23    32    33   ar
    24     5     6   ar
    25     6    13    1
    26    13    14    2
    27    13    15   am
    28    15    17    1
    29    17    18    1
    30    17    19    1
    31    19    20    1
    32    19    21    1
    33    19    22    1
    34     6     2   ar
    35    12     7    1
    36    33    28   ar
    37    36    34    1
    38    23    24    1
    39    15    16    1
@<TRIPOS>MOLECULE
*****
 36 39 0 0 0
SMALL
GASTEIGER

@<TRIPOS>ATOM
      1 C          -5.0662    3.6829   18.5163 C.3     1  UNL1        0.0542
      2 C          -3.6678    3.9223   19.0033 C.ar    1  UNL1        0.0861
      3 N          -2.4086    3.6648   18.2300 N.ar    1  UNL1       -0.1724
      4 N          -1.2457    4.0446   19.0979 N.ar    1  UNL1       -0.2385
      5 C          -1.7861    4.5368   20.4077 C.ar    1  UNL1        0.1493
      6 C          -3.2831    4.4612   20.3493 C.ar    1  UNL1        0.1009
      7 C           0.2034    3.9489   18.7220 C.3     1  UNL1        0.1116
      8 C           0.9291    2.6434   18.8592 C.3     1  UNL1        0.0565
      9 C           2.3781    2.5478   18.4833 C.3     1  UNL1        0.1442
     10 O           3.1013    3.7576   17.9703 O.3     1  UNL1       -0.3536
     11 C           2.3755    5.0631   17.8331 C.3     1  UNL1        0.1442
     12 C           0.9265    5.1588   18.2090 C.3     1  UNL1        0.0565
     13 C          -4.2292    4.8554   21.4445 C.2     1  UNL1        0.2498
     14 O          -4.3827    6.2997   21.8193 O.2     1  UNL1       -0.2700
     15 N          -5.0219    3.8053   22.1649 N.am    1  UNL1       -0.3024
     16 H          -4.9212    2.8574   21.9189 H       1  UNL1        0.1497
     17 C          -5.9680    4.1994   23.2600 C.3     1  UNL1        0.0718
     18 C          -7.3985    4.5153   22.9379 C.3     1  UNL1        0.0213
     19 C          -5.4835    4.2776   24.6776 C.3     1  UNL1        0.0165
     20 C          -6.2764    5.5349   24.8792 C.3     1  UNL1        0.0016
     21 C          -4.6906    3.0203   24.4760 C.3     1  UNL1        0.0016
     22 C          -4.9990    4.3558   26.0950 C.3     1  UNL1        0.0016
     23 N          -0.9725    5.0198   21.5717 N.pl3   1  UNL1       -0.1990
     24 H          -0.4809    5.8705   21.5094 H       1  UNL1        0.1753
     25 S          -0.9080    4.2066   22.8305 S.O2    1  UNL1        0.0747
     26 O          -1.4536    5.3673   23.6084 O.2     1  UNL1       -0.1499
     27 O          -0.3625    3.0458   22.0527 O.2     1  UNL1       -0.1499
     28 C          -0.8435    3.3934   24.0893 C.ar    1  UNL1        0.1252
     29 C          -1.4854    3.9034   25.3454 C.ar    1  UNL1        0.0199
     30 C          -1.4209    3.0902   26.6041 C.ar    1  UNL1       -0.0029
     31 C          -0.7145    1.7669   26.6068 C.ar    1  UNL1       -0.0224
     32 C          -0.0726    1.2569   25.3507 C.ar    1  UNL1       -0.0029
     33 C          -0.1371    2.0701   24.0920 C.ar    1  UNL1        0.0199
     34 C          -0.6500    0.9537   27.8656 C.3     1  UNL1        0.0224
     35 C          -0.0405    0.6869   29.2099 C.3     1  UNL1        0.0047
     36 C          -1.1478   -0.1880   28.7015 C.3     1  UNL1        0.0047
@<TRIPOS>BOND
     1     1     2    1
     2     2     3   ar
     3     3     4   ar
     4     4     7    1
     5     7     8    1
     6     8     9    1
     7     9    10    1
     8    10    11    1
     9    11    12    1
    10     4     5   ar
    11     5    23    1
    12    23    25    1
    13    25    26    2
    14    25    27    2
    15    25    28    1
    16    28    29   ar
    17    29    30   ar
    18    30    31   ar
    19    31    34    1
    20    34    35    1
    21    35    36    1
    22    31    32   ar
    23    32    33   ar
    24     5     6   ar
    25     6    13    1
    26    13    14    2
    27    13    15   am
    28    15    17    1
    29    17    18    1
    30    17    19    1
    31    19    20    1
    32    19    21    1
    33    19    22    1
    34     6     2   ar
    35    12     7    1
    36    33    28   ar
    37    36    34    1
    38    23    24    1
    39    15    16    1
@<TRIPOS>MOLECULE
*****
 36 39 0 0 0
SMALL
GASTEIGER

@<TRIPOS>ATOM
      1 C           0.3254    0.2918   20.4429 C.3     1  UNL1        0.0542
      2 C           1.2227    0.5237   21.6223 C.ar    1  UNL1        0.0861
      3 N           0.8036    1.0684   22.9555 N.ar    1  UNL1       -0.1724
      4 N           2.0186    1.1329   23.8327 N.ar    1  UNL1       -0.2385
      5 C           3.1888    0.6280   23.0416 C.ar    1  UNL1        0.1493
      6 C           2.6969    0.2515   21.6755 C.ar    1  UNL1        0.1009
      7 C           2.0568    1.6172   25.2519 C.3     1  UNL1        0.1116
      8 C           2.3842    0.6627   26.3616 C.3     1  UNL1        0.0565
      9 C           2.4223    1.1470   27.7807 C.3     1  UNL1        0.1442
     10 O           2.1331    2.5860   28.0901 O.3     1  UNL1       -0.3536
     11 C           1.8057    3.5406   26.9804 C.3     1  UNL1        0.1442
     12 C           1.7676    3.0562   25.5613 C.3     1  UNL1        0.0565
     13 C           3.5325   -0.3003   20.5587 C.2     1  UNL1        0.2498
     14 O           4.8493    0.3347   20.2228 O.2     1  UNL1       -0.2700
     15 N           3.0514   -1.4871   19.7777 N.am    1  UNL1       -0.3024
     16 H           2.1871   -1.9039   19.9982 H       1  UNL1        0.1497
     17 C           3.8868   -2.0390   18.6609 C.3     1  UNL1        0.0718
     18 C           4.0981   -1.2333   17.4135 C.3     1  UNL1        0.0213
     19 C           4.5111   -3.3967   18.7917 C.3     1  UNL1        0.0165
     20 C           3.1878   -3.9647   19.2117 C.3     1  UNL1        0.0016
     21 C           5.8344   -2.8287   18.3717 C.3     1  UNL1        0.0016
     22 C           5.1354   -4.7543   18.9224 C.3     1  UNL1        0.0016
     23 N           4.6026    0.5188   23.5307 N.pl3   1  UNL1       -0.1990
     24 H           5.0896    1.3265   23.8130 H       1  UNL1        0.1753
     25 S           5.2743   -0.8211   23.5899 S.O2    1  UNL1        0.0747
     26 O           6.4945   -0.2381   22.9408 O.2     1  UNL1       -0.1499
     27 O           4.0541   -1.4041   24.2389 O.2     1  UNL1       -0.1499
     28 C           5.9460   -2.1610   23.6490 C.ar    1  UNL1        0.1252
     29 C           6.1387   -2.8457   24.9696 C.ar    1  UNL1        0.0199
     30 C           6.8104   -4.1856   25.0288 C.ar    1  UNL1       -0.0029
     31 C           7.2893   -4.8408   23.7673 C.ar    1  UNL1       -0.0224
     32 C           7.0965   -4.1562   22.4467 C.ar    1  UNL1       -0.0029
     33 C           6.4249   -2.8163   22.3875 C.ar    1  UNL1        0.0199
     34 C           7.9609   -6.1808   23.8264 C.3     1  UNL1        0.0224
     35 C           8.1530   -7.5091   24.4961 C.3     1  UNL1        0.0047
     36 C           8.9321   -7.1732   23.2591 C.3     1  UNL1        0.0047
@<TRIPOS>BOND
     1     1     2    1
     2     2     3   ar
     3     3     4   ar
     4     4     7    1
     5     7     8    1
     6     8     9    1
     7     9    10    1
     8    10    11    1
     9    11    12    1
    10     4     5   ar
    11     5    23    1
    12    23    25    1
    13    25    26    2
    14    25    27    2
    15    25    28    1
    16    28    29   ar
    17    29    30   ar
    18    30    31   ar
    19    31    34    1
    20    34    35    1
    21    35    36    1
    22    31    32   ar
    23    32    33   ar
    24     5     6   ar
    25     6    13    1
    26    13    14    2
    27    13    15   am
    28    15    17    1
    29    17    18    1
    30    17    19    1
    31    19    20    1
    32    19    21    1
    33    19    22    1
    34     6     2   ar
    35    12     7    1
    36    33    28   ar
    37    36    34    1
    38    23    24    1
    39    15    16    1
@<TRIPOS>MOLECULE
*****
 36 39 0 0 0
SMALL
GASTEIGER

@<TRIPOS>ATOM
      1 C          -1.6401    0.3294   29.0235 C.3     1  UNL1        0.0542
      2 C          -0.1636    0.3904   28.7666 C.ar    1  UNL1        0.0861
      3 N           0.9133   -0.0905   29.6934 N.ar    1  UNL1       -0.1724
      4 N           2.2378    0.1650   29.0374 N.ar    1  UNL1       -0.2385
      5 C           1.9796    0.8038   27.7050 C.ar    1  UNL1        0.1493
      6 C           0.4955    0.9431   27.5376 C.ar    1  UNL1        0.1009
      7 C           3.5842   -0.1611   29.6127 C.3     1  UNL1        0.1116
      8 C           4.0770    0.5674   30.8278 C.3     1  UNL1        0.0565
      9 C           5.4233    0.2413   31.4031 C.3     1  UNL1        0.1442
     10 O           6.2768   -0.8133   30.7633 O.3     1  UNL1       -0.3536
     11 C           5.7840   -1.5418   29.5482 C.3     1  UNL1        0.1442
     12 C           4.4377   -1.2157   28.9729 C.3     1  UNL1        0.0565
     13 C          -0.2064    1.5318   26.3498 C.2     1  UNL1        0.2498
     14 O          -0.2393    0.7826   25.0507 O.2     1  UNL1       -0.2700
     15 N          -0.8755    2.8697   26.4610 N.am    1  UNL1       -0.3024
     16 H          -0.8539    3.3615   27.3137 H       1  UNL1        0.1497
     17 C          -1.5773    3.4584   25.2734 C.3     1  UNL1        0.0718
     18 C          -0.7871    3.8952   24.0756 C.3     1  UNL1        0.0213
     19 C          -3.0697    3.6104   25.2835 C.3     1  UNL1        0.0165
     20 C          -3.0888    3.5224   23.7862 C.3     1  UNL1        0.0016
     21 C          -3.0506    3.6984   26.7808 C.3     1  UNL1        0.0016
     22 C          -4.5619    3.7624   25.2936 C.3     1  UNL1        0.0016
     23 N           3.0223    1.2287   26.7140 N.pl3   1  UNL1       -0.1990
     24 H           3.6307    1.9725   26.9280 H       1  UNL1        0.1753
     25 S           3.1381    0.5202   25.3969 S.O2    1  UNL1        0.0747
     26 O           2.9107    1.8174   24.6790 O.2     1  UNL1       -0.1499
     27 O           3.3654   -0.7771   26.1148 O.2     1  UNL1       -0.1499
     28 C           3.2538   -0.1884   24.0799 C.ar    1  UNL1        0.1252
     29 C           4.0553   -1.4520   23.9760 C.ar    1  UNL1        0.0199
     30 C           4.1711   -2.1606   22.6590 C.ar    1  UNL1       -0.0029
     31 C           3.4853   -1.6055   21.4459 C.ar    1  UNL1       -0.0224
     32 C           2.6838   -0.3419   21.5497 C.ar    1  UNL1       -0.0029
     33 C           2.5681    0.3667   22.8668 C.ar    1  UNL1        0.0199
     34 C           3.6011   -2.3141   20.1288 C.3     1  UNL1        0.0224
     35 C           3.4249   -3.5515   19.2996 C.3     1  UNL1        0.0047
     36 C           3.9777   -2.3039   18.6769 C.3     1  UNL1        0.0047
@<TRIPOS>BOND
     1     1     2    1
     2     2     3   ar
     3     3     4   ar
     4     4     7    1
     5     7     8    1
     6     8     9    1
     7     9    10    1
     8    10    11    1
     9    11    12    1
    10     4     5   ar
    11     5    23    1
    12    23    25    1
    13    25    26    2
    14    25    27    2
    15    25    28    1
    16    28    29   ar
    17    29    30   ar
    18    30    31   ar
    19    31    34    1
    20    34    35    1
    21    35    36    1
    22    31    32   ar
    23    32    33   ar
    24     5     6   ar
    25     6    13    1
    26    13    14    2
    27    13    15   am
    28    15    17    1
    29    17    18    1
    30    17    19    1
    31    19    20    1
    32    19    21    1
    33    19    22    1
    34     6     2   ar
    35    12     7    1
    36    33    28   ar
    37    36    34    1
    38    23    24    1
    39    15    16    1
@<TRIPOS>MOLECULE
*****
 36 39 0 0 0
SMALL
GASTEIGER

@<TRIPOS>ATOM
      1 C           4.7588    1.4140   26.2038 C.3     1  UNL1        0.0542
      2 C           4.7421    0.6018   27.4647 C.ar    1  UNL1        0.0861
      3 N           5.8874   -0.1952   28.0153 N.ar    1  UNL1       -0.1724
      4 N           5.4303   -0.8456   29.2874 N.ar    1  UNL1       -0.2385
      5 C           4.0026   -0.4505   29.5230 C.ar    1  UNL1        0.1493
      6 C           3.5772    0.4440   28.3966 C.ar    1  UNL1        0.1009
      7 C           6.2561   -1.7349   30.1691 C.3     1  UNL1        0.1116
      8 C           6.9909   -1.1555   31.3414 C.3     1  UNL1        0.0565
      9 C           7.8166   -2.0448   32.2230 C.3     1  UNL1        0.1442
     10 O           7.9075   -3.5135   31.9323 O.3     1  UNL1       -0.3536
     11 C           7.1727   -4.0930   30.7600 C.3     1  UNL1        0.1442
     12 C           6.3470   -3.2037   29.8784 C.3     1  UNL1        0.0565
     13 C           2.2245    1.0707   28.2309 C.2     1  UNL1        0.2498
     14 O           1.9293    2.3967   28.8670 O.2     1  UNL1       -0.2700
     15 N           1.1670    0.3714   27.4293 N.am    1  UNL1       -0.3024
     16 H           1.3608   -0.4989   27.0118 H       1  UNL1        0.1497
     17 C          -0.1856    0.9980   27.2637 C.3     1  UNL1        0.0718
     18 C          -1.2468    0.7768   28.3004 C.3     1  UNL1        0.0213
     19 C          -0.4771    1.8460   26.0611 C.3     1  UNL1        0.0165
     20 C          -1.3234    2.7524   26.9053 C.3     1  UNL1        0.0016
     21 C           0.3690    0.9397   25.2169 C.3     1  UNL1        0.0016
     22 C          -0.7687    2.6939   24.8586 C.3     1  UNL1        0.0016
     23 N           3.1499   -0.8754   30.6816 N.pl3   1  UNL1       -0.1990
     24 H           2.3862   -1.4793   30.5354 H       1  UNL1        0.1753
     25 S           3.4607   -0.3800   32.0630 S.O2    1  UNL1        0.0747
     26 O           3.2455    1.0321   31.6051 O.2     1  UNL1       -0.1499
     27 O           3.6760   -1.7921   32.5208 O.2     1  UNL1       -0.1499
     28 C           3.7716    0.1152   33.4443 C.ar    1  UNL1        0.1252
     29 C           4.5472   -0.7488   34.3939 C.ar    1  UNL1        0.0199
     30 C           4.8580   -0.2536   35.7753 C.ar    1  UNL1       -0.0029
     31 C           4.3933    1.1057   36.2069 C.ar    1  UNL1       -0.0224
     32 C           3.6178    1.9698   35.2573 C.ar    1  UNL1       -0.0029
     33 C           3.3069    1.4745   33.8760 C.ar    1  UNL1        0.0199
     34 C           4.7042    1.6010   37.5883 C.3     1  UNL1        0.0224
     35 C           5.6728    2.1932   38.5686 C.3     1  UNL1        0.0047
     36 C           4.2740    1.8666   39.0005 C.3     1  UNL1        0.0047
@<TRIPOS>BOND
     1     1     2    1
     2     2     3   ar
     3     3     4   ar
     4     4     7    1
     5     7     8    1
     6     8     9    1
     7     9    10    1
     8    10    11    1
     9    11    12    1
    10     4     5   ar
    11     5    23    1
    12    23    25    1
    13    25    26    2
    14    25    27    2
    15    25    28    1
    16    28    29   ar
    17    29    30   ar
    18    30    31   ar
    19    31    34    1
    20    34    35    1
    21    35    36    1
    22    31    32   ar
    23    32    33   ar
    24     5     6   ar
    25     6    13    1
    26    13    14    2
    27    13    15   am
    28    15    17    1
    29    17    18    1
    30    17    19    1
    31    19    20    1
    32    19    21    1
    33    19    22    1
    34     6     2   ar
    35    12     7    1
    36    33    28   ar
    37    36    34    1
    38    23    24    1
    39    15    16    1
