@<TRIPOS>MOLECULE
*****
 35 37 0 0 0
SMALL
GASTEIGER

@<TRIPOS>ATOM
      1 C          -5.9050  -19.0624   22.0255 C.ar    1  UNL1        0.0830
      2 C          -6.1022  -20.5060   22.3819 C.ar    1  UNL1        0.0192
      3 C          -7.4730  -21.0157   22.7153 C.ar    1  UNL1        0.0015
      4 C          -8.6465  -20.0818   22.6924 C.ar    1  UNL1        0.0001
      5 C          -8.4494  -18.6382   22.3360 C.ar    1  UNL1        0.0014
      6 C          -7.0786  -18.1285   22.0025 C.ar    1  UNL1        0.0191
      7 C          -9.6229  -17.7042   22.3131 C.ar    1  UNL1        0.0039
      8 C         -10.1518  -17.1964   21.0045 C.ar    1  UNL1        0.0038
      9 C         -11.3254  -16.2625   20.9816 C.ar    1  UNL1        0.0714
     10 C         -11.9701  -15.8364   22.2672 C.ar    1  UNL1        0.0038
     11 C         -11.4412  -16.3443   23.5757 C.ar    1  UNL1        0.0038
     12 C         -10.2676  -17.2782   23.5987 C.ar    1  UNL1        0.0714
     13 C         -11.8543  -15.7546   19.6730 C.3     1  UNL1        0.4186
     14 F         -12.3832  -15.2468   18.3644 F       1  UNL1       -0.1659
     15 F         -10.4507  -15.5479   19.1859 F       1  UNL1       -0.1659
     16 F         -13.2578  -15.9613   20.1600 F       1  UNL1       -0.1659
     17 C          -9.7387  -17.7860   24.9073 C.3     1  UNL1        0.4186
     18 F          -9.2099  -18.2939   26.2158 F       1  UNL1       -0.1659
     19 F          -8.6866  -16.7170   24.8970 F       1  UNL1       -0.1659
     20 F         -10.7908  -18.8551   24.9176 F       1  UNL1       -0.1659
     21 C          -2.4476  -18.1348   20.5250 C.ar    1  UNL1        0.1558
     22 C          -2.4022  -17.4015   21.8328 C.ar    1  UNL1        0.0492
     23 C          -3.6918  -17.6597   22.5540 C.ar    1  UNL1        0.1374
     24 N          -4.5342  -18.5526   21.6920 N.ar    1  UNL1       -0.2251
     25 N          -3.7653  -18.8462   20.4380 N.ar    1  UNL1       -0.1603
     26 N          -1.6301  -17.6010   18.1174 N.am    1  UNL1       -0.3240
     27 C          -1.3653  -18.1535   19.4866 C.2     1  UNL1        0.2623
     28 O          -0.0183  -18.7246   19.8173 O.2     1  UNL1       -0.2687
     29 H          -0.9197  -17.6132   17.4358 H       1  UNL1        0.1453
     30 H          -2.5141  -17.2261   17.9003 H       1  UNL1        0.1453
     31 C          -4.0722  -17.1199   23.9008 C.2     1  UNL1        0.2606
     32 N          -4.8812  -15.8609   24.0030 N.am    1  UNL1       -0.3241
     33 O          -3.6435  -17.8390   25.1455 O.2     1  UNL1       -0.2687
     34 H          -5.1625  -15.3889   23.1861 H       1  UNL1        0.1453
     35 H          -5.1308  -15.5066   24.8870 H       1  UNL1        0.1453
@<TRIPOS>BOND
     1    26    27   am
     2    27    28    2
     3    27    21    1
     4    21    22   ar
     5    22    23   ar
     6    23    31    1
     7    31    32   am
     8    31    33    2
     9    23    24   ar
    10    24     1    1
    11     1     2   ar
    12     2     3   ar
    13     3     4   ar
    14     4     5   ar
    15     5     7    1
    16     7     8   ar
    17     8     9   ar
    18     9    13    1
    19    13    14    1
    20    13    15    1
    21    13    16    1
    22     9    10   ar
    23    10    11   ar
    24    11    12   ar
    25    12    17    1
    26    17    18    1
    27    17    19    1
    28    17    20    1
    29     5     6   ar
    30    24    25   ar
    31    25    21   ar
    32     6     1   ar
    33    12     7   ar
    34    26    29    1
    35    26    30    1
    36    32    34    1
    37    32    35    1
@<TRIPOS>MOLECULE
*****
 35 37 0 0 0
SMALL
GASTEIGER

@<TRIPOS>ATOM
      1 C          -7.4701  -18.7832   20.9886 C.ar    1  UNL1        0.0830
      2 C          -7.6344  -19.6455   19.7723 C.ar    1  UNL1        0.0192
      3 C          -9.0000  -19.8798   19.1979 C.ar    1  UNL1        0.0015
      4 C         -10.2015  -19.2518   19.8398 C.ar    1  UNL1        0.0001
      5 C         -10.0373  -18.3895   21.0561 C.ar    1  UNL1        0.0014
      6 C          -8.6716  -18.1551   21.6305 C.ar    1  UNL1        0.0191
      7 C         -11.2388  -17.7615   21.6980 C.ar    1  UNL1        0.0039
      8 C         -11.8681  -18.4021   22.8994 C.ar    1  UNL1        0.0038
      9 C         -13.0696  -17.7741   23.5413 C.ar    1  UNL1        0.0714
     10 C         -13.6417  -16.5054   22.9819 C.ar    1  UNL1        0.0038
     11 C         -13.0124  -15.8648   21.7805 C.ar    1  UNL1        0.0038
     12 C         -11.8109  -16.4928   21.1385 C.ar    1  UNL1        0.0714
     13 C         -13.6990  -18.4148   24.7428 C.3     1  UNL1        0.4186
     14 F         -14.3283  -19.0555   25.9442 F       1  UNL1       -0.1659
     15 F         -12.3375  -18.7286   25.2887 F       1  UNL1       -0.1659
     16 F         -15.0604  -18.1010   24.1970 F       1  UNL1       -0.1659
     17 C         -11.1816  -15.8520   19.9371 C.3     1  UNL1        0.4186
     18 F         -10.5522  -15.2113   18.7357 F       1  UNL1       -0.1659
     19 F         -12.1751  -16.5409   19.0492 F       1  UNL1       -0.1659
     20 F         -10.1880  -15.1632   20.8249 F       1  UNL1       -0.1659
     21 C          -3.7226  -18.7190   21.9973 C.ar    1  UNL1        0.1558
     22 C          -4.2830  -17.6573   22.8966 C.ar    1  UNL1        0.0492
     23 C          -5.7551  -17.5521   22.6282 C.ar    1  UNL1        0.1374
     24 N          -6.1044  -18.5488   21.5630 N.ar    1  UNL1       -0.2251
     25 N          -4.8483  -19.2699   21.1731 N.ar    1  UNL1       -0.1603
     26 N          -1.2117  -18.2705   22.4914 N.am    1  UNL1       -0.3240
     27 C          -2.2883  -19.1534   21.9334 C.2     1  UNL1        0.2623
     28 O          -1.9306  -20.4707   21.3115 O.2     1  UNL1       -0.2687
     29 H          -0.2703  -18.5557   22.4494 H       1  UNL1        0.1453
     30 H          -1.4464  -17.4059   22.8995 H       1  UNL1        0.1453
     31 C          -6.7101  -16.6149   23.3060 C.2     1  UNL1        0.2606
     32 N          -6.6734  -15.1489   22.9904 N.am    1  UNL1       -0.3241
     33 O          -7.7019  -17.1435   24.2994 O.2     1  UNL1       -0.2687
     34 H          -6.0225  -14.8019   22.3384 H       1  UNL1        0.1453
     35 H          -7.3003  -14.5338   23.4353 H       1  UNL1        0.1453
@<TRIPOS>BOND
     1    26    27   am
     2    27    28    2
     3    27    21    1
     4    21    22   ar
     5    22    23   ar
     6    23    31    1
     7    31    32   am
     8    31    33    2
     9    23    24   ar
    10    24     1    1
    11     1     2   ar
    12     2     3   ar
    13     3     4   ar
    14     4     5   ar
    15     5     7    1
    16     7     8   ar
    17     8     9   ar
    18     9    13    1
    19    13    14    1
    20    13    15    1
    21    13    16    1
    22     9    10   ar
    23    10    11   ar
    24    11    12   ar
    25    12    17    1
    26    17    18    1
    27    17    19    1
    28    17    20    1
    29     5     6   ar
    30    24    25   ar
    31    25    21   ar
    32     6     1   ar
    33    12     7   ar
    34    26    29    1
    35    26    30    1
    36    32    34    1
    37    32    35    1
@<TRIPOS>MOLECULE
*****
 35 37 0 0 0
SMALL
GASTEIGER

@<TRIPOS>ATOM
      1 C          -7.7790  -18.8487   22.4420 C.ar    1  UNL1        0.0830
      2 C          -7.7303  -20.3389   22.6060 C.ar    1  UNL1        0.0192
      3 C          -6.4390  -21.0741   22.4012 C.ar    1  UNL1        0.0015
      4 C          -5.1964  -20.3191   22.0324 C.ar    1  UNL1        0.0001
      5 C          -5.2451  -18.8289   21.8685 C.ar    1  UNL1        0.0014
      6 C          -6.5365  -18.0937   22.0733 C.ar    1  UNL1        0.0191
      7 C          -4.0026  -18.0739   21.4998 C.ar    1  UNL1        0.0039
      8 C          -3.4086  -18.2297   20.1313 C.ar    1  UNL1        0.0038
      9 C          -2.1660  -17.4747   19.7626 C.ar    1  UNL1        0.0714
     10 C          -1.5174  -16.5639   20.7624 C.ar    1  UNL1        0.0038
     11 C          -2.1114  -16.4081   22.1309 C.ar    1  UNL1        0.0038
     12 C          -3.3539  -17.1631   22.4996 C.ar    1  UNL1        0.0714
     13 C          -1.5721  -17.6305   18.3940 C.3     1  UNL1        0.4186
     14 F          -0.9782  -17.7863   17.0254 F       1  UNL1       -0.1659
     15 F          -0.3451  -18.2479   18.9967 F       1  UNL1       -0.1659
     16 F          -2.7991  -17.0132   17.7912 F       1  UNL1       -0.1659
     17 C          -3.9479  -17.0072   23.8682 C.3     1  UNL1        0.4186
     18 F          -4.5418  -16.8514   25.2368 F       1  UNL1       -0.1659
     19 F          -4.5866  -15.7180   23.4443 F       1  UNL1       -0.1659
     20 F          -3.3092  -18.2965   24.2922 F       1  UNL1       -0.1659
     21 C         -11.4378  -17.5854   22.7301 C.ar    1  UNL1        0.1558
     22 C         -10.6771  -16.3786   23.1939 C.ar    1  UNL1        0.0492
     23 C          -9.2140  -16.7050   23.1424 C.ar    1  UNL1        0.1374
     24 N          -9.0704  -18.1135   22.6468 N.ar    1  UNL1       -0.2251
     25 N         -10.4448  -18.6576   22.3920 N.ar    1  UNL1       -0.1603
     26 N         -13.7598  -17.8658   23.8615 N.am    1  UNL1       -0.3240
     27 C         -12.9296  -17.6999   22.6232 C.2     1  UNL1        0.2623
     28 O         -13.5913  -17.6485   21.2780 O.2     1  UNL1       -0.2687
     29 H         -14.7389  -17.9410   23.7913 H       1  UNL1        0.1453
     30 H         -13.3255  -17.8996   24.7444 H       1  UNL1        0.1453
     31 C          -8.0915  -15.7845   23.5202 C.2     1  UNL1        0.2606
     32 N          -7.6038  -14.7561   22.5433 N.am    1  UNL1       -0.3241
     33 O          -7.4568  -15.8924   24.8750 O.2     1  UNL1       -0.2687
     34 H          -8.0204  -14.6852   21.6541 H       1  UNL1        0.1453
     35 H          -6.8671  -14.1519   22.7912 H       1  UNL1        0.1453
@<TRIPOS>BOND
     1    26    27   am
     2    27    28    2
     3    27    21    1
     4    21    22   ar
     5    22    23   ar
     6    23    31    1
     7    31    32   am
     8    31    33    2
     9    23    24   ar
    10    24     1    1
    11     1     2   ar
    12     2     3   ar
    13     3     4   ar
    14     4     5   ar
    15     5     7    1
    16     7     8   ar
    17     8     9   ar
    18     9    13    1
    19    13    14    1
    20    13    15    1
    21    13    16    1
    22     9    10   ar
    23    10    11   ar
    24    11    12   ar
    25    12    17    1
    26    17    18    1
    27    17    19    1
    28    17    20    1
    29     5     6   ar
    30    24    25   ar
    31    25    21   ar
    32     6     1   ar
    33    12     7   ar
    34    26    29    1
    35    26    30    1
    36    32    34    1
    37    32    35    1
@<TRIPOS>MOLECULE
*****
 35 37 0 0 0
SMALL
GASTEIGER

@<TRIPOS>ATOM
      1 C          -5.7189  -17.4797   22.7295 C.ar    1  UNL1        0.0830
      2 C          -5.4779  -16.6871   23.9800 C.ar    1  UNL1        0.0192
      3 C          -6.6371  -16.1122   24.7386 C.ar    1  UNL1        0.0015
      4 C          -8.0374  -16.3298   24.2467 C.ar    1  UNL1        0.0001
      5 C          -8.2784  -17.1224   22.9962 C.ar    1  UNL1        0.0014
      6 C          -7.1191  -17.6973   22.2376 C.ar    1  UNL1        0.0191
      7 C          -9.6786  -17.3400   22.5044 C.ar    1  UNL1        0.0039
      8 C         -10.2160  -16.5073   21.3784 C.ar    1  UNL1        0.0038
      9 C         -11.6162  -16.7249   20.8865 C.ar    1  UNL1        0.0714
     10 C         -12.4791  -17.7752   21.5206 C.ar    1  UNL1        0.0038
     11 C         -11.9418  -18.6079   22.6466 C.ar    1  UNL1        0.0038
     12 C         -10.5416  -18.3903   23.1385 C.ar    1  UNL1        0.0714
     13 C         -12.1535  -15.8922   19.7604 C.3     1  UNL1        0.4186
     14 F         -12.6908  -15.0595   18.6345 F       1  UNL1       -0.1659
     15 F         -10.7821  -15.8237   19.1567 F       1  UNL1       -0.1659
     16 F         -13.5249  -15.9607   20.3642 F       1  UNL1       -0.1659
     17 C         -10.0043  -19.2230   24.2645 C.3     1  UNL1        0.4186
     18 F          -9.4670  -20.0557   25.3906 F       1  UNL1       -0.1659
     19 F          -9.4577  -20.2087   23.2748 F       1  UNL1       -0.1659
     20 F         -10.5509  -18.2373   25.2542 F       1  UNL1       -0.1659
     21 C          -2.3811  -18.3150   20.9330 C.ar    1  UNL1        0.1558
     22 C          -3.1703  -19.5640   20.6737 C.ar    1  UNL1        0.0492
     23 C          -4.5167  -19.4031   21.3151 C.ar    1  UNL1        0.1374
     24 N          -4.5596  -18.0547   21.9708 N.ar    1  UNL1       -0.2251
     25 N          -3.2397  -17.3822   21.7347 N.ar    1  UNL1       -0.1603
     26 N          -0.3889  -16.6758   20.6259 N.am    1  UNL1       -0.3240
     27 C          -0.9794  -18.0461   20.4717 C.2     1  UNL1        0.2623
     28 O          -0.1681  -19.1473   19.8561 O.2     1  UNL1       -0.2687
     29 H           0.5311  -16.4993   20.3232 H       1  UNL1        0.1453
     30 H          -0.9214  -15.9530   21.0300 H       1  UNL1        0.1453
     31 C          -5.6255  -20.4132   21.3029 C.2     1  UNL1        0.2606
     32 N          -6.0303  -21.0671   20.0150 N.am    1  UNL1       -0.3241
     33 O          -6.3295  -20.7696   22.5785 O.2     1  UNL1       -0.2687
     34 H          -5.5683  -20.8332   19.1777 H       1  UNL1        0.1453
     35 H          -6.7581  -21.7300   20.0071 H       1  UNL1        0.1453
@<TRIPOS>BOND
     1    26    27   am
     2    27    28    2
     3    27    21    1
     4    21    22   ar
     5    22    23   ar
     6    23    31    1
     7    31    32   am
     8    31    33    2
     9    23    24   ar
    10    24     1    1
    11     1     2   ar
    12     2     3   ar
    13     3     4   ar
    14     4     5   ar
    15     5     7    1
    16     7     8   ar
    17     8     9   ar
    18     9    13    1
    19    13    14    1
    20    13    15    1
    21    13    16    1
    22     9    10   ar
    23    10    11   ar
    24    11    12   ar
    25    12    17    1
    26    17    18    1
    27    17    19    1
    28    17    20    1
    29     5     6   ar
    30    24    25   ar
    31    25    21   ar
    32     6     1   ar
    33    12     7   ar
    34    26    29    1
    35    26    30    1
    36    32    34    1
    37    32    35    1
@<TRIPOS>MOLECULE
*****
 35 37 0 0 0
SMALL
GASTEIGER

@<TRIPOS>ATOM
      1 C          -9.5505  -17.0308   23.5147 C.ar    1  UNL1        0.0830
      2 C          -9.0600  -15.8659   24.3224 C.ar    1  UNL1        0.0192
      3 C          -7.5910  -15.5728   24.4003 C.ar    1  UNL1        0.0015
      4 C          -6.6125  -16.4446   23.6705 C.ar    1  UNL1        0.0001
      5 C          -7.1030  -17.6094   22.8627 C.ar    1  UNL1        0.0014
      6 C          -8.5720  -17.9025   22.7849 C.ar    1  UNL1        0.0191
      7 C          -6.1246  -18.4811   22.1329 C.ar    1  UNL1        0.0039
      8 C          -4.6531  -18.3257   22.3786 C.ar    1  UNL1        0.0038
      9 C          -3.6746  -19.1974   21.6488 C.ar    1  UNL1        0.0714
     10 C          -4.1676  -20.2246   20.6732 C.ar    1  UNL1        0.0038
     11 C          -5.6392  -20.3801   20.4275 C.ar    1  UNL1        0.0038
     12 C          -6.6176  -19.5083   21.1574 C.ar    1  UNL1        0.0714
     13 C          -2.2030  -19.0419   21.8945 C.3     1  UNL1        0.4186
     14 F          -0.7315  -18.8865   22.1402 F       1  UNL1       -0.1659
     15 F          -2.4846  -17.9653   22.9002 F       1  UNL1       -0.1659
     16 F          -1.9213  -20.1185   20.8888 F       1  UNL1       -0.1659
     17 C          -8.0892  -19.6638   20.9116 C.3     1  UNL1        0.4186
     18 F          -9.5607  -19.8193   20.6659 F       1  UNL1       -0.1659
     19 F          -7.9646  -18.8560   19.6539 F       1  UNL1       -0.1659
     20 F          -8.2138  -20.4716   22.1693 F       1  UNL1       -0.1659
     21 C         -13.2788  -17.9741   24.0399 C.ar    1  UNL1        0.1558
     22 C         -13.2815  -17.5759   22.5937 C.ar    1  UNL1        0.0492
     23 C         -11.8852  -17.1740   22.2210 C.ar    1  UNL1        0.1374
     24 N         -11.0196  -17.3239   23.4368 N.ar    1  UNL1       -0.2251
     25 N         -11.8808  -17.8184   24.5609 N.ar    1  UNL1       -0.1603
     26 N         -14.3989  -18.4999   26.3244 N.am    1  UNL1       -0.3240
     27 C         -14.4656  -18.4454   24.8269 C.2     1  UNL1        0.2623
     28 O         -15.7192  -18.8621   24.1163 O.2     1  UNL1       -0.2687
     29 H         -15.1779  -18.8091   26.8409 H       1  UNL1        0.1453
     30 H         -13.5762  -18.2263   26.7907 H       1  UNL1        0.1453
     31 C         -11.4339  -16.7047   20.8697 C.2     1  UNL1        0.2606
     32 N         -10.5929  -15.4687   20.7473 N.am    1  UNL1       -0.3241
     33 O         -11.8236  -17.4713   19.6407 O.2     1  UNL1       -0.2687
     34 H         -10.3370  -14.9655   21.5539 H       1  UNL1        0.1453
     35 H         -10.2966  -15.1607   19.8604 H       1  UNL1        0.1453
@<TRIPOS>BOND
     1    26    27   am
     2    27    28    2
     3    27    21    1
     4    21    22   ar
     5    22    23   ar
     6    23    31    1
     7    31    32   am
     8    31    33    2
     9    23    24   ar
    10    24     1    1
    11     1     2   ar
    12     2     3   ar
    13     3     4   ar
    14     4     5   ar
    15     5     7    1
    16     7     8   ar
    17     8     9   ar
    18     9    13    1
    19    13    14    1
    20    13    15    1
    21    13    16    1
    22     9    10   ar
    23    10    11   ar
    24    11    12   ar
    25    12    17    1
    26    17    18    1
    27    17    19    1
    28    17    20    1
    29     5     6   ar
    30    24    25   ar
    31    25    21   ar
    32     6     1   ar
    33    12     7   ar
    34    26    29    1
    35    26    30    1
    36    32    34    1
    37    32    35    1
@<TRIPOS>MOLECULE
*****
 35 37 0 0 0
SMALL
GASTEIGER

@<TRIPOS>ATOM
      1 C          -7.6483  -16.9722   23.2885 C.ar    1  UNL1        0.0830
      2 C          -7.2151  -16.0658   24.4023 C.ar    1  UNL1        0.0192
      3 C          -5.7548  -15.8421   24.6621 C.ar    1  UNL1        0.0015
      4 C          -4.7278  -16.5248   23.8082 C.ar    1  UNL1        0.0001
      5 C          -5.1611  -17.4313   22.6944 C.ar    1  UNL1        0.0014
      6 C          -6.6214  -17.6550   22.4346 C.ar    1  UNL1        0.0191
      7 C          -4.1342  -18.1140   21.8405 C.ar    1  UNL1        0.0039
      8 C          -2.8301  -17.4334   21.5472 C.ar    1  UNL1        0.0038
      9 C          -1.8031  -18.1161   20.6932 C.ar    1  UNL1        0.0714
     10 C          -2.0802  -19.4795   20.1326 C.ar    1  UNL1        0.0038
     11 C          -3.3843  -20.1602   20.4260 C.ar    1  UNL1        0.0038
     12 C          -4.4112  -19.4774   21.2799 C.ar    1  UNL1        0.0714
     13 C          -0.4990  -17.4354   20.3999 C.3     1  UNL1        0.4186
     14 F           0.8050  -16.7547   20.1066 F       1  UNL1       -0.1659
     15 F           0.0128  -18.6916   19.7597 F       1  UNL1       -0.1659
     16 F          -1.0108  -16.1792   21.0401 F       1  UNL1       -0.1659
     17 C          -5.7154  -20.1582   21.5732 C.3     1  UNL1        0.4186
     18 F          -7.0194  -20.8388   21.8665 F       1  UNL1       -0.1659
     19 F          -5.2323  -20.4887   22.9542 F       1  UNL1       -0.1659
     20 F          -6.1985  -19.8276   20.1922 F       1  UNL1       -0.1659
     21 C         -11.2990  -17.1620   21.9836 C.ar    1  UNL1        0.1558
     22 C         -11.4126  -17.9187   23.2738 C.ar    1  UNL1        0.0492
     23 C         -10.0589  -17.9398   23.9196 C.ar    1  UNL1        0.1374
     24 N          -9.1087  -17.1960   23.0286 N.ar    1  UNL1       -0.2251
     25 N          -9.8751  -16.7153   21.8321 N.ar    1  UNL1       -0.1603
     26 N         -12.1914  -15.9840   19.8468 N.am    1  UNL1       -0.3240
     27 C         -12.4136  -16.8982   21.0151 C.2     1  UNL1        0.2623
     28 O         -13.7504  -17.5486   21.2147 O.2     1  UNL1       -0.2687
     29 H         -12.9229  -15.8108   19.2111 H       1  UNL1        0.1453
     30 H         -11.3140  -15.5570   19.7158 H       1  UNL1        0.1453
     31 C          -9.7158  -18.5903   25.2268 C.2     1  UNL1        0.2606
     32 N          -9.4030  -17.7452   26.4259 N.am    1  UNL1       -0.3241
     33 O          -9.6854  -20.0861   25.3351 O.2     1  UNL1       -0.2687
     34 H          -9.4229  -16.7635   26.3550 H       1  UNL1        0.1453
     35 H          -9.1777  -18.1723   27.2839 H       1  UNL1        0.1453
@<TRIPOS>BOND
     1    26    27   am
     2    27    28    2
     3    27    21    1
     4    21    22   ar
     5    22    23   ar
     6    23    31    1
     7    31    32   am
     8    31    33    2
     9    23    24   ar
    10    24     1    1
    11     1     2   ar
    12     2     3   ar
    13     3     4   ar
    14     4     5   ar
    15     5     7    1
    16     7     8   ar
    17     8     9   ar
    18     9    13    1
    19    13    14    1
    20    13    15    1
    21    13    16    1
    22     9    10   ar
    23    10    11   ar
    24    11    12   ar
    25    12    17    1
    26    17    18    1
    27    17    19    1
    28    17    20    1
    29     5     6   ar
    30    24    25   ar
    31    25    21   ar
    32     6     1   ar
    33    12     7   ar
    34    26    29    1
    35    26    30    1
    36    32    34    1
    37    32    35    1
@<TRIPOS>MOLECULE
*****
 35 37 0 0 0
SMALL
GASTEIGER

@<TRIPOS>ATOM
      1 C          -7.8919  -18.6875   22.1089 C.ar    1  UNL1        0.0830
      2 C          -7.8782  -20.1416   22.4767 C.ar    1  UNL1        0.0192
      3 C          -6.5803  -20.8924   22.5185 C.ar    1  UNL1        0.0015
      4 C          -5.2961  -20.1891   22.1925 C.ar    1  UNL1        0.0001
      5 C          -5.3098  -18.7350   21.8248 C.ar    1  UNL1        0.0014
      6 C          -6.6077  -17.9842   21.7830 C.ar    1  UNL1        0.0191
      7 C          -4.0256  -18.0317   21.4988 C.ar    1  UNL1        0.0039
      8 C          -3.3907  -18.2154   20.1523 C.ar    1  UNL1        0.0038
      9 C          -2.1065  -17.5121   19.8264 C.ar    1  UNL1        0.0714
     10 C          -1.4573  -16.6250   20.8469 C.ar    1  UNL1        0.0038
     11 C          -2.0922  -16.4413   22.1934 C.ar    1  UNL1        0.0038
     12 C          -3.3764  -17.1446   22.5194 C.ar    1  UNL1        0.0714
     13 C          -1.4716  -17.6959   18.4798 C.3     1  UNL1        0.4186
     14 F          -0.8367  -17.8797   17.1333 F       1  UNL1       -0.1659
     15 F          -2.6496  -17.0292   17.8334 F       1  UNL1       -0.1659
     16 F          -0.2937  -18.3626   19.1263 F       1  UNL1       -0.1659
     17 C          -4.0113  -16.9608   23.8659 C.3     1  UNL1        0.4186
     18 F          -4.6462  -16.7770   25.2124 F       1  UNL1       -0.1659
     19 F          -3.4177  -18.2602   24.3232 F       1  UNL1       -0.1659
     20 F          -4.6048  -15.6614   23.4087 F       1  UNL1       -0.1659
     21 C         -11.1888  -16.8260   21.2541 C.ar    1  UNL1        0.1558
     22 C         -11.1851  -16.7362   22.7515 C.ar    1  UNL1        0.0492
     23 C          -9.9496  -17.4226   23.2539 C.ar    1  UNL1        0.1374
     24 N          -9.1898  -17.9366   22.0671 N.ar    1  UNL1       -0.2251
     25 N          -9.9556  -17.5679   20.8312 N.ar    1  UNL1       -0.1603
     26 N         -11.8418  -15.5597   19.0815 N.am    1  UNL1       -0.3240
     27 C         -12.2410  -16.2713   20.3402 C.2     1  UNL1        0.2623
     28 O         -13.6924  -16.4282   20.6849 O.2     1  UNL1       -0.2687
     29 H         -12.5324  -15.1956   18.4817 H       1  UNL1        0.1453
     30 H         -10.8892  -15.4567   18.8553 H       1  UNL1        0.1453
     31 C          -9.5450  -17.5692   24.6908 C.2     1  UNL1        0.2606
     32 N         -10.0199  -18.7484   25.4871 N.am    1  UNL1       -0.3241
     33 O          -8.6656  -16.5367   25.3315 O.2     1  UNL1       -0.2687
     34 H         -10.5971  -19.4261   25.0667 H       1  UNL1        0.1453
     35 H          -9.7543  -18.8446   26.4302 H       1  UNL1        0.1453
@<TRIPOS>BOND
     1    26    27   am
     2    27    28    2
     3    27    21    1
     4    21    22   ar
     5    22    23   ar
     6    23    31    1
     7    31    32   am
     8    31    33    2
     9    23    24   ar
    10    24     1    1
    11     1     2   ar
    12     2     3   ar
    13     3     4   ar
    14     4     5   ar
    15     5     7    1
    16     7     8   ar
    17     8     9   ar
    18     9    13    1
    19    13    14    1
    20    13    15    1
    21    13    16    1
    22     9    10   ar
    23    10    11   ar
    24    11    12   ar
    25    12    17    1
    26    17    18    1
    27    17    19    1
    28    17    20    1
    29     5     6   ar
    30    24    25   ar
    31    25    21   ar
    32     6     1   ar
    33    12     7   ar
    34    26    29    1
    35    26    30    1
    36    32    34    1
    37    32    35    1
@<TRIPOS>MOLECULE
*****
 35 37 0 0 0
SMALL
GASTEIGER

@<TRIPOS>ATOM
      1 C          -5.2961  -19.2018   21.7665 C.ar    1  UNL1        0.0830
      2 C          -5.3212  -20.5157   22.4897 C.ar    1  UNL1        0.0192
      3 C          -6.6290  -21.2004   22.7559 C.ar    1  UNL1        0.0015
      4 C          -7.9116  -20.5712   22.2990 C.ar    1  UNL1        0.0001
      5 C          -7.8866  -19.2573   21.5758 C.ar    1  UNL1        0.0014
      6 C          -6.5788  -18.5726   21.3096 C.ar    1  UNL1        0.0191
      7 C          -9.1693  -18.6281   21.1188 C.ar    1  UNL1        0.0039
      8 C          -9.8351  -17.5834   21.9644 C.ar    1  UNL1        0.0038
      9 C         -11.1178  -16.9542   21.5075 C.ar    1  UNL1        0.0714
     10 C         -11.7346  -17.3697   20.2048 C.ar    1  UNL1        0.0038
     11 C         -11.0687  -18.4144   19.3592 C.ar    1  UNL1        0.0038
     12 C          -9.7861  -19.0436   19.8162 C.ar    1  UNL1        0.0714
     13 C         -11.7837  -15.9095   22.3532 C.3     1  UNL1        0.4186
     14 F         -12.4496  -14.8648   23.1988 F       1  UNL1       -0.1659
     15 F         -10.6970  -16.0464   23.3780 F       1  UNL1       -0.1659
     16 F         -12.8704  -15.7725   21.3283 F       1  UNL1       -0.1659
     17 C          -9.1202  -20.0884   18.9705 C.3     1  UNL1        0.4186
     18 F          -8.4544  -21.1331   18.1248 F       1  UNL1       -0.1659
     19 F          -8.2087  -19.0439   18.3976 F       1  UNL1       -0.1659
     20 F         -10.0316  -21.1329   19.5433 F       1  UNL1       -0.1659
     21 C          -1.8545  -17.9212   20.5091 C.ar    1  UNL1        0.1558
     22 C          -2.0972  -17.0055   21.6721 C.ar    1  UNL1        0.0492
     23 C          -3.4160  -17.3738   22.2847 C.ar    1  UNL1        0.1374
     24 N          -3.9883  -18.5171   21.5003 N.ar    1  UNL1       -0.2251
     25 N          -3.0233  -18.8554   20.4029 N.ar    1  UNL1       -0.1603
     26 N          -0.8309  -17.8066   18.1239 N.am    1  UNL1       -0.3240
     27 C          -0.6538  -17.9055   19.6101 C.2     1  UNL1        0.2623
     28 O           0.7239  -17.9886   20.1974 O.2     1  UNL1       -0.2687
     29 H          -0.0429  -17.7963   17.5339 H       1  UNL1        0.1453
     30 H          -1.7352  -17.7521   17.7385 H       1  UNL1        0.1453
     31 C          -4.0509  -16.7144   23.4730 C.2     1  UNL1        0.2606
     32 N          -4.7476  -15.3954   23.3157 N.am    1  UNL1       -0.3241
     33 O          -3.9892  -17.3742   24.8187 O.2     1  UNL1       -0.2687
     34 H          -4.7882  -14.9624   22.4325 H       1  UNL1        0.1453
     35 H          -5.1644  -14.9628   24.0957 H       1  UNL1        0.1453
@<TRIPOS>BOND
     1    26    27   am
     2    27    28    2
     3    27    21    1
     4    21    22   ar
     5    22    23   ar
     6    23    31    1
     7    31    32   am
     8    31    33    2
     9    23    24   ar
    10    24     1    1
    11     1     2   ar
    12     2     3   ar
    13     3     4   ar
    14     4     5   ar
    15     5     7    1
    16     7     8   ar
    17     8     9   ar
    18     9    13    1
    19    13    14    1
    20    13    15    1
    21    13    16    1
    22     9    10   ar
    23    10    11   ar
    24    11    12   ar
    25    12    17    1
    26    17    18    1
    27    17    19    1
    28    17    20    1
    29     5     6   ar
    30    24    25   ar
    31    25    21   ar
    32     6     1   ar
    33    12     7   ar
    34    26    29    1
    35    26    30    1
    36    32    34    1
    37    32    35    1
@<TRIPOS>MOLECULE
*****
 35 37 0 0 0
SMALL
GASTEIGER

@<TRIPOS>ATOM
      1 C           7.2312   -4.7118   23.3841 C.ar    1  UNL1        0.0830
      2 C           8.3477   -4.9357   22.4078 C.ar    1  UNL1        0.0192
      3 C           8.2428   -4.3966   21.0120 C.ar    1  UNL1        0.0015
      4 C           7.0214   -3.6337   20.5925 C.ar    1  UNL1        0.0001
      5 C           5.9048   -3.4097   21.5688 C.ar    1  UNL1        0.0014
      6 C           6.0098   -3.9488   22.9646 C.ar    1  UNL1        0.0191
      7 C           4.6834   -2.6468   21.1492 C.ar    1  UNL1        0.0039
      8 C           4.2301   -1.4597   21.9463 C.ar    1  UNL1        0.0038
      9 C           3.0087   -0.6967   21.5268 C.ar    1  UNL1        0.0714
     10 C           2.2406   -1.1208   20.3102 C.ar    1  UNL1        0.0038
     11 C           2.6939   -2.3079   19.5132 C.ar    1  UNL1        0.0038
     12 C           3.9153   -3.0709   19.9327 C.ar    1  UNL1        0.0714
     13 C           2.5554    0.4904   22.3239 C.3     1  UNL1        0.4186
     14 F           2.1022    1.6775   23.1209 F       1  UNL1       -0.1659
     15 F           2.3978   -0.3821   23.5338 F       1  UNL1       -0.1659
     16 F           2.7131    1.3629   21.1140 F       1  UNL1       -0.1659
     17 C           4.3686   -4.2580   19.1356 C.3     1  UNL1        0.4186
     18 F           4.8218   -5.4451   18.3385 F       1  UNL1       -0.1659
     19 F           5.0610   -3.3442   18.1683 F       1  UNL1       -0.1659
     20 F           3.6762   -5.1718   20.1028 F       1  UNL1       -0.1659
     21 C           7.6938   -6.7505   26.6545 C.ar    1  UNL1        0.1558
     22 C           7.3011   -5.4101   27.2016 C.ar    1  UNL1        0.0492
     23 C           7.0800   -4.4833   26.0431 C.ar    1  UNL1        0.1374
     24 N           7.3361   -5.2508   24.7800 N.ar    1  UNL1       -0.2251
     25 N           7.7154   -6.6520   25.1579 N.ar    1  UNL1       -0.1603
     26 N           7.2556   -9.2483   27.2194 N.am    1  UNL1       -0.3240
     27 C           8.0094   -7.9744   27.4622 C.2     1  UNL1        0.2623
     28 O           9.0789   -7.9245   28.5128 O.2     1  UNL1       -0.2687
     29 H           7.4628  -10.0516   27.7495 H       1  UNL1        0.1453
     30 H           6.5536   -9.2811   26.5298 H       1  UNL1        0.1453
     31 C           6.6742   -3.0420   26.1321 C.2     1  UNL1        0.2606
     32 N           5.3526   -2.6709   26.7367 N.am    1  UNL1       -0.3241
     33 O           7.5900   -1.9717   25.6164 O.2     1  UNL1       -0.2687
     34 H           4.7515   -3.3733   27.0751 H       1  UNL1        0.1453
     35 H           5.0862   -1.7249   26.7950 H       1  UNL1        0.1453
@<TRIPOS>BOND
     1    26    27   am
     2    27    28    2
     3    27    21    1
     4    21    22   ar
     5    22    23   ar
     6    23    31    1
     7    31    32   am
     8    31    33    2
     9    23    24   ar
    10    24     1    1
    11     1     2   ar
    12     2     3   ar
    13     3     4   ar
    14     4     5   ar
    15     5     7    1
    16     7     8   ar
    17     8     9   ar
    18     9    13    1
    19    13    14    1
    20    13    15    1
    21    13    16    1
    22     9    10   ar
    23    10    11   ar
    24    11    12   ar
    25    12    17    1
    26    17    18    1
    27    17    19    1
    28    17    20    1
    29     5     6   ar
    30    24    25   ar
    31    25    21   ar
    32     6     1   ar
    33    12     7   ar
    34    26    29    1
    35    26    30    1
    36    32    34    1
    37    32    35    1
