@<TRIPOS>MOLECULE
*****
 28 32 0 0 0
SMALL
GASTEIGER

@<TRIPOS>ATOM
      1 N          -7.8229  -15.4335   24.5386 N.pl3   1  UNL1       -0.3133
      2 C          -6.7399  -16.2460   23.8930 C.2     1  UNL1        0.2770
      3 N          -6.9273  -17.2513   22.7955 N.2     1  UNL1       -0.2203
      4 C          -5.5826  -17.8226   22.4557 C.3     1  UNL1        0.1539
      5 C          -4.5642  -17.1705   23.3432 C.3     1  UNL1        0.2350
      6 O          -5.2795  -16.1961   24.2315 O.2     1  UNL1       -0.4478
      7 C          -6.7086  -18.3862   21.6406 C.ar    1  UNL1        0.0355
      8 C          -8.1122  -17.9091   21.8695 C.ar    1  UNL1        0.0007
      9 C          -9.2382  -18.4727   21.0544 C.ar    1  UNL1        0.0015
     10 C          -8.9607  -19.5134   20.0104 C.ar    1  UNL1        0.0031
     11 C          -7.5572  -19.9906   19.7815 C.ar    1  UNL1        0.0366
     12 C          -6.4311  -19.4269   20.5966 C.ar    1  UNL1        0.1363
     13 O          -5.0276  -19.9040   20.3677 O.3     1  UNL1       -0.4768
     14 C          -3.9015  -19.3404   21.1829 C.3     1  UNL1        0.1975
     15 C          -2.4980  -19.8175   20.9540 C.3     1  UNL1        0.1855
     16 O          -1.3720  -19.2539   21.7691 O.3     1  UNL1       -0.3499
     17 C          -1.6495  -18.2132   22.8130 C.3     1  UNL1        0.1425
     18 C          -3.0530  -17.7361   23.0419 C.3     1  UNL1        0.0381
     19 C          -4.1790  -18.2997   22.2268 C.3     1  UNL1        0.0734
     20 H          -8.7572  -15.5375   24.2461 H       1  UNL1        0.1466
     21 H          -7.5995  -14.7961   25.2549 H       1  UNL1        0.1466
     22 C         -10.6418  -17.9956   21.2833 C.ar    1  UNL1        0.0200
     23 C         -11.3390  -17.1842   20.2318 C.ar    1  UNL1        0.0989
     24 N         -12.7426  -16.7071   20.4607 N.ar    1  UNL1       -0.2414
     25 C         -13.4489  -17.0414   21.7411 C.ar    1  UNL1        0.1102
     26 C         -12.7517  -17.8528   22.7925 C.ar    1  UNL1        0.0768
     27 CL        -13.4580  -18.1871   24.0729 Cl      1  UNL1       -0.0806
     28 C         -11.3482  -18.3299   22.5636 C.ar    1  UNL1        0.0145
@<TRIPOS>BOND
     1     1     2    1
     2     2     3    2
     3     3     4    1
     4     4     5    1
     5     5     6    1
     6     4     7    1
     7     7     8   ar
     8     8     9   ar
     9     9    22    1
    10    22    23   ar
    11    23    24   ar
    12    24    25   ar
    13    25    26   ar
    14    26    27    1
    15    26    28   ar
    16     9    10   ar
    17    10    11   ar
    18    11    12   ar
    19    12    13    1
    20    13    14    1
    21    14    15    1
    22    15    16    1
    23    16    17    1
    24    17    18    1
    25    19    18    1
    26     6     2    1
    27    12     7   ar
    28    19    14    1
    29    19     4    1
    30    28    22   ar
    31     1    20    1
    32     1    21    1
@<TRIPOS>MOLECULE
*****
 28 32 0 0 0
SMALL
GASTEIGER

@<TRIPOS>ATOM
      1 N          -5.6539  -15.6302   23.7140 N.pl3   1  UNL1       -0.3133
      2 C          -7.0126  -16.1250   23.3151 C.2     1  UNL1        0.2770
      3 N          -7.2977  -17.2338   22.3460 N.2     1  UNL1       -0.2203
      4 C          -8.7861  -17.3919   22.2472 C.3     1  UNL1        0.1539
      5 C          -9.4208  -16.3808   23.1552 C.3     1  UNL1        0.2350
      6 O          -8.3248  -15.5977   23.8153 O.2     1  UNL1       -0.4478
      7 C          -8.0127  -18.3458   21.3858 C.ar    1  UNL1        0.0355
      8 C          -6.5133  -18.3052   21.3809 C.ar    1  UNL1        0.0007
      9 C          -5.7399  -19.2591   20.5195 C.ar    1  UNL1        0.0015
     10 C          -6.4660  -20.2537   19.6630 C.ar    1  UNL1        0.0031
     11 C          -7.9654  -20.2944   19.6679 C.ar    1  UNL1        0.0366
     12 C          -8.7388  -19.3404   20.5294 C.ar    1  UNL1        0.1363
     13 O         -10.2382  -19.3812   20.5343 O.3     1  UNL1       -0.4768
     14 C         -11.0116  -18.4272   21.3957 C.3     1  UNL1        0.1975
     15 C         -12.5111  -18.4679   21.4006 C.3     1  UNL1        0.1855
     16 O         -13.2844  -17.5140   22.2619 O.3     1  UNL1       -0.3499
     17 C         -12.5583  -16.5194   23.1184 C.3     1  UNL1        0.1425
     18 C         -11.0589  -16.4787   23.1135 C.3     1  UNL1        0.0381
     19 C         -10.2856  -17.4326   22.2521 C.3     1  UNL1        0.0734
     20 H          -4.8472  -16.0426   23.3287 H       1  UNL1        0.1466
     21 H          -5.5688  -14.8931   24.3610 H       1  UNL1        0.1466
     22 C          -4.2405  -19.2183   20.5146 C.ar    1  UNL1        0.0200
     23 C          -3.4680  -19.9058   21.6011 C.ar    1  UNL1        0.0989
     24 N          -1.9685  -19.8651   21.5962 N.ar    1  UNL1       -0.2414
     25 C          -1.2416  -19.1369   20.5047 C.ar    1  UNL1        0.1102
     26 C          -2.0142  -18.4494   19.4182 C.ar    1  UNL1        0.0768
     27 CL         -1.2873  -17.7211   18.3268 Cl      1  UNL1       -0.0806
     28 C          -3.5136  -18.4901   19.4231 C.ar    1  UNL1        0.0145
@<TRIPOS>BOND
     1     1     2    1
     2     2     3    2
     3     3     4    1
     4     4     5    1
     5     5     6    1
     6     4     7    1
     7     7     8   ar
     8     8     9   ar
     9     9    22    1
    10    22    23   ar
    11    23    24   ar
    12    24    25   ar
    13    25    26   ar
    14    26    27    1
    15    26    28   ar
    16     9    10   ar
    17    10    11   ar
    18    11    12   ar
    19    12    13    1
    20    13    14    1
    21    14    15    1
    22    15    16    1
    23    16    17    1
    24    17    18    1
    25    19    18    1
    26     6     2    1
    27    12     7   ar
    28    19    14    1
    29    19     4    1
    30    28    22   ar
    31     1    20    1
    32     1    21    1
@<TRIPOS>MOLECULE
*****
 28 32 0 0 0
SMALL
GASTEIGER

@<TRIPOS>ATOM
      1 N         -16.6545   -3.8080   20.3647 N.pl3   1  UNL1       -0.3133
      2 C         -15.4203   -3.3808   19.6270 C.2     1  UNL1        0.2770
      3 N         -14.5229   -4.2715   18.8200 N.2     1  UNL1       -0.2203
      4 C         -13.4147   -3.4291   18.2610 C.3     1  UNL1        0.1539
      5 C         -13.6273   -2.0179   18.7226 C.3     1  UNL1        0.2350
      6 O         -14.8667   -1.9880   19.5669 O.2     1  UNL1       -0.4478
      7 C         -13.3323   -4.8773   17.8790 C.ar    1  UNL1        0.0355
      8 C         -14.3734   -5.8416   18.3652 C.ar    1  UNL1        0.0007
      9 C         -14.2911   -7.2898   17.9832 C.ar    1  UNL1        0.0015
     10 C         -13.1677   -7.7738   17.1151 C.ar    1  UNL1        0.0031
     11 C         -12.1266   -6.8096   16.6289 C.ar    1  UNL1        0.0366
     12 C         -12.2089   -5.3613   17.0108 C.ar    1  UNL1        0.1363
     13 O         -11.1679   -4.3971   16.5247 O.3     1  UNL1       -0.4768
     14 C         -11.2502   -2.9488   16.9066 C.3     1  UNL1        0.1975
     15 C         -10.2091   -1.9846   16.4204 C.3     1  UNL1        0.1855
     16 O         -10.2915   -0.5364   16.8024 O.3     1  UNL1       -0.3499
     17 C         -11.4149   -0.0524   17.6706 C.3     1  UNL1        0.1425
     18 C         -12.4560   -1.0167   18.1567 C.3     1  UNL1        0.0381
     19 C         -12.3736   -2.4648   17.7748 C.3     1  UNL1        0.0734
     20 H         -16.9387   -4.7504   20.3444 H       1  UNL1        0.1466
     21 H         -17.1803   -3.1460   20.8692 H       1  UNL1        0.1466
     22 C         -15.3321   -8.2540   18.4694 C.ar    1  UNL1        0.0200
     23 C         -15.2284   -9.7090   18.1199 C.ar    1  UNL1        0.0989
     24 N         -16.2695  -10.6733   18.6062 N.ar    1  UNL1       -0.2414
     25 C         -17.4144  -10.1825   19.4418 C.ar    1  UNL1        0.1102
     26 C         -17.5181   -8.7274   19.7913 C.ar    1  UNL1        0.0768
     27 CL        -18.6630   -8.2366   20.6270 Cl      1  UNL1       -0.0806
     28 C         -16.4771   -7.7632   19.3051 C.ar    1  UNL1        0.0145
@<TRIPOS>BOND
     1     1     2    1
     2     2     3    2
     3     3     4    1
     4     4     5    1
     5     5     6    1
     6     4     7    1
     7     7     8   ar
     8     8     9   ar
     9     9    22    1
    10    22    23   ar
    11    23    24   ar
    12    24    25   ar
    13    25    26   ar
    14    26    27    1
    15    26    28   ar
    16     9    10   ar
    17    10    11   ar
    18    11    12   ar
    19    12    13    1
    20    13    14    1
    21    14    15    1
    22    15    16    1
    23    16    17    1
    24    17    18    1
    25    19    18    1
    26     6     2    1
    27    12     7   ar
    28    19    14    1
    29    19     4    1
    30    28    22   ar
    31     1    20    1
    32     1    21    1
@<TRIPOS>MOLECULE
*****
 28 32 0 0 0
SMALL
GASTEIGER

@<TRIPOS>ATOM
      1 N         -16.4513   -3.7325   20.5556 N.pl3   1  UNL1       -0.3133
      2 C         -15.1010   -4.0991   20.0151 C.2     1  UNL1        0.2770
      3 N         -14.1230   -3.1594   19.3743 N.2     1  UNL1       -0.2203
      4 C         -12.9091   -3.9491   18.9836 C.3     1  UNL1        0.1539
      5 C         -13.1368   -5.3769   19.3830 C.3     1  UNL1        0.2350
      6 O         -14.4914   -5.4696   20.0204 O.2     1  UNL1       -0.4478
      7 C         -12.8238   -2.4909   18.6429 C.ar    1  UNL1        0.0355
      8 C         -13.9648   -1.5752   18.9743 C.ar    1  UNL1        0.0007
      9 C         -13.8795   -0.1170   18.6336 C.ar    1  UNL1        0.0015
     10 C         -12.6532    0.4258   17.9616 C.ar    1  UNL1        0.0031
     11 C         -11.5122   -0.4898   17.6302 C.ar    1  UNL1        0.0366
     12 C         -11.5975   -1.9481   17.9709 C.ar    1  UNL1        0.1363
     13 O         -10.4565   -2.8637   17.6396 O.3     1  UNL1       -0.4768
     14 C         -10.5417   -4.3220   17.9802 C.3     1  UNL1        0.1975
     15 C          -9.4007   -5.2376   17.6489 C.3     1  UNL1        0.1855
     16 O          -9.4860   -6.6958   17.9896 O.3     1  UNL1       -0.3499
     17 C         -10.7123   -7.2386   18.6616 C.3     1  UNL1        0.1425
     18 C         -11.8533   -6.3230   18.9929 C.3     1  UNL1        0.0381
     19 C         -11.7680   -4.8648   18.6523 C.3     1  UNL1        0.0734
     20 H         -16.7650   -2.8007   20.5059 H       1  UNL1        0.1466
     21 H         -17.0239   -4.4238   20.9599 H       1  UNL1        0.1466
     22 C         -15.0205    0.7986   18.9649 C.ar    1  UNL1        0.0200
     23 C         -14.9962    2.2252   18.5022 C.ar    1  UNL1        0.0989
     24 N         -16.1373    3.1408   18.8336 N.ar    1  UNL1       -0.2414
     25 C         -17.3027    2.6297   19.6276 C.ar    1  UNL1        0.1102
     26 C         -17.3270    1.2030   20.0904 C.ar    1  UNL1        0.0768
     27 CL        -18.4924    0.6919   20.8845 Cl      1  UNL1       -0.0806
     28 C         -16.1860    0.2875   19.7591 C.ar    1  UNL1        0.0145
@<TRIPOS>BOND
     1     1     2    1
     2     2     3    2
     3     3     4    1
     4     4     5    1
     5     5     6    1
     6     4     7    1
     7     7     8   ar
     8     8     9   ar
     9     9    22    1
    10    22    23   ar
    11    23    24   ar
    12    24    25   ar
    13    25    26   ar
    14    26    27    1
    15    26    28   ar
    16     9    10   ar
    17    10    11   ar
    18    11    12   ar
    19    12    13    1
    20    13    14    1
    21    14    15    1
    22    15    16    1
    23    16    17    1
    24    17    18    1
    25    19    18    1
    26     6     2    1
    27    12     7   ar
    28    19    14    1
    29    19     4    1
    30    28    22   ar
    31     1    20    1
    32     1    21    1
@<TRIPOS>MOLECULE
*****
 28 32 0 0 0
SMALL
GASTEIGER

@<TRIPOS>ATOM
      1 N         -17.0758   -3.6925   20.4430 N.pl3   1  UNL1       -0.3133
      2 C         -15.6972   -3.9307   19.9018 C.2     1  UNL1        0.2770
      3 N         -15.1937   -5.2110   19.3041 N.2     1  UNL1       -0.2203
      4 C         -13.7654   -5.0019   18.8962 C.3     1  UNL1        0.1539
      5 C         -13.3863   -3.5924   19.2418 C.3     1  UNL1        0.2350
      6 O         -14.5802   -2.9303   19.8633 O.2     1  UNL1       -0.4478
      7 C         -14.2866   -6.3788   18.6091 C.ar    1  UNL1        0.0355
      8 C         -15.7003   -6.7346   18.9629 C.ar    1  UNL1        0.0007
      9 C         -16.2214   -8.1115   18.6758 C.ar    1  UNL1        0.0015
     10 C         -15.3290   -9.1327   18.0348 C.ar    1  UNL1        0.0031
     11 C         -13.9155   -8.7770   17.6810 C.ar    1  UNL1        0.0366
     12 C         -13.3942   -7.4000   17.9681 C.ar    1  UNL1        0.1363
     13 O         -11.9807   -7.0443   17.6143 O.3     1  UNL1       -0.4768
     14 C         -11.4594   -5.6673   17.9014 C.3     1  UNL1        0.1975
     15 C         -10.0458   -5.3116   17.5476 C.3     1  UNL1        0.1855
     16 O          -9.5247   -3.9347   17.8347 O.3     1  UNL1       -0.3499
     17 C         -10.4170   -2.9136   18.4757 C.3     1  UNL1        0.1425
     18 C         -11.8306   -3.2693   18.8295 C.3     1  UNL1        0.0381
     19 C         -12.3518   -4.6462   18.5424 C.3     1  UNL1        0.0734
     20 H         -17.7437   -4.4156   20.4241 H       1  UNL1        0.1466
     21 H         -17.3127   -2.8132   20.8170 H       1  UNL1        0.1466
     22 C         -17.6350   -8.4672   19.0296 C.ar    1  UNL1        0.0200
     23 C         -18.3427   -7.7272   20.1258 C.ar    1  UNL1        0.0989
     24 N         -19.7563   -8.0830   20.4796 N.ar    1  UNL1       -0.2414
     25 C         -20.4622   -9.1787   19.7372 C.ar    1  UNL1        0.1102
     26 C         -19.7545   -9.9187   18.6411 C.ar    1  UNL1        0.0768
     27 CL        -20.4604  -11.0144   17.8988 Cl      1  UNL1       -0.0806
     28 C         -18.3410   -9.5630   18.2873 C.ar    1  UNL1        0.0145
@<TRIPOS>BOND
     1     1     2    1
     2     2     3    2
     3     3     4    1
     4     4     5    1
     5     5     6    1
     6     4     7    1
     7     7     8   ar
     8     8     9   ar
     9     9    22    1
    10    22    23   ar
    11    23    24   ar
    12    24    25   ar
    13    25    26   ar
    14    26    27    1
    15    26    28   ar
    16     9    10   ar
    17    10    11   ar
    18    11    12   ar
    19    12    13    1
    20    13    14    1
    21    14    15    1
    22    15    16    1
    23    16    17    1
    24    17    18    1
    25    19    18    1
    26     6     2    1
    27    12     7   ar
    28    19    14    1
    29    19     4    1
    30    28    22   ar
    31     1    20    1
    32     1    21    1
@<TRIPOS>MOLECULE
*****
 28 32 0 0 0
SMALL
GASTEIGER

@<TRIPOS>ATOM
      1 N         -14.0529   -9.1791   18.5518 N.pl3   1  UNL1       -0.3133
      2 C         -13.7032   -7.7233   18.6431 C.2     1  UNL1        0.2770
      3 N         -14.6660   -6.5987   18.8844 N.2     1  UNL1       -0.2203
      4 C         -13.8872   -5.3168   18.8995 C.3     1  UNL1        0.1539
      5 C         -12.4430   -5.6492   18.6674 C.3     1  UNL1        0.2350
      6 O         -12.3293   -7.1365   18.5089 O.2     1  UNL1       -0.4478
      7 C         -15.3600   -5.1384   19.1208 C.ar    1  UNL1        0.0355
      8 C         -16.2669   -6.3332   19.1318 C.ar    1  UNL1        0.0007
      9 C         -17.7397   -6.1548   19.3531 C.ar    1  UNL1        0.0015
     10 C         -18.3056   -4.7817   19.5633 C.ar    1  UNL1        0.0031
     11 C         -17.3988   -3.5869   19.5523 C.ar    1  UNL1        0.0366
     12 C         -15.9259   -3.7653   19.3310 C.ar    1  UNL1        0.1363
     13 O         -15.0191   -2.5705   19.3200 O.3     1  UNL1       -0.4768
     14 C         -13.5462   -2.7489   19.0987 C.3     1  UNL1        0.1975
     15 C         -12.6394   -1.5541   19.0877 C.3     1  UNL1        0.1855
     16 O         -11.1666   -1.7325   18.8664 O.3     1  UNL1       -0.3499
     17 C         -10.6006   -3.1056   18.6562 C.3     1  UNL1        0.1425
     18 C         -11.5074   -4.3004   18.6672 C.3     1  UNL1        0.0381
     19 C         -12.9802   -4.1220   18.8885 C.3     1  UNL1        0.0734
     20 H         -14.9886   -9.4679   18.6538 H       1  UNL1        0.1466
     21 H         -13.3468   -9.8457   18.3900 H       1  UNL1        0.1466
     22 C         -18.6465   -7.3496   19.3641 C.ar    1  UNL1        0.0200
     23 C         -19.5128   -7.6226   20.5578 C.ar    1  UNL1        0.0989
     24 N         -20.4197   -8.8175   20.5688 N.ar    1  UNL1       -0.2414
     25 C         -20.4602   -9.7391   19.3861 C.ar    1  UNL1        0.1102
     26 C         -19.5939   -9.4661   18.1924 C.ar    1  UNL1        0.0768
     27 CL        -19.6344  -10.3878   17.0097 Cl      1  UNL1       -0.0806
     28 C         -18.6871   -8.2713   18.1814 C.ar    1  UNL1        0.0145
@<TRIPOS>BOND
     1     1     2    1
     2     2     3    2
     3     3     4    1
     4     4     5    1
     5     5     6    1
     6     4     7    1
     7     7     8   ar
     8     8     9   ar
     9     9    22    1
    10    22    23   ar
    11    23    24   ar
    12    24    25   ar
    13    25    26   ar
    14    26    27    1
    15    26    28   ar
    16     9    10   ar
    17    10    11   ar
    18    11    12   ar
    19    12    13    1
    20    13    14    1
    21    14    15    1
    22    15    16    1
    23    16    17    1
    24    17    18    1
    25    19    18    1
    26     6     2    1
    27    12     7   ar
    28    19    14    1
    29    19     4    1
    30    28    22   ar
    31     1    20    1
    32     1    21    1
@<TRIPOS>MOLECULE
*****
 28 32 0 0 0
SMALL
GASTEIGER

@<TRIPOS>ATOM
      1 N         -11.6813   -7.6558   18.1521 N.pl3   1  UNL1       -0.3133
      2 C         -11.8061   -6.1630   18.0741 C.2     1  UNL1        0.2770
      3 N         -13.0548   -5.3687   18.3185 N.2     1  UNL1       -0.2203
      4 C         -12.7247   -3.9173   18.1335 C.3     1  UNL1        0.1539
      5 C         -11.2718   -3.8145   17.7747 C.3     1  UNL1        0.2350
      6 O         -10.7041   -5.2025   17.7380 O.2     1  UNL1       -0.4478
      7 C         -14.1565   -4.1755   18.4984 C.ar    1  UNL1        0.0355
      8 C         -14.6334   -5.5811   18.7156 C.ar    1  UNL1        0.0007
      9 C         -16.0652   -5.8393   19.0805 C.ar    1  UNL1        0.0015
     10 C         -17.0201   -4.6920   19.2283 C.ar    1  UNL1        0.0031
     11 C         -16.5433   -3.2865   19.0111 C.ar    1  UNL1        0.0366
     12 C         -15.1114   -3.0282   18.6462 C.ar    1  UNL1        0.1363
     13 O         -14.6346   -1.6228   18.4290 O.3     1  UNL1       -0.4768
     14 C         -13.2027   -1.3645   18.0641 C.3     1  UNL1        0.1975
     15 C         -12.7259    0.0410   17.8470 C.3     1  UNL1        0.1855
     16 O         -11.2941    0.2992   17.4820 O.3     1  UNL1       -0.3499
     17 C         -10.3391   -0.8480   17.3343 C.3     1  UNL1        0.1425
     18 C         -10.8160   -2.2535   17.5514 C.3     1  UNL1        0.0381
     19 C         -12.2478   -2.5117   17.9163 C.3     1  UNL1        0.0734
     20 H         -12.4661   -8.2041   18.3816 H       1  UNL1        0.1466
     21 H         -10.8145   -8.0873   17.9738 H       1  UNL1        0.1466
     22 C         -16.5420   -7.2448   19.2976 C.ar    1  UNL1        0.0200
     23 C         -15.5919   -8.3934   19.1304 C.ar    1  UNL1        0.0989
     24 N         -16.0688   -9.7989   19.3476 N.ar    1  UNL1       -0.2414
     25 C         -17.4958  -10.0558   19.7319 C.ar    1  UNL1        0.1102
     26 C         -18.4459   -8.9072   19.8991 C.ar    1  UNL1        0.0768
     27 CL        -19.8728   -9.1640   20.2835 Cl      1  UNL1       -0.0806
     28 C         -17.9690   -7.5017   19.6820 C.ar    1  UNL1        0.0145
@<TRIPOS>BOND
     1     1     2    1
     2     2     3    2
     3     3     4    1
     4     4     5    1
     5     5     6    1
     6     4     7    1
     7     7     8   ar
     8     8     9   ar
     9     9    22    1
    10    22    23   ar
    11    23    24   ar
    12    24    25   ar
    13    25    26   ar
    14    26    27    1
    15    26    28   ar
    16     9    10   ar
    17    10    11   ar
    18    11    12   ar
    19    12    13    1
    20    13    14    1
    21    14    15    1
    22    15    16    1
    23    16    17    1
    24    17    18    1
    25    19    18    1
    26     6     2    1
    27    12     7   ar
    28    19    14    1
    29    19     4    1
    30    28    22   ar
    31     1    20    1
    32     1    21    1
@<TRIPOS>MOLECULE
*****
 28 32 0 0 0
SMALL
GASTEIGER

@<TRIPOS>ATOM
      1 N          -1.0053    2.3174   20.7398 N.pl3   1  UNL1       -0.3133
      2 C           0.1932    1.5417   20.2795 C.2     1  UNL1        0.2770
      3 N           1.2264    0.9085   21.1636 N.2     1  UNL1       -0.2203
      4 C           2.2407    0.2385   20.2848 C.3     1  UNL1        0.1539
      5 C           1.8344    0.4576   18.8576 C.3     1  UNL1        0.2350
      6 O           0.5690    1.2631   18.8543 O.2     1  UNL1       -0.4478
      7 C           2.5195    0.1016   21.7523 C.ar    1  UNL1        0.0355
      8 C           1.5898    0.7211   22.7533 C.ar    1  UNL1        0.0007
      9 C           1.8686    0.5842   24.2208 C.ar    1  UNL1        0.0015
     10 C           3.0771   -0.1721   24.6873 C.ar    1  UNL1        0.0031
     11 C           4.0067   -0.7916   23.6863 C.ar    1  UNL1        0.0366
     12 C           3.7280   -0.6547   22.2188 C.ar    1  UNL1        0.1363
     13 O           4.6576   -1.2742   21.2178 O.3     1  UNL1       -0.4768
     14 C           4.3788   -1.1374   19.7503 C.3     1  UNL1        0.1975
     15 C           5.3085   -1.7568   18.7493 C.3     1  UNL1        0.1855
     16 O           5.0297   -1.6200   17.2819 O.3     1  UNL1       -0.3499
     17 C           3.8213   -0.8636   16.8154 C.3     1  UNL1        0.1425
     18 C           2.8916   -0.2442   17.8163 C.3     1  UNL1        0.0381
     19 C           3.1704   -0.3810   19.2838 C.3     1  UNL1        0.0734
     20 H          -1.1677    2.4474   21.7021 H       1  UNL1        0.1466
     21 H          -1.6295    2.6965   20.0797 H       1  UNL1        0.1466
     22 C           0.9390    1.2037   25.2217 C.ar    1  UNL1        0.0200
     23 C           1.2289    1.0847   26.6886 C.ar    1  UNL1        0.0989
     24 N           0.2992    1.7042   27.6896 N.ar    1  UNL1       -0.2414
     25 C          -0.9204    2.4427   27.2237 C.ar    1  UNL1        0.1102
     26 C          -1.2103    2.5618   25.7568 C.ar    1  UNL1        0.0768
     27 CL         -2.4299    3.3003   25.2909 Cl      1  UNL1       -0.0806
     28 C          -0.2807    1.9423   24.7558 C.ar    1  UNL1        0.0145
@<TRIPOS>BOND
     1     1     2    1
     2     2     3    2
     3     3     4    1
     4     4     5    1
     5     5     6    1
     6     4     7    1
     7     7     8   ar
     8     8     9   ar
     9     9    22    1
    10    22    23   ar
    11    23    24   ar
    12    24    25   ar
    13    25    26   ar
    14    26    27    1
    15    26    28   ar
    16     9    10   ar
    17    10    11   ar
    18    11    12   ar
    19    12    13    1
    20    13    14    1
    21    14    15    1
    22    15    16    1
    23    16    17    1
    24    17    18    1
    25    19    18    1
    26     6     2    1
    27    12     7   ar
    28    19    14    1
    29    19     4    1
    30    28    22   ar
    31     1    20    1
    32     1    21    1
@<TRIPOS>MOLECULE
*****
 28 32 0 0 0
SMALL
GASTEIGER

@<TRIPOS>ATOM
      1 N         -12.6786   -8.1051   17.9112 N.pl3   1  UNL1       -0.3133
      2 C         -14.1431   -8.1623   18.2304 C.2     1  UNL1        0.2770
      3 N         -15.0026   -7.0025   18.6378 N.2     1  UNL1       -0.2203
      4 C         -16.3960   -7.5127   18.8574 C.3     1  UNL1        0.1539
      5 C         -16.3976   -8.9878   18.5856 C.3     1  UNL1        0.2350
      6 O         -15.0053   -9.3894   18.1981 O.2     1  UNL1       -0.4478
      7 C         -16.2413   -6.0396   19.0943 C.ar    1  UNL1        0.0355
      8 C         -14.9027   -5.3873   18.9132 C.ar    1  UNL1        0.0007
      9 C         -14.7480   -3.9143   19.1501 C.ar    1  UNL1        0.0015
     10 C         -15.9319   -3.0934   19.5680 C.ar    1  UNL1        0.0031
     11 C         -17.2704   -3.7456   19.7491 C.ar    1  UNL1        0.0366
     12 C         -17.4252   -5.2188   19.5122 C.ar    1  UNL1        0.1363
     13 O         -18.7638   -5.8710   19.6932 O.3     1  UNL1       -0.4768
     14 C         -18.9185   -7.3441   19.4563 C.3     1  UNL1        0.1975
     15 C         -20.2571   -7.9963   19.6374 C.3     1  UNL1        0.1855
     16 O         -20.4118   -9.4693   19.4005 O.3     1  UNL1       -0.3499
     17 C         -19.2279  -10.2902   18.9826 C.3     1  UNL1        0.1425
     18 C         -17.8893   -9.6380   18.8015 C.3     1  UNL1        0.0381
     19 C         -17.7346   -8.1649   19.0384 C.3     1  UNL1        0.0734
     20 H         -12.1970   -7.2478   17.9610 H       1  UNL1        0.1466
     21 H         -12.1989   -8.9248   17.6521 H       1  UNL1        0.1466
     22 C         -13.4094   -3.2621   18.9691 C.ar    1  UNL1        0.0200
     23 C         -13.3119   -1.7699   18.8519 C.ar    1  UNL1        0.0989
     24 N         -11.9732   -1.1177   18.6708 N.ar    1  UNL1       -0.2414
     25 C         -10.7322   -1.9577   18.6070 C.ar    1  UNL1        0.1102
     26 C         -10.8297   -3.4499   18.7242 C.ar    1  UNL1        0.0768
     27 CL         -9.5887   -4.2900   18.6604 Cl      1  UNL1       -0.0806
     28 C         -12.1683   -4.1021   18.9052 C.ar    1  UNL1        0.0145
@<TRIPOS>BOND
     1     1     2    1
     2     2     3    2
     3     3     4    1
     4     4     5    1
     5     5     6    1
     6     4     7    1
     7     7     8   ar
     8     8     9   ar
     9     9    22    1
    10    22    23   ar
    11    23    24   ar
    12    24    25   ar
    13    25    26   ar
    14    26    27    1
    15    26    28   ar
    16     9    10   ar
    17    10    11   ar
    18    11    12   ar
    19    12    13    1
    20    13    14    1
    21    14    15    1
    22    15    16    1
    23    16    17    1
    24    17    18    1
    25    19    18    1
    26     6     2    1
    27    12     7   ar
    28    19    14    1
    29    19     4    1
    30    28    22   ar
    31     1    20    1
    32     1    21    1
