@<TRIPOS>MOLECULE
*****
 31 34 0 0 0
SMALL
GASTEIGER

@<TRIPOS>ATOM
      1 C         -13.9480   -4.8900   18.6515 C.2     1  UNL1        0.0021
      2 C         -15.0203   -5.9211   18.4582 C.2     1  UNL1        0.0130
      3 C         -14.6567   -7.3736   18.3687 C.3     1  UNL1        0.1542
      4 C         -16.0925   -6.9520   18.2649 C.3     1  UNL1        0.0614
      5 C         -17.1647   -7.9830   18.0716 C.3     1  UNL1        0.0725
      6 N         -16.8011   -9.4355   17.9821 N.3     1  UNL1       -0.2972
      7 C         -15.3653   -9.8571   18.0859 C.3     1  UNL1        0.0725
      8 C         -14.2931   -8.8261   18.2792 C.3     1  UNL1        0.0614
      9 O         -13.2208   -7.7951   18.4725 O.3     1  UNL1       -0.4785
     10 C         -12.1486   -6.7641   18.6658 C.ar    1  UNL1        0.1386
     11 C         -10.7128   -7.1856   18.7696 C.ar    1  UNL1        0.0369
     12 C          -9.6406   -6.1546   18.9629 C.ar    1  UNL1        0.0031
     13 C         -10.0041   -4.7021   19.0523 C.ar    1  UNL1        0.0002
     14 C         -11.4399   -4.2806   18.9486 C.ar    1  UNL1        0.0030
     15 C         -12.5122   -5.3116   18.7553 C.ar    1  UNL1        0.0338
     16 H         -17.1415   -9.7693   17.0804 H       1  UNL1        0.1233
     17 C         -15.0387   -0.5325   18.9199 C.ar    1  UNL1        0.0872
     18 C         -15.0432   -1.3842   20.1546 C.ar    1  UNL1        0.0076
     19 C         -14.6797   -2.8367   20.0651 C.ar    1  UNL1        0.0003
     20 C         -14.3116   -3.4375   18.7410 C.ar    1  UNL1        0.0029
     21 C         -14.3070   -2.5858   17.5062 C.ar    1  UNL1        0.0368
     22 C         -14.6706   -1.1333   17.5957 C.ar    1  UNL1        0.1380
     23 O         -14.6661   -0.2816   16.3610 O.3     1  UNL1       -0.5054
     24 H         -14.4361   -0.6568   15.5338 H       1  UNL1        0.2922
     25 N         -16.8436    1.3349   18.9908 N.am    1  UNL1       -0.2760
     26 C         -15.4023    0.9200   19.0094 C.2     1  UNL1        0.2520
     27 O         -14.3244    1.9577   19.1176 O.2     1  UNL1       -0.2698
     28 C         -17.2973    3.4569   20.4196 C.3     1  UNL1        0.0233
     29 C         -17.2072    2.7874   19.0803 C.3     1  UNL1        0.0938
     30 C         -17.9215    0.2973   18.8826 C.3     1  UNL1        0.0938
     31 C         -18.5985   -0.2126   20.1202 C.3     1  UNL1        0.0233
@<TRIPOS>BOND
     1    28    29    1
     2    29    25    1
     3    25    30    1
     4    30    31    1
     5    25    26   am
     6    26    27    2
     7    26    17    1
     8    17    18   ar
     9    18    19   ar
    10    19    20   ar
    11    20     1    1
    12     1     2    2
    13     2     3    1
    14     3     4    1
    15     4     5    1
    16     5     6    1
    17     6     7    1
    18     7     8    1
    19     3     9    1
    20     9    10    1
    21    10    11   ar
    22    11    12   ar
    23    12    13   ar
    24    13    14   ar
    25    14    15   ar
    26    20    21   ar
    27    21    22   ar
    28    22    23    1
    29    22    17   ar
    30    15     1    1
    31     8     3    1
    32    15    10   ar
    33     6    16    1
    34    23    24    1
@<TRIPOS>MOLECULE
*****
 31 34 0 0 0
SMALL
GASTEIGER

@<TRIPOS>ATOM
      1 C          -7.5721  -17.2014   23.0418 C.2     1  UNL1        0.0021
      2 C          -8.7804  -17.4377   22.1849 C.2     1  UNL1        0.0130
      3 C         -10.1293  -16.9700   22.6450 C.3     1  UNL1        0.1542
      4 C          -9.9887  -17.6741   21.3280 C.3     1  UNL1        0.0614
      5 C         -11.1970  -17.9104   20.4712 C.3     1  UNL1        0.0725
      6 N         -12.5458  -17.4427   20.9313 N.3     1  UNL1       -0.2972
      7 C         -12.6865  -16.7386   22.2483 C.3     1  UNL1        0.0725
      8 C         -11.4782  -16.5022   23.1051 C.3     1  UNL1        0.0614
      9 O         -10.2699  -16.2659   23.9620 O.3     1  UNL1       -0.4785
     10 C          -9.0616  -16.0295   24.8189 C.ar    1  UNL1        0.1386
     11 C          -9.2022  -15.3254   26.1359 C.ar    1  UNL1        0.0369
     12 C          -7.9940  -15.0891   26.9928 C.ar    1  UNL1        0.0031
     13 C          -6.6451  -15.5568   26.5326 C.ar    1  UNL1        0.0002
     14 C          -6.5045  -16.2609   25.2157 C.ar    1  UNL1        0.0030
     15 C          -7.7128  -16.4973   24.3587 C.ar    1  UNL1        0.0338
     16 H         -13.1450  -18.2671   20.9728 H       1  UNL1        0.1233
     17 C          -3.5255  -18.6046   21.6614 C.ar    1  UNL1        0.0872
     18 C          -3.6318  -17.5234   22.6955 C.ar    1  UNL1        0.0076
     19 C          -4.9807  -17.0556   23.1557 C.ar    1  UNL1        0.0003
     20 C          -6.2232  -17.6691   22.5816 C.ar    1  UNL1        0.0029
     21 C          -6.1170  -18.7504   21.5474 C.ar    1  UNL1        0.0368
     22 C          -4.7681  -19.2182   21.0873 C.ar    1  UNL1        0.1380
     23 O          -4.6618  -20.2994   20.0531 O.3     1  UNL1       -0.5054
     24 H          -5.4380  -20.6827   19.6945 H       1  UNL1        0.2922
     25 N          -1.3843  -18.2423   20.2352 N.am    1  UNL1       -0.2760
     26 C          -2.1766  -19.0724   21.2012 C.2     1  UNL1        0.2520
     27 O          -1.6200  -20.3702   21.7072 O.2     1  UNL1       -0.2698
     28 C           1.1957  -17.9450   20.1613 C.3     1  UNL1        0.0233
     29 C          -0.0354  -18.7101   19.7751 C.3     1  UNL1        0.0938
     30 C          -1.9409  -16.9445   19.7293 C.3     1  UNL1        0.0938
     31 C          -2.7623  -16.9191   18.4745 C.3     1  UNL1        0.0233
@<TRIPOS>BOND
     1    28    29    1
     2    29    25    1
     3    25    30    1
     4    30    31    1
     5    25    26   am
     6    26    27    2
     7    26    17    1
     8    17    18   ar
     9    18    19   ar
    10    19    20   ar
    11    20     1    1
    12     1     2    2
    13     2     3    1
    14     3     4    1
    15     4     5    1
    16     5     6    1
    17     6     7    1
    18     7     8    1
    19     3     9    1
    20     9    10    1
    21    10    11   ar
    22    11    12   ar
    23    12    13   ar
    24    13    14   ar
    25    14    15   ar
    26    20    21   ar
    27    21    22   ar
    28    22    23    1
    29    22    17   ar
    30    15     1    1
    31     8     3    1
    32    15    10   ar
    33     6    16    1
    34    23    24    1
@<TRIPOS>MOLECULE
*****
 31 34 0 0 0
SMALL
GASTEIGER

@<TRIPOS>ATOM
      1 C         -13.5010   -4.3723   18.2601 C.2     1  UNL1        0.0021
      2 C         -13.5075   -2.9053   17.9468 C.2     1  UNL1        0.0130
      3 C         -12.2127   -2.1558   17.8388 C.3     1  UNL1        0.1542
      4 C         -13.5139   -1.4384   17.6336 C.3     1  UNL1        0.0614
      5 C         -13.5203    0.0285   17.3204 C.3     1  UNL1        0.0725
      6 N         -12.2255    0.7780   17.2123 N.3     1  UNL1       -0.2972
      7 C         -10.9243    0.0606   17.4175 C.3     1  UNL1        0.0725
      8 C         -10.9178   -1.4062   17.7307 C.3     1  UNL1        0.0614
      9 O         -10.9114   -2.8732   18.0439 O.3     1  UNL1       -0.4785
     10 C         -10.9049   -4.3401   18.3572 C.ar    1  UNL1        0.1386
     11 C          -9.6036   -5.0575   18.5623 C.ar    1  UNL1        0.0369
     12 C          -9.5972   -6.5244   18.8756 C.ar    1  UNL1        0.0031
     13 C         -10.8920   -7.2740   18.9836 C.ar    1  UNL1        0.0002
     14 C         -12.1932   -6.5566   18.7785 C.ar    1  UNL1        0.0030
     15 C         -12.1997   -5.0896   18.4652 C.ar    1  UNL1        0.0338
     16 H         -12.2606    1.5275   17.9032 H       1  UNL1        0.1233
     17 C         -17.3854   -6.6209   18.5843 C.ar    1  UNL1        0.0872
     18 C         -16.9065   -5.7817   19.7316 C.ar    1  UNL1        0.0076
     19 C         -15.6117   -5.0322   19.6235 C.ar    1  UNL1        0.0003
     20 C         -14.7958   -5.1218   18.3681 C.ar    1  UNL1        0.0029
     21 C         -15.2746   -5.9610   17.2207 C.ar    1  UNL1        0.0368
     22 C         -16.5694   -6.7105   17.3287 C.ar    1  UNL1        0.1380
     23 O         -17.0483   -7.5497   16.1814 O.3     1  UNL1       -0.5054
     24 H         -16.5386   -7.6057   15.3971 H       1  UNL1        0.2922
     25 N         -18.6872   -8.7889   19.1801 N.am    1  UNL1       -0.2760
     26 C         -18.6802   -7.3704   18.6923 C.2     1  UNL1        0.2520
     27 O         -19.9680   -6.7015   18.3126 O.2     1  UNL1       -0.2698
     28 C         -20.4466  -10.4006   18.1520 C.3     1  UNL1        0.0233
     29 C         -19.9820   -9.5384   19.2882 C.3     1  UNL1        0.0938
     30 C         -17.3994   -9.4578   19.5598 C.3     1  UNL1        0.0938
     31 C         -16.7353  -10.4038   18.6038 C.3     1  UNL1        0.0233
@<TRIPOS>BOND
     1    28    29    1
     2    29    25    1
     3    25    30    1
     4    30    31    1
     5    25    26   am
     6    26    27    2
     7    26    17    1
     8    17    18   ar
     9    18    19   ar
    10    19    20   ar
    11    20     1    1
    12     1     2    2
    13     2     3    1
    14     3     4    1
    15     4     5    1
    16     5     6    1
    17     6     7    1
    18     7     8    1
    19     3     9    1
    20     9    10    1
    21    10    11   ar
    22    11    12   ar
    23    12    13   ar
    24    13    14   ar
    25    14    15   ar
    26    20    21   ar
    27    21    22   ar
    28    22    23    1
    29    22    17   ar
    30    15     1    1
    31     8     3    1
    32    15    10   ar
    33     6    16    1
    34    23    24    1
@<TRIPOS>MOLECULE
*****
 31 34 0 0 0
SMALL
GASTEIGER

@<TRIPOS>ATOM
      1 C          -1.6849    3.2281   26.1622 C.2     1  UNL1        0.0021
      2 C          -2.9903    3.9102   26.4463 C.2     1  UNL1        0.0130
      3 C          -3.8446    4.3967   25.3133 C.3     1  UNL1        0.1542
      4 C          -4.2957    4.5924   26.7304 C.3     1  UNL1        0.0614
      5 C          -5.6010    5.2745   27.0145 C.3     1  UNL1        0.0725
      6 N          -6.4552    5.7609   25.8815 N.3     1  UNL1       -0.2972
      7 C          -6.0042    5.5652   24.4645 C.3     1  UNL1        0.0725
      8 C          -4.6988    4.8831   24.1804 C.3     1  UNL1        0.0614
      9 O          -3.3934    4.2009   23.8962 O.3     1  UNL1       -0.4785
     10 C          -2.0881    3.5188   23.6121 C.ar    1  UNL1        0.1386
     11 C          -1.6370    3.3230   22.1949 C.ar    1  UNL1        0.0369
     12 C          -0.3316    2.6409   21.9109 C.ar    1  UNL1        0.0031
     13 C           0.5226    2.1545   23.0438 C.ar    1  UNL1        0.0002
     14 C           0.0715    2.3502   24.4609 C.ar    1  UNL1        0.0030
     15 C          -1.2339    3.0324   24.7451 C.ar    1  UNL1        0.0338
     16 H          -6.5783    6.7646   26.0154 H       1  UNL1        0.1233
     17 C           0.8778    1.7688   29.5611 C.ar    1  UNL1        0.0872
     18 C           1.0265    3.1747   29.0596 C.ar    1  UNL1        0.0076
     19 C           0.1722    3.6611   27.9266 C.ar    1  UNL1        0.0003
     20 C          -0.8307    2.7417   27.2952 C.ar    1  UNL1        0.0029
     21 C          -0.9794    1.3358   27.7966 C.ar    1  UNL1        0.0368
     22 C          -0.1251    0.8494   28.9296 C.ar    1  UNL1        0.1380
     23 O          -0.2738   -0.5565   29.4311 O.3     1  UNL1       -0.5054
     24 H          -0.9003   -1.1308   29.0367 H       1  UNL1        0.2922
     25 N           3.0387    0.6028   30.4101 N.am    1  UNL1       -0.2760
     26 C           1.7321    1.2824   30.6941 C.2     1  UNL1        0.2520
     27 O           1.2796    1.4757   32.1112 O.2     1  UNL1       -0.2698
     28 C           3.9044   -1.3400   31.9022 C.3     1  UNL1        0.0233
     29 C           3.8930    0.1164   31.5431 C.3     1  UNL1        0.0938
     30 C           3.4912    0.4096   28.9930 C.3     1  UNL1        0.0938
     31 C           3.1196   -0.8398   28.2508 C.3     1  UNL1        0.0233
@<TRIPOS>BOND
     1    28    29    1
     2    29    25    1
     3    25    30    1
     4    30    31    1
     5    25    26   am
     6    26    27    2
     7    26    17    1
     8    17    18   ar
     9    18    19   ar
    10    19    20   ar
    11    20     1    1
    12     1     2    2
    13     2     3    1
    14     3     4    1
    15     4     5    1
    16     5     6    1
    17     6     7    1
    18     7     8    1
    19     3     9    1
    20     9    10    1
    21    10    11   ar
    22    11    12   ar
    23    12    13   ar
    24    13    14   ar
    25    14    15   ar
    26    20    21   ar
    27    21    22   ar
    28    22    23    1
    29    22    17   ar
    30    15     1    1
    31     8     3    1
    32    15    10   ar
    33     6    16    1
    34    23    24    1
@<TRIPOS>MOLECULE
*****
 31 34 0 0 0
SMALL
GASTEIGER

@<TRIPOS>ATOM
      1 C          -1.2543    2.9546   25.5408 C.2     1  UNL1        0.0021
      2 C          -0.5234    2.7156   24.2529 C.2     1  UNL1        0.0130
      3 C          -1.1612    3.0901   22.9479 C.3     1  UNL1        0.1542
      4 C           0.2075    2.4766   22.9650 C.3     1  UNL1        0.0614
      5 C           0.9383    2.2376   21.6771 C.3     1  UNL1        0.0725
      6 N           0.3005    2.6121   20.3721 N.3     1  UNL1       -0.2972
      7 C          -1.0682    3.2256   20.3551 C.3     1  UNL1        0.0725
      8 C          -1.7990    3.4646   21.6429 C.3     1  UNL1        0.0614
      9 O          -2.5299    3.7036   22.9309 O.3     1  UNL1       -0.4785
     10 C          -3.2607    3.9426   24.2188 C.ar    1  UNL1        0.1386
     11 C          -4.6295    4.5562   24.2017 C.ar    1  UNL1        0.0369
     12 C          -5.3603    4.7952   25.4896 C.ar    1  UNL1        0.0031
     13 C          -4.7225    4.4207   26.7946 C.ar    1  UNL1        0.0002
     14 C          -3.3538    3.8072   26.8117 C.ar    1  UNL1        0.0030
     15 C          -2.6229    3.5681   25.5237 C.ar    1  UNL1        0.0338
     16 H           0.2480    1.7595   19.8147 H       1  UNL1        0.1233
     17 C           0.6592    1.8311   29.4557 C.ar    1  UNL1        0.0872
     18 C           0.8699    3.2017   28.8839 C.ar    1  UNL1        0.0076
     19 C           0.2321    3.5762   27.5790 C.ar    1  UNL1        0.0003
     20 C          -0.6165    2.5801   26.8458 C.ar    1  UNL1        0.0029
     21 C          -0.8273    1.2094   27.4175 C.ar    1  UNL1        0.0368
     22 C          -0.1895    0.8349   28.7225 C.ar    1  UNL1        0.1380
     23 O          -0.4002   -0.5357   29.2943 O.3     1  UNL1       -0.5054
     24 H          -0.9303   -1.1580   28.8363 H       1  UNL1        0.2922
     25 N           2.6519    0.8133   30.7759 N.am    1  UNL1       -0.2760
     26 C           1.2970    1.4566   30.7607 C.2     1  UNL1        0.2520
     27 O           0.5798    1.7254   32.0504 O.2     1  UNL1       -0.2698
     28 C           4.0006   -0.8750   32.2185 C.3     1  UNL1        0.0233
     29 C           3.2897    0.4388   32.0809 C.3     1  UNL1        0.0938
     30 C           3.3691    0.5445   29.4861 C.3     1  UNL1        0.0938
     31 C           3.0952   -0.7185   28.7247 C.3     1  UNL1        0.0233
@<TRIPOS>BOND
     1    28    29    1
     2    29    25    1
     3    25    30    1
     4    30    31    1
     5    25    26   am
     6    26    27    2
     7    26    17    1
     8    17    18   ar
     9    18    19   ar
    10    19    20   ar
    11    20     1    1
    12     1     2    2
    13     2     3    1
    14     3     4    1
    15     4     5    1
    16     5     6    1
    17     6     7    1
    18     7     8    1
    19     3     9    1
    20     9    10    1
    21    10    11   ar
    22    11    12   ar
    23    12    13   ar
    24    13    14   ar
    25    14    15   ar
    26    20    21   ar
    27    21    22   ar
    28    22    23    1
    29    22    17   ar
    30    15     1    1
    31     8     3    1
    32    15    10   ar
    33     6    16    1
    34    23    24    1
@<TRIPOS>MOLECULE
*****
 31 34 0 0 0
SMALL
GASTEIGER

@<TRIPOS>ATOM
      1 C           7.0818   -4.0637   24.5358 C.2     1  UNL1        0.0021
      2 C           6.6236   -3.3119   25.7503 C.2     1  UNL1        0.0130
      3 C           6.9130   -3.8514   27.1197 C.3     1  UNL1        0.1542
      4 C           6.1655   -2.5602   26.9648 C.3     1  UNL1        0.0614
      5 C           5.7074   -1.8085   28.1793 C.3     1  UNL1        0.0725
      6 N           5.9968   -2.3480   29.5487 N.3     1  UNL1       -0.2972
      7 C           6.7443   -3.6392   29.7035 C.3     1  UNL1        0.0725
      8 C           7.2023   -4.3909   28.4891 C.3     1  UNL1        0.0614
      9 O           7.6605   -5.1427   27.2745 O.3     1  UNL1       -0.4785
     10 C           8.1186   -5.8944   26.0600 C.ar    1  UNL1        0.1386
     11 C           8.8661   -7.1857   26.2149 C.ar    1  UNL1        0.0369
     12 C           9.3242   -7.9374   25.0004 C.ar    1  UNL1        0.0031
     13 C           9.0348   -7.3979   23.6310 C.ar    1  UNL1        0.0002
     14 C           8.2873   -6.1067   23.4761 C.ar    1  UNL1        0.0030
     15 C           7.8292   -5.3549   24.6907 C.ar    1  UNL1        0.0338
     16 H           5.0969   -2.4712   30.0128 H       1  UNL1        0.1233
     17 C           6.2137   -2.4452   20.4276 C.ar    1  UNL1        0.0872
     18 C           7.4792   -2.0587   21.1340 C.ar    1  UNL1        0.0076
     19 C           7.7685   -2.5982   22.5034 C.ar    1  UNL1        0.0003
     20 C           6.7924   -3.5242   23.1664 C.ar    1  UNL1        0.0029
     21 C           5.5268   -3.9108   22.4600 C.ar    1  UNL1        0.0368
     22 C           5.2374   -3.3713   21.0906 C.ar    1  UNL1        0.1380
     23 O           3.9719   -3.7578   20.3842 O.3     1  UNL1       -0.5054
     24 H           3.3621   -4.3362   20.7984 H       1  UNL1        0.2922
     25 N           5.0224   -0.7184   18.8951 N.am    1  UNL1       -0.2760
     26 C           5.9243   -1.9057   19.0582 C.2     1  UNL1        0.2520
     27 O           6.5369   -2.5537   17.8520 O.2     1  UNL1       -0.2698
     28 C           3.6987   -0.8388   16.6627 C.3     1  UNL1        0.0233
     29 C           4.7330   -0.1789   17.5257 C.3     1  UNL1        0.0938
     30 C           4.4098   -0.0704   20.1013 C.3     1  UNL1        0.0938
     31 C           2.9879   -0.3705   20.4730 C.3     1  UNL1        0.0233
@<TRIPOS>BOND
     1    28    29    1
     2    29    25    1
     3    25    30    1
     4    30    31    1
     5    25    26   am
     6    26    27    2
     7    26    17    1
     8    17    18   ar
     9    18    19   ar
    10    19    20   ar
    11    20     1    1
    12     1     2    2
    13     2     3    1
    14     3     4    1
    15     4     5    1
    16     5     6    1
    17     6     7    1
    18     7     8    1
    19     3     9    1
    20     9    10    1
    21    10    11   ar
    22    11    12   ar
    23    12    13   ar
    24    13    14   ar
    25    14    15   ar
    26    20    21   ar
    27    21    22   ar
    28    22    23    1
    29    22    17   ar
    30    15     1    1
    31     8     3    1
    32    15    10   ar
    33     6    16    1
    34    23    24    1
@<TRIPOS>MOLECULE
*****
 31 34 0 0 0
SMALL
GASTEIGER

@<TRIPOS>ATOM
      1 C           4.5141   -0.2726   33.0869 C.2     1  UNL1        0.0021
      2 C           4.6784    0.2133   34.4965 C.2     1  UNL1        0.0130
      3 C           3.7528    1.2603   35.0416 C.3     1  UNL1        0.1542
      4 C           4.8427    0.6993   35.9061 C.3     1  UNL1        0.0614
      5 C           5.0070    1.1852   37.3156 C.3     1  UNL1        0.0725
      6 N           4.0813    2.2321   37.8607 N.3     1  UNL1       -0.2972
      7 C           2.9914    2.7932   36.9963 C.3     1  UNL1        0.0725
      8 C           2.8271    2.3072   35.5867 C.3     1  UNL1        0.0614
      9 O           2.6628    1.8213   34.1771 O.3     1  UNL1       -0.4785
     10 C           2.4985    1.3354   32.7676 C.ar    1  UNL1        0.1386
     11 C           1.4085    1.8964   31.9030 C.ar    1  UNL1        0.0369
     12 C           1.2443    1.4104   30.4935 C.ar    1  UNL1        0.0031
     13 C           2.1699    0.3635   29.9484 C.ar    1  UNL1        0.0002
     14 C           3.2598   -0.1975   30.8129 C.ar    1  UNL1        0.0030
     15 C           3.4241    0.2884   32.2225 C.ar    1  UNL1        0.0338
     16 H           4.6634    3.0189   38.1483 H       1  UNL1        0.1233
     17 C           7.2909   -3.4134   31.4516 C.ar    1  UNL1        0.0872
     18 C           7.4539   -1.9803   31.0397 C.ar    1  UNL1        0.0076
     19 C           6.5282   -0.9334   31.5848 C.ar    1  UNL1        0.0003
     20 C           5.4397   -1.3195   32.5418 C.ar    1  UNL1        0.0029
     21 C           5.2767   -2.7527   32.9538 C.ar    1  UNL1        0.0368
     22 C           6.2023   -3.7996   32.4087 C.ar    1  UNL1        0.1380
     23 O           6.0394   -5.2327   32.8206 O.3     1  UNL1       -0.5054
     24 H           5.3594   -5.4739   33.4184 H       1  UNL1        0.2922
     25 N           7.8240   -5.2503   29.6934 N.am    1  UNL1       -0.2760
     26 C           8.2166   -4.4603   30.9065 C.2     1  UNL1        0.2520
     27 O           9.5348   -4.7173   31.5747 O.2     1  UNL1       -0.2698
     28 C           8.3162   -7.1556   27.9970 C.3     1  UNL1        0.0233
     29 C           8.7497   -6.2972   29.1483 C.3     1  UNL1        0.0938
     30 C           6.5058   -4.9934   29.0252 C.3     1  UNL1        0.0938
     31 C           6.4016   -3.9576   27.9453 C.3     1  UNL1        0.0233
@<TRIPOS>BOND
     1    28    29    1
     2    29    25    1
     3    25    30    1
     4    30    31    1
     5    25    26   am
     6    26    27    2
     7    26    17    1
     8    17    18   ar
     9    18    19   ar
    10    19    20   ar
    11    20     1    1
    12     1     2    2
    13     2     3    1
    14     3     4    1
    15     4     5    1
    16     5     6    1
    17     6     7    1
    18     7     8    1
    19     3     9    1
    20     9    10    1
    21    10    11   ar
    22    11    12   ar
    23    12    13   ar
    24    13    14   ar
    25    14    15   ar
    26    20    21   ar
    27    21    22   ar
    28    22    23    1
    29    22    17   ar
    30    15     1    1
    31     8     3    1
    32    15    10   ar
    33     6    16    1
    34    23    24    1
@<TRIPOS>MOLECULE
*****
 31 34 0 0 0
SMALL
GASTEIGER

@<TRIPOS>ATOM
      1 C           2.3407   -0.0445   22.4873 C.2     1  UNL1        0.0021
      2 C           3.1997   -1.2681   22.3638 C.2     1  UNL1        0.0130
      3 C           3.4792   -1.8549   21.0120 C.3     1  UNL1        0.1542
      4 C           4.0587   -2.4915   22.2403 C.3     1  UNL1        0.0614
      5 C           4.9177   -3.7149   22.1168 C.3     1  UNL1        0.0725
      6 N           5.1971   -4.3018   20.7650 N.3     1  UNL1       -0.2972
      7 C           4.6176   -3.6652   19.5366 C.3     1  UNL1        0.0725
      8 C           3.7586   -2.4418   19.6601 C.3     1  UNL1        0.0614
      9 O           2.8996   -1.2183   19.7836 O.3     1  UNL1       -0.4785
     10 C           2.0406    0.0052   19.9071 C.ar    1  UNL1        0.1386
     11 C           1.4611    0.6418   18.6787 C.ar    1  UNL1        0.0369
     12 C           0.6021    1.8653   18.8022 C.ar    1  UNL1        0.0031
     13 C           0.3226    2.4521   20.1541 C.ar    1  UNL1        0.0002
     14 C           0.9022    1.8156   21.3824 C.ar    1  UNL1        0.0030
     15 C           1.7612    0.5920   21.2590 C.ar    1  UNL1        0.0338
     16 H           4.8584   -5.2637   20.7858 H       1  UNL1        0.1233
     17 C           1.5024    1.7161   26.5429 C.ar    1  UNL1        0.0872
     18 C           2.8959    1.2947   26.1816 C.ar    1  UNL1        0.0076
     19 C           3.1754    0.7078   24.8298 C.ar    1  UNL1        0.0003
     20 C           2.0613    0.5423   23.8392 C.ar    1  UNL1        0.0029
     21 C           0.6677    0.9637   24.2004 C.ar    1  UNL1        0.0368
     22 C           0.3882    1.5506   25.5522 C.ar    1  UNL1        0.1380
     23 O          -1.0053    1.9719   25.9134 O.3     1  UNL1       -0.5054
     24 H          -1.7012    1.8685   25.2946 H       1  UNL1        0.2922
     25 N           0.6504    1.4427   28.9820 N.am    1  UNL1       -0.2760
     26 C           1.2230    2.3029   27.8947 C.2     1  UNL1        0.2520
     27 O           1.5161    3.7501   28.1593 O.2     1  UNL1       -0.2698
     28 C           1.3825    1.8954   31.4334 C.3     1  UNL1        0.0233
     29 C           0.3710    2.0296   30.3338 C.3     1  UNL1        0.0938
     30 C           0.3573   -0.0044   28.7174 C.3     1  UNL1        0.0938
     31 C          -1.0596   -0.4967   28.7275 C.3     1  UNL1        0.0233
@<TRIPOS>BOND
     1    28    29    1
     2    29    25    1
     3    25    30    1
     4    30    31    1
     5    25    26   am
     6    26    27    2
     7    26    17    1
     8    17    18   ar
     9    18    19   ar
    10    19    20   ar
    11    20     1    1
    12     1     2    2
    13     2     3    1
    14     3     4    1
    15     4     5    1
    16     5     6    1
    17     6     7    1
    18     7     8    1
    19     3     9    1
    20     9    10    1
    21    10    11   ar
    22    11    12   ar
    23    12    13   ar
    24    13    14   ar
    25    14    15   ar
    26    20    21   ar
    27    21    22   ar
    28    22    23    1
    29    22    17   ar
    30    15     1    1
    31     8     3    1
    32    15    10   ar
    33     6    16    1
    34    23    24    1
@<TRIPOS>MOLECULE
*****
 31 34 0 0 0
SMALL
GASTEIGER

@<TRIPOS>ATOM
      1 C         -14.2513   -4.9067   18.3432 C.2     1  UNL1        0.0021
      2 C         -15.2735   -5.9955   18.2030 C.2     1  UNL1        0.0130
      3 C         -14.8508   -7.4334   18.2647 C.3     1  UNL1        0.1542
      4 C         -16.2955   -7.0844   18.0627 C.3     1  UNL1        0.0614
      5 C         -17.3176   -8.1732   17.9224 C.3     1  UNL1        0.0725
      6 N         -16.8949   -9.6111   17.9842 N.3     1  UNL1       -0.2972
      7 C         -15.4502   -9.9602   18.1863 C.3     1  UNL1        0.0725
      8 C         -14.4281   -8.8713   18.3265 C.3     1  UNL1        0.0614
      9 O         -13.4060   -7.7824   18.4668 O.3     1  UNL1       -0.4785
     10 C         -12.3839   -6.6936   18.6071 C.ar    1  UNL1        0.1386
     11 C         -10.9391   -7.0426   18.8091 C.ar    1  UNL1        0.0369
     12 C          -9.9170   -5.9537   18.9494 C.ar    1  UNL1        0.0031
     13 C         -10.3397   -4.5158   18.8876 C.ar    1  UNL1        0.0002
     14 C         -11.7844   -4.1668   18.6856 C.ar    1  UNL1        0.0030
     15 C         -12.8066   -5.2557   18.5453 C.ar    1  UNL1        0.0338
     16 H         -17.1812  -10.0403   17.1043 H       1  UNL1        0.1233
     17 C         -15.5193   -0.5930   18.1579 C.ar    1  UNL1        0.0872
     18 C         -15.0658   -1.2956   16.9126 C.ar    1  UNL1        0.0076
     19 C         -14.6432   -2.7335   16.9744 C.ar    1  UNL1        0.0003
     20 C         -14.6740   -3.4688   18.2814 C.ar    1  UNL1        0.0029
     21 C         -15.1274   -2.7661   19.5268 C.ar    1  UNL1        0.0368
     22 C         -15.5501   -1.3282   19.4650 C.ar    1  UNL1        0.1380
     23 O         -16.0035   -0.6256   20.7102 O.3     1  UNL1       -0.5054
     24 H         -16.0228   -1.0849   21.5267 H       1  UNL1        0.2922
     25 N         -14.9073    1.9281   18.0178 N.am    1  UNL1       -0.2760
     26 C         -15.9419    0.8449   18.0961 C.2     1  UNL1        0.2520
     27 O         -17.3994    1.1996   18.1125 O.2     1  UNL1       -0.2698
     28 C         -15.6133    4.1195   19.2218 C.3     1  UNL1        0.0233
     29 C         -15.3299    3.3660   17.9561 C.3     1  UNL1        0.0938
     30 C         -13.4499    1.5734   18.0014 C.3     1  UNL1        0.0938
     31 C         -12.6626    1.6952   16.7304 C.3     1  UNL1        0.0233
@<TRIPOS>BOND
     1    28    29    1
     2    29    25    1
     3    25    30    1
     4    30    31    1
     5    25    26   am
     6    26    27    2
     7    26    17    1
     8    17    18   ar
     9    18    19   ar
    10    19    20   ar
    11    20     1    1
    12     1     2    2
    13     2     3    1
    14     3     4    1
    15     4     5    1
    16     5     6    1
    17     6     7    1
    18     7     8    1
    19     3     9    1
    20     9    10    1
    21    10    11   ar
    22    11    12   ar
    23    12    13   ar
    24    13    14   ar
    25    14    15   ar
    26    20    21   ar
    27    21    22   ar
    28    22    23    1
    29    22    17   ar
    30    15     1    1
    31     8     3    1
    32    15    10   ar
    33     6    16    1
    34    23    24    1
