@<TRIPOS>MOLECULE
*****
 26 29 0 0 0
SMALL
GASTEIGER

@<TRIPOS>ATOM
      1 N          -4.7218  -15.5717   24.4031 N.3     1  UNL1       -0.3227
      2 C          -5.6465  -16.5078   23.6830 C.3     1  UNL1        0.0510
      3 C          -6.1563  -17.7536   23.0209 C.3     1  UNL1        0.0654
      4 C          -7.5396  -17.7828   22.4418 C.3     1  UNL1        0.2034
      5 N          -8.4132  -16.5662   22.5246 N.pl3   1  UNL1       -0.1931
      6 C          -7.9035  -15.3205   23.1867 C.3     1  UNL1        0.2034
      7 C          -6.5201  -15.2913   23.7658 C.3     1  UNL1        0.0654
      8 H          -3.8390  -16.0457   24.5938 H       1  UNL1        0.1188
      9 H          -5.1490  -15.2817   25.2828 H       1  UNL1        0.1188
     10 C          -9.7966  -16.5955   21.9455 C.2     1  UNL1        0.3205
     11 N         -10.0707  -15.9394   20.6247 N.2     1  UNL1        0.0097
     12 C         -11.4540  -15.9687   20.0455 C.2     1  UNL1        0.4717
     13 N         -12.5634  -16.6539   20.7871 N.2     1  UNL1        0.0158
     14 C         -12.2892  -17.3099   22.1079 C.2     1  UNL1        0.3714
     15 N         -13.1753  -18.0555   23.0613 N.2     1  UNL1       -0.0339
     16 C         -12.3396  -18.4870   24.2298 C.2     1  UNL1        0.2323
     17 C         -10.9370  -18.0082   23.9985 C.2     1  UNL1        0.0486
     18 C         -10.9059  -17.2807   22.6871 C.3     1  UNL1        0.2428
     19 C          -4.4518  -17.3993   23.8502 C.3     1  UNL1        0.0408
     20 C          -3.4684  -17.5536   22.7280 C.ar    1  UNL1       -0.0208
     21 C          -2.6835  -16.3680   22.2502 C.ar    1  UNL1       -0.0034
     22 C          -1.7001  -16.5224   21.1281 C.ar    1  UNL1        0.0111
     23 C          -1.5016  -17.8624   20.4838 C.ar    1  UNL1        0.0577
     24 CL         -0.5183  -18.0168   19.3616 Cl      1  UNL1       -0.0822
     25 C          -2.2865  -19.0479   20.9616 C.ar    1  UNL1        0.0111
     26 C          -3.2699  -18.8936   22.0837 C.ar    1  UNL1       -0.0034
@<TRIPOS>BOND
     1     1     2    1
     2     2    19    1
     3    19    20    1
     4    20    21   ar
     5    21    22   ar
     6    22    23   ar
     7    23    24    1
     8    23    25   ar
     9    25    26   ar
    10     2     3    1
    11     3     4    1
    12     4     5    1
    13     5    10    1
    14    10    11    2
    15    11    12    1
    16    12    13    2
    17    13    14    1
    18    14    15    2
    19    15    16    1
    20    16    17    2
    21    17    18    1
    22     5     6    1
    23     6     7    1
    24     7     2    1
    25    26    20   ar
    26    18    10    1
    27    18    14    1
    28     1     8    1
    29     1     9    1
@<TRIPOS>MOLECULE
*****
 26 29 0 0 0
SMALL
GASTEIGER

@<TRIPOS>ATOM
      1 N          -5.4744  -14.9860   25.6974 N.3     1  UNL1       -0.3227
      2 C          -6.2273  -15.5237   24.5168 C.3     1  UNL1        0.0510
      3 C          -6.5170  -15.9725   23.1151 C.3     1  UNL1        0.0654
      4 C          -7.8791  -16.4904   22.7598 C.3     1  UNL1        0.2034
      5 N          -8.9517  -16.5596   23.8063 N.pl3   1  UNL1       -0.1931
      6 C          -8.6620  -16.1109   25.2079 C.3     1  UNL1        0.2034
      7 C          -7.2998  -15.5929   25.5631 C.3     1  UNL1        0.0654
      8 H          -4.5204  -14.7583   25.4173 H       1  UNL1        0.1188
      9 H          -5.4532  -15.6891   26.4360 H       1  UNL1        0.1188
     10 C         -10.3138  -17.0776   23.4509 C.2     1  UNL1        0.3205
     11 N         -11.0477  -17.9736   24.4042 N.2     1  UNL1        0.0097
     12 C         -12.4097  -18.4916   24.0489 C.2     1  UNL1        0.4717
     13 N         -13.0382  -18.1136   22.7403 N.2     1  UNL1        0.0158
     14 C         -12.3043  -17.2176   21.7871 C.2     1  UNL1        0.3714
     15 N         -12.6674  -16.6781   20.4354 N.2     1  UNL1       -0.0339
     16 C         -11.5296  -15.8267   19.9553 C.2     1  UNL1        0.2323
     17 C         -10.4633  -15.8400   21.0103 C.2     1  UNL1        0.0486
     18 C         -10.9422  -16.6996   22.1424 C.3     1  UNL1        0.2428
     19 C          -4.8934  -15.2678   23.8804 C.3     1  UNL1        0.0408
     20 C          -4.1509  -16.3902   23.2178 C.ar    1  UNL1       -0.0208
     21 C          -3.0153  -16.0906   22.2848 C.ar    1  UNL1       -0.0034
     22 C          -2.2729  -17.2131   21.6222 C.ar    1  UNL1        0.0111
     23 C          -2.6661  -18.6351   21.8927 C.ar    1  UNL1        0.0577
     24 CL         -1.9238  -19.7576   21.2301 Cl      1  UNL1       -0.0822
     25 C          -3.8018  -18.9347   22.8257 C.ar    1  UNL1        0.0111
     26 C          -4.5442  -17.8123   23.4882 C.ar    1  UNL1       -0.0034
@<TRIPOS>BOND
     1     1     2    1
     2     2    19    1
     3    19    20    1
     4    20    21   ar
     5    21    22   ar
     6    22    23   ar
     7    23    24    1
     8    23    25   ar
     9    25    26   ar
    10     2     3    1
    11     3     4    1
    12     4     5    1
    13     5    10    1
    14    10    11    2
    15    11    12    1
    16    12    13    2
    17    13    14    1
    18    14    15    2
    19    15    16    1
    20    16    17    2
    21    17    18    1
    22     5     6    1
    23     6     7    1
    24     7     2    1
    25    26    20   ar
    26    18    10    1
    27    18    14    1
    28     1     8    1
    29     1     9    1
@<TRIPOS>MOLECULE
*****
 26 29 0 0 0
SMALL
GASTEIGER

@<TRIPOS>ATOM
      1 N          -7.6563  -14.7805   25.6636 N.3     1  UNL1       -0.3227
      2 C          -7.4375  -15.8310   24.6155 C.3     1  UNL1        0.0510
      3 C          -7.7390  -16.8590   23.5656 C.3     1  UNL1        0.0654
      4 C          -6.6181  -17.5870   22.8849 C.3     1  UNL1        0.2034
      5 N          -5.1954  -17.2870   23.2541 N.pl3   1  UNL1       -0.1931
      6 C          -4.8938  -16.2590   24.3040 C.3     1  UNL1        0.2034
      7 C          -6.0149  -15.5310   24.9847 C.3     1  UNL1        0.0654
      8 H          -8.6568  -14.6189   25.7793 H       1  UNL1        0.1188
      9 H          -7.2029  -13.9133   25.3757 H       1  UNL1        0.1188
     10 C          -4.0745  -18.0150   22.5734 C.2     1  UNL1        0.3205
     11 N          -2.6515  -17.6351   22.8576 N.2     1  UNL1        0.0097
     12 C          -1.5306  -18.3631   22.1769 C.2     1  UNL1        0.4717
     13 N          -1.8325  -19.4711   21.2119 N.2     1  UNL1        0.0158
     14 C          -3.2555  -19.8510   20.9276 C.2     1  UNL1        0.3714
     15 N          -3.8562  -20.8930   20.0313 N.2     1  UNL1       -0.0339
     16 C          -5.3484  -20.8090   20.1581 C.2     1  UNL1        0.2323
     17 C          -5.6700  -19.7150   21.1328 C.2     1  UNL1        0.0486
     18 C          -4.3764  -19.1230   21.6084 C.3     1  UNL1        0.2428
     19 C          -8.9361  -15.7662   24.6103 C.3     1  UNL1        0.0408
     20 C          -9.7255  -16.7317   23.7768 C.ar    1  UNL1       -0.0208
     21 C         -10.1363  -18.0556   24.3498 C.ar    1  UNL1       -0.0034
     22 C         -10.9257  -19.0211   23.5164 C.ar    1  UNL1        0.0111
     23 C         -11.3044  -18.6626   22.1099 C.ar    1  UNL1        0.0577
     24 CL        -12.0938  -19.6281   21.2764 Cl      1  UNL1       -0.0822
     25 C         -10.8936  -17.3387   21.5369 C.ar    1  UNL1        0.0111
     26 C         -10.1041  -16.3732   22.3704 C.ar    1  UNL1       -0.0034
@<TRIPOS>BOND
     1     1     2    1
     2     2    19    1
     3    19    20    1
     4    20    21   ar
     5    21    22   ar
     6    22    23   ar
     7    23    24    1
     8    23    25   ar
     9    25    26   ar
    10     2     3    1
    11     3     4    1
    12     4     5    1
    13     5    10    1
    14    10    11    2
    15    11    12    1
    16    12    13    2
    17    13    14    1
    18    14    15    2
    19    15    16    1
    20    16    17    2
    21    17    18    1
    22     5     6    1
    23     6     7    1
    24     7     2    1
    25    26    20   ar
    26    18    10    1
    27    18    14    1
    28     1     8    1
    29     1     9    1
@<TRIPOS>MOLECULE
*****
 26 29 0 0 0
SMALL
GASTEIGER

@<TRIPOS>ATOM
      1 N          -0.7328    1.7704   20.8440 N.3     1  UNL1       -0.3227
      2 C           0.7666    1.7592   20.8062 C.3     1  UNL1        0.0510
      3 C           2.1872    2.1334   21.1099 C.3     1  UNL1        0.0654
      4 C           3.3143    1.4017   20.4435 C.3     1  UNL1        0.2034
      5 N           3.0210    0.2957   19.4735 N.pl3   1  UNL1       -0.1931
      6 C           1.6005   -0.0785   19.1698 C.3     1  UNL1        0.2034
      7 C           0.4734    0.6533   19.8362 C.3     1  UNL1        0.0654
      8 H          -1.0512    2.4942   21.4884 H       1  UNL1        0.1188
      9 H          -1.0718    0.8615   21.1592 H       1  UNL1        0.1188
     10 C           4.1482   -0.4360   18.8071 C.2     1  UNL1        0.3205
     11 N           5.1914    0.3269   18.0457 N.2     1  UNL1        0.0097
     12 C           6.3185   -0.4047   17.3794 C.2     1  UNL1        0.4717
     13 N           6.4026   -1.8994   17.4744 N.2     1  UNL1        0.0158
     14 C           5.3594   -2.6623   18.2357 C.2     1  UNL1        0.3714
     15 N           5.1811   -4.1281   18.5000 N.2     1  UNL1       -0.0339
     16 C           3.9436   -4.3022   19.3297 C.2     1  UNL1        0.2323
     17 C           3.3572   -2.9441   19.5782 C.2     1  UNL1        0.0486
     18 C           4.2322   -1.9306   18.9021 C.3     1  UNL1        0.2428
     19 C           0.5393    2.8690   21.7894 C.3     1  UNL1        0.0408
     20 C           0.1272    2.5517   23.1964 C.ar    1  UNL1       -0.0208
     21 C          -0.9416    3.3636   23.8660 C.ar    1  UNL1       -0.0034
     22 C          -1.3538    3.0463   25.2730 C.ar    1  UNL1        0.0111
     23 C          -0.6970    1.9171   26.0103 C.ar    1  UNL1        0.0577
     24 CL         -1.1090    1.5997   27.4172 Cl      1  UNL1       -0.0822
     25 C           0.3718    1.1052   25.3406 C.ar    1  UNL1        0.0111
     26 C           0.7839    1.4225   23.9336 C.ar    1  UNL1       -0.0034
@<TRIPOS>BOND
     1     1     2    1
     2     2    19    1
     3    19    20    1
     4    20    21   ar
     5    21    22   ar
     6    22    23   ar
     7    23    24    1
     8    23    25   ar
     9    25    26   ar
    10     2     3    1
    11     3     4    1
    12     4     5    1
    13     5    10    1
    14    10    11    2
    15    11    12    1
    16    12    13    2
    17    13    14    1
    18    14    15    2
    19    15    16    1
    20    16    17    2
    21    17    18    1
    22     5     6    1
    23     6     7    1
    24     7     2    1
    25    26    20   ar
    26    18    10    1
    27    18    14    1
    28     1     8    1
    29     1     9    1
