@<TRIPOS>MOLECULE
*****
 27 29 0 0 0
SMALL
GASTEIGER

@<TRIPOS>ATOM
      1 C          -5.9731  -20.9914   20.1448 C.3     1  UNL1        0.0991
      2 C          -2.2112  -18.5257   20.0066 C.ar    1  UNL1        0.1385
      3 C          -2.2608  -19.7723   20.8394 C.ar    1  UNL1        0.0366
      4 C          -3.5147  -20.5942   20.8854 C.ar    1  UNL1        0.0002
      5 C          -4.7191  -20.1695   20.0987 C.ar    1  UNL1       -0.0059
      6 C          -4.6696  -18.9229   19.2660 C.ar    1  UNL1        0.0002
      7 C          -3.4157  -18.1010   19.2199 C.ar    1  UNL1        0.0366
      8 O          -0.9573  -17.7038   19.9606 O.3     1  UNL1       -0.4754
      9 C          -0.7982  -16.5265   20.8763 C.3     1  UNL1        0.2068
     10 C          -1.9821  -15.9971   21.6300 C.3     1  UNL1        0.0646
     11 C          -2.5357  -16.7661   22.7929 C.3     1  UNL1        0.0760
     12 C          -4.8308  -17.9759   22.9311 C.3     1  UNL1        0.0897
     13 N          -4.0071  -16.7315   23.0827 N.3     1  UNL1       -0.2702
     14 C          -4.6547  -15.4525   23.5241 C.3     1  UNL1        0.0897
     15 N          -7.3127  -20.3200   20.0784 N.3     1  UNL1       -0.2690
     16 C          -7.7540  -19.4148   21.1902 C.3     1  UNL1        0.0724
     17 C          -9.0936  -18.7434   21.1238 C.3     1  UNL1        0.0178
     18 C          -9.9921  -18.9771   19.9456 C.3     1  UNL1        0.0087
     19 C          -9.5510  -19.8823   18.8339 C.3     1  UNL1        0.0178
     20 C          -8.2112  -20.5538   18.9002 C.3     1  UNL1        0.0724
     21 C         -11.3319  -18.3057   19.8792 C.3     1  UNL1        0.0453
     22 C         -11.8984  -17.6401   21.0982 C.ar    1  UNL1        0.0541
     23 C         -11.9625  -16.1621   21.3463 C.ar    1  UNL1        0.1131
     24 N         -12.6040  -15.9441   22.6845 N.ar    1  UNL1       -0.2229
     25 C         -12.9365  -17.2874   23.2636 C.ar    1  UNL1        0.1748
     26 N         -12.5004  -18.3355   22.2831 N.ar    1  UNL1       -0.3382
     27 H         -12.5930  -19.3090   22.3973 H       1  UNL1        0.1672
@<TRIPOS>BOND
     1    12    13    1
     2    13    14    1
     3    13    11    1
     4    11    10    1
     5    10     9    1
     6     9     8    1
     7     8     2    1
     8     2     3   ar
     9     3     4   ar
    10     4     5   ar
    11     5     1    1
    12     1    15    1
    13    15    16    1
    14    16    17    1
    15    17    18    1
    16    18    21    1
    17    21    22    1
    18    22    23   ar
    19    23    24   ar
    20    24    25   ar
    21    25    26   ar
    22    18    19    1
    23    19    20    1
    24     5     6   ar
    25     6     7   ar
    26     7     2   ar
    27    20    15    1
    28    26    22   ar
    29    26    27    1
@<TRIPOS>MOLECULE
*****
 27 29 0 0 0
SMALL
GASTEIGER

@<TRIPOS>ATOM
      1 C          -5.6369  -21.0643   20.1457 C.3     1  UNL1        0.0991
      2 C          -2.0027  -18.4115   20.0707 C.ar    1  UNL1        0.1385
      3 C          -3.2076  -18.0562   19.2511 C.ar    1  UNL1        0.0366
      4 C          -4.4190  -18.9405   19.2761 C.ar    1  UNL1        0.0002
      5 C          -4.4255  -20.1800   20.1207 C.ar    1  UNL1       -0.0059
      6 C          -3.2205  -20.5353   20.9403 C.ar    1  UNL1        0.0002
      7 C          -2.0091  -19.6511   20.9153 C.ar    1  UNL1        0.0366
      8 O          -0.7913  -17.5273   20.0457 O.3     1  UNL1       -0.4754
      9 C          -0.7594  -16.2754   20.8714 C.3     1  UNL1        0.2068
     10 C          -1.9747  -15.8549   21.6434 C.3     1  UNL1        0.0646
     11 C          -2.4903  -16.7163   22.7580 C.3     1  UNL1        0.0760
     12 C          -4.6392  -15.4702   23.5193 C.3     1  UNL1        0.0897
     13 N          -3.9556  -16.7305   23.0786 N.3     1  UNL1       -0.2702
     14 C          -4.7373  -18.0051   22.9584 C.3     1  UNL1        0.0897
     15 N          -6.9590  -20.5127   20.5904 N.3     1  UNL1       -0.2690
     16 C          -8.0130  -20.1816   19.5758 C.3     1  UNL1        0.0724
     17 C          -9.3351  -19.6300   20.0204 C.3     1  UNL1        0.0178
     18 C          -9.6033  -19.4096   21.4797 C.3     1  UNL1        0.0087
     19 C          -8.5493  -19.7407   22.4943 C.3     1  UNL1        0.0178
     20 C          -7.2271  -20.2922   22.0497 C.3     1  UNL1        0.0724
     21 C         -10.9255  -18.8580   21.9244 C.3     1  UNL1        0.0453
     22 C         -11.5410  -17.7030   21.1915 C.ar    1  UNL1        0.0541
     23 C         -11.2467  -17.2984   19.7775 C.ar    1  UNL1        0.1131
     24 N         -12.0826  -16.0951   19.4561 N.ar    1  UNL1       -0.2229
     25 C         -12.8936  -15.7560   20.6716 C.ar    1  UNL1        0.1748
     26 N         -12.5588  -16.7498   21.7441 N.ar    1  UNL1       -0.3382
     27 H         -12.9402  -16.7724   22.6515 H       1  UNL1        0.1672
@<TRIPOS>BOND
     1    12    13    1
     2    13    14    1
     3    13    11    1
     4    11    10    1
     5    10     9    1
     6     9     8    1
     7     8     2    1
     8     2     3   ar
     9     3     4   ar
    10     4     5   ar
    11     5     1    1
    12     1    15    1
    13    15    16    1
    14    16    17    1
    15    17    18    1
    16    18    21    1
    17    21    22    1
    18    22    23   ar
    19    23    24   ar
    20    24    25   ar
    21    25    26   ar
    22    18    19    1
    23    19    20    1
    24     5     6   ar
    25     6     7   ar
    26     7     2   ar
    27    20    15    1
    28    26    22   ar
    29    26    27    1
@<TRIPOS>MOLECULE
*****
 27 29 0 0 0
SMALL
GASTEIGER

@<TRIPOS>ATOM
      1 C           8.5642   -5.1654   22.9122 C.3     1  UNL1        0.0991
      2 C           8.2512   -6.8428   27.0761 C.ar    1  UNL1        0.1385
      3 C           7.9619   -7.7167   25.8918 C.ar    1  UNL1        0.0366
      4 C           8.0662   -7.1576   24.5039 C.ar    1  UNL1        0.0002
      5 C           8.4599   -5.7246   24.3002 C.ar    1  UNL1       -0.0059
      6 C           8.7492   -4.8507   25.4845 C.ar    1  UNL1        0.0002
      7 C           8.6449   -5.4098   26.8725 C.ar    1  UNL1        0.0366
      8 O           8.1469   -7.4020   28.4641 O.3     1  UNL1       -0.4754
      9 C           9.0595   -6.9022   29.5446 C.3     1  UNL1        0.2068
     10 C           8.4887   -6.2194   30.7520 C.3     1  UNL1        0.0646
     11 C           7.0607   -5.7601   30.7490 C.3     1  UNL1        0.0760
     12 C           6.4437   -3.6327   32.1067 C.3     1  UNL1        0.0897
     13 N           6.7441   -4.2946   30.7946 N.3     1  UNL1       -0.2702
     14 C           6.7279   -3.4910   29.5281 C.3     1  UNL1        0.0897
     15 N           7.3671   -4.5330   22.2665 N.3     1  UNL1       -0.2690
     16 C           7.3773   -4.2362   20.7961 C.3     1  UNL1        0.0724
     17 C           6.1802   -3.6038   20.1504 C.3     1  UNL1        0.0178
     18 C           4.9729   -3.2681   20.9749 C.3     1  UNL1        0.0087
     19 C           4.9628   -3.5649   22.4452 C.3     1  UNL1        0.0178
     20 C           6.1599   -4.1973   23.0910 C.3     1  UNL1        0.0724
     21 C           3.7758   -2.6357   20.3291 C.3     1  UNL1        0.0453
     22 C           3.9578   -1.6674   19.1980 C.ar    1  UNL1        0.0541
     23 C           4.1867   -0.1909   19.3296 C.ar    1  UNL1        0.1131
     24 N           4.3131    0.3834   17.9497 N.ar    1  UNL1       -0.2229
     25 C           4.1624   -0.7383   16.9652 C.ar    1  UNL1        0.1748
     26 N           3.9428   -2.0057   17.7367 N.ar    1  UNL1       -0.3382
     27 H           3.8118   -2.9023   17.3516 H       1  UNL1        0.1672
@<TRIPOS>BOND
     1    12    13    1
     2    13    14    1
     3    13    11    1
     4    11    10    1
     5    10     9    1
     6     9     8    1
     7     8     2    1
     8     2     3   ar
     9     3     4   ar
    10     4     5   ar
    11     5     1    1
    12     1    15    1
    13    15    16    1
    14    16    17    1
    15    17    18    1
    16    18    21    1
    17    21    22    1
    18    22    23   ar
    19    23    24   ar
    20    24    25   ar
    21    25    26   ar
    22    18    19    1
    23    19    20    1
    24     5     6   ar
    25     6     7   ar
    26     7     2   ar
    27    20    15    1
    28    26    22   ar
    29    26    27    1
@<TRIPOS>MOLECULE
*****
 27 29 0 0 0
SMALL
GASTEIGER

@<TRIPOS>ATOM
      1 C           8.9362   -3.7252   21.4219 C.3     1  UNL1        0.0991
      2 C           5.8262   -2.5822   18.3770 C.ar    1  UNL1        0.1385
      3 C           7.2112   -2.0138   18.2842 C.ar    1  UNL1        0.0366
      4 C           8.2479   -2.3948   19.2992 C.ar    1  UNL1        0.0002
      5 C           7.8995   -3.3442   20.4070 C.ar    1  UNL1       -0.0059
      6 C           6.5145   -3.9126   20.4997 C.ar    1  UNL1        0.0002
      7 C           5.4779   -3.5316   19.4848 C.ar    1  UNL1        0.0366
      8 O           4.7896   -2.2012   17.3620 O.3     1  UNL1       -0.4754
      9 C           4.4077   -0.7616   17.1840 C.3     1  UNL1        0.2068
     10 C           3.2828   -0.1792   17.9873 C.3     1  UNL1        0.0646
     11 C           3.4657    0.0848   19.4525 C.3     1  UNL1        0.0760
     12 C           1.0888   -0.6451   20.2060 C.3     1  UNL1        0.0897
     13 N           2.5670   -0.5806   20.4524 N.3     1  UNL1       -0.2702
     14 C           3.1466   -1.1814   21.6987 C.3     1  UNL1        0.0897
     15 N           8.6001   -4.7068   22.5051 N.3     1  UNL1       -0.2690
     16 C           8.9706   -6.1520   22.3490 C.3     1  UNL1        0.0724
     17 C           8.6345   -7.1337   23.4322 C.3     1  UNL1        0.0178
     18 C           7.9279   -6.6703   24.6715 C.3     1  UNL1        0.0087
     19 C           7.5574   -5.2252   24.8277 C.3     1  UNL1        0.0178
     20 C           7.8935   -4.2434   23.7444 C.3     1  UNL1        0.0724
     21 C           7.5918   -7.6520   25.7547 C.3     1  UNL1        0.0453
     22 C           7.9657   -7.3567   27.1770 C.ar    1  UNL1        0.0541
     23 C           9.1911   -7.8505   27.8872 C.ar    1  UNL1        0.1131
     24 N           9.1626   -7.3147   29.2880 N.ar    1  UNL1       -0.2229
     25 C           7.9195   -6.4897   29.4435 C.ar    1  UNL1        0.1748
     26 N           7.1798   -6.5156   28.1388 N.ar    1  UNL1       -0.3382
     27 H           6.3280   -6.0606   27.9474 H       1  UNL1        0.1672
@<TRIPOS>BOND
     1    12    13    1
     2    13    14    1
     3    13    11    1
     4    11    10    1
     5    10     9    1
     6     9     8    1
     7     8     2    1
     8     2     3   ar
     9     3     4   ar
    10     4     5   ar
    11     5     1    1
    12     1    15    1
    13    15    16    1
    14    16    17    1
    15    17    18    1
    16    18    21    1
    17    21    22    1
    18    22    23   ar
    19    23    24   ar
    20    24    25   ar
    21    25    26   ar
    22    18    19    1
    23    19    20    1
    24     5     6   ar
    25     6     7   ar
    26     7     2   ar
    27    20    15    1
    28    26    22   ar
    29    26    27    1
@<TRIPOS>MOLECULE
*****
 27 29 0 0 0
SMALL
GASTEIGER

@<TRIPOS>ATOM
      1 C           8.0253   -3.9486   23.9860 C.3     1  UNL1        0.0991
      2 C           6.8661   -5.2461   28.1360 C.ar    1  UNL1        0.1385
      3 C           6.9333   -6.2534   27.0266 C.ar    1  UNL1        0.0366
      4 C           7.3197   -5.8209   25.6433 C.ar    1  UNL1        0.0002
      5 C           7.6389   -4.3811   25.3693 C.ar    1  UNL1       -0.0059
      6 C           7.5716   -3.3738   26.4787 C.ar    1  UNL1        0.0002
      7 C           7.1852   -3.8063   27.8620 C.ar    1  UNL1        0.0366
      8 O           6.4797   -5.6786   29.5193 O.3     1  UNL1       -0.4754
      9 C           7.4035   -5.4184   30.6720 C.3     1  UNL1        0.2068
     10 C           6.9616   -4.5384   31.8035 C.3     1  UNL1        0.0646
     11 C           6.2799   -3.2334   31.5166 C.3     1  UNL1        0.0760
     12 C           6.8156   -1.2923   33.1583 C.3     1  UNL1        0.0897
     13 N           5.8688   -2.3375   32.6473 N.3     1  UNL1       -0.2702
     14 C           4.5109   -2.4868   33.2669 C.3     1  UNL1        0.0897
     15 N           6.9846   -3.8610   22.9094 N.3     1  UNL1       -0.2690
     16 C           5.5511   -3.6068   23.2708 C.3     1  UNL1        0.0724
     17 C           4.5103   -3.5193   22.1942 C.3     1  UNL1        0.0178
     18 C           4.9029   -3.6859   20.7562 C.3     1  UNL1        0.0087
     19 C           6.3363   -3.9401   20.3947 C.3     1  UNL1        0.0178
     20 C           7.3772   -4.0277   21.4713 C.3     1  UNL1        0.0724
     21 C           3.8621   -3.5984   19.6795 C.3     1  UNL1        0.0453
     22 C           3.7326   -2.3478   18.8615 C.ar    1  UNL1        0.0541
     23 C           3.0875   -1.0679   19.3037 C.ar    1  UNL1        0.1131
     24 N           3.1816   -0.0866   18.1732 N.ar    1  UNL1       -0.2229
     25 C           3.8849   -0.7600   17.0321 C.ar    1  UNL1        0.1748
     26 N           4.2254   -2.1575   17.4576 N.ar    1  UNL1       -0.3382
     27 H           4.6907   -2.8316   16.9113 H       1  UNL1        0.1672
@<TRIPOS>BOND
     1    12    13    1
     2    13    14    1
     3    13    11    1
     4    11    10    1
     5    10     9    1
     6     9     8    1
     7     8     2    1
     8     2     3   ar
     9     3     4   ar
    10     4     5   ar
    11     5     1    1
    12     1    15    1
    13    15    16    1
    14    16    17    1
    15    17    18    1
    16    18    21    1
    17    21    22    1
    18    22    23   ar
    19    23    24   ar
    20    24    25   ar
    21    25    26   ar
    22    18    19    1
    23    19    20    1
    24     5     6   ar
    25     6     7   ar
    26     7     2   ar
    27    20    15    1
    28    26    22   ar
    29    26    27    1
@<TRIPOS>MOLECULE
*****
 27 29 0 0 0
SMALL
GASTEIGER

@<TRIPOS>ATOM
      1 C          -0.6860    3.5979   19.7822 C.3     1  UNL1        0.0991
      2 C           1.6047   -0.2749   19.8444 C.ar    1  UNL1        0.1385
      3 C           0.9480    0.2282   21.0955 C.ar    1  UNL1        0.0366
      4 C           0.1844    1.5191   21.0748 C.ar    1  UNL1        0.0002
      5 C           0.0776    2.3070   19.8029 C.ar    1  UNL1       -0.0059
      6 C           0.7344    1.8039   18.5517 C.ar    1  UNL1        0.0002
      7 C           1.4980    0.5130   18.5725 C.ar    1  UNL1        0.0366
      8 O           2.3683   -1.5658   19.8651 O.3     1  UNL1       -0.4754
      9 C           3.6177   -1.7114   19.0480 C.3     1  UNL1        0.2068
     10 C           4.2087   -3.0706   18.8169 C.3     1  UNL1        0.0646
     11 C           4.2343   -4.0763   19.9295 C.3     1  UNL1        0.0760
     12 C           4.6437   -3.6667   22.4622 C.3     1  UNL1        0.0897
     13 N           5.1796   -3.8976   21.0804 N.3     1  UNL1       -0.2702
     14 C           6.6608   -3.9498   20.8494 C.3     1  UNL1        0.0897
     15 N          -2.1670    3.5896   19.5447 N.3     1  UNL1       -0.2690
     16 C          -2.7105    3.9173   18.1855 C.3     1  UNL1        0.0724
     17 C          -4.1915    3.9090   17.9479 C.3     1  UNL1        0.0178
     18 C          -5.1291    3.5729   19.0695 C.3     1  UNL1        0.0087
     19 C          -4.5857    3.2452   20.4287 C.3     1  UNL1        0.0178
     20 C          -3.1046    3.2535   20.6662 C.3     1  UNL1        0.0724
     21 C          -6.6102    3.5646   18.8320 C.3     1  UNL1        0.0453
     22 C          -7.4214    4.7952   19.1104 C.ar    1  UNL1        0.0541
     23 C          -7.3500    5.6364   20.3502 C.ar    1  UNL1        0.1131
     24 N          -8.3308    6.7617   20.2039 N.ar    1  UNL1       -0.2229
     25 C          -9.0085    6.6161   18.8736 C.ar    1  UNL1        0.1748
     26 N          -8.4464    5.4007   18.1978 N.ar    1  UNL1       -0.3382
     27 H          -8.7048    5.0601   17.3110 H       1  UNL1        0.1672
@<TRIPOS>BOND
     1    12    13    1
     2    13    14    1
     3    13    11    1
     4    11    10    1
     5    10     9    1
     6     9     8    1
     7     8     2    1
     8     2     3   ar
     9     3     4   ar
    10     4     5   ar
    11     5     1    1
    12     1    15    1
    13    15    16    1
    14    16    17    1
    15    17    18    1
    16    18    21    1
    17    21    22    1
    18    22    23   ar
    19    23    24   ar
    20    24    25   ar
    21    25    26   ar
    22    18    19    1
    23    19    20    1
    24     5     6   ar
    25     6     7   ar
    26     7     2   ar
    27    20    15    1
    28    26    22   ar
    29    26    27    1
@<TRIPOS>MOLECULE
*****
 27 29 0 0 0
SMALL
GASTEIGER

@<TRIPOS>ATOM
      1 C           0.4402    2.7641   22.0808 C.3     1  UNL1        0.0991
      2 C          -0.7643    1.8314   26.3151 C.ar    1  UNL1        0.1385
      3 C          -1.4820    2.9036   25.5500 C.ar    1  UNL1        0.0366
      4 C          -1.0805    3.2145   24.1386 C.ar    1  UNL1        0.0002
      5 C           0.0387    2.4532   23.4922 C.ar    1  UNL1       -0.0059
      6 C           0.7564    1.3811   24.2573 C.ar    1  UNL1        0.0002
      7 C           0.3549    1.0702   25.6687 C.ar    1  UNL1        0.0366
      8 O          -1.1658    1.5205   27.7265 O.3     1  UNL1       -0.4754
      9 C          -0.1149    1.2862   28.7709 C.3     1  UNL1        0.2068
     10 C           0.3667   -0.1065   29.0510 C.3     1  UNL1        0.0646
     11 C           1.8121   -0.3505   29.3692 C.3     1  UNL1        0.0760
     12 C           3.3367   -1.2334   27.4597 C.3     1  UNL1        0.0897
     13 N           2.8615   -0.1048   28.3260 N.3     1  UNL1       -0.2702
     14 C           3.4358    1.2696   28.1490 C.3     1  UNL1        0.0897
     15 N           1.1876    1.7457   21.2720 N.3     1  UNL1       -0.2690
     16 C           2.6660    1.8913   21.0639 C.3     1  UNL1        0.0724
     17 C           3.4134    0.8728   20.2552 C.3     1  UNL1        0.0178
     18 C           2.6825   -0.2911   19.6544 C.3     1  UNL1        0.0087
     19 C           1.2042   -0.4367   19.8624 C.3     1  UNL1        0.0178
     20 C           0.4567    0.5818   20.6712 C.3     1  UNL1        0.0724
     21 C           3.4300   -1.3096   18.8456 C.3     1  UNL1        0.0453
     22 C           3.6647   -2.6830   19.4009 C.ar    1  UNL1        0.0541
     23 C           4.2789   -3.0029   20.7315 C.ar    1  UNL1        0.1131
     24 N           4.3202   -4.4953   20.8762 N.ar    1  UNL1       -0.2229
     25 C           3.7315   -5.0979   19.6350 C.ar    1  UNL1        0.1748
     26 N           3.3264   -3.9778   18.7233 N.ar    1  UNL1       -0.3382
     27 H           2.9113   -4.0753   17.8359 H       1  UNL1        0.1672
@<TRIPOS>BOND
     1    12    13    1
     2    13    14    1
     3    13    11    1
     4    11    10    1
     5    10     9    1
     6     9     8    1
     7     8     2    1
     8     2     3   ar
     9     3     4   ar
    10     4     5   ar
    11     5     1    1
    12     1    15    1
    13    15    16    1
    14    16    17    1
    15    17    18    1
    16    18    21    1
    17    21    22    1
    18    22    23   ar
    19    23    24   ar
    20    24    25   ar
    21    25    26   ar
    22    18    19    1
    23    19    20    1
    24     5     6   ar
    25     6     7   ar
    26     7     2   ar
    27    20    15    1
    28    26    22   ar
    29    26    27    1
@<TRIPOS>MOLECULE
*****
 27 29 0 0 0
SMALL
GASTEIGER

@<TRIPOS>ATOM
      1 C           4.5168   -0.9008   32.3739 C.3     1  UNL1        0.0991
      2 C           8.1402   -3.4792   31.6864 C.ar    1  UNL1        0.1385
      3 C           8.2243   -1.9963   31.4771 C.ar    1  UNL1        0.0366
      4 C           7.0165   -1.1368   31.7063 C.ar    1  UNL1        0.0002
      5 C           5.7246   -1.7603   32.1448 C.ar    1  UNL1       -0.0059
      6 C           5.6405   -3.2432   32.3541 C.ar    1  UNL1        0.0002
      7 C           6.8483   -4.1026   32.1249 C.ar    1  UNL1        0.0366
      8 O           9.3480   -4.3387   31.4573 O.3     1  UNL1       -0.4754
      9 C           9.4835   -5.1173   30.1824 C.3     1  UNL1        0.2068
     10 C           8.7972   -6.4431   30.0368 C.3     1  UNL1        0.0646
     11 C           8.2303   -6.8524   28.7096 C.3     1  UNL1        0.0760
     12 C           6.2623   -5.1986   28.3331 C.3     1  UNL1        0.0897
     13 N           7.5279   -5.8431   27.8507 N.3     1  UNL1       -0.2702
     14 C           8.0913   -5.4781   26.5091 C.3     1  UNL1        0.0897
     15 N           4.3390   -0.1908   33.6832 N.3     1  UNL1       -0.2690
     16 C           4.9322   -0.7662   34.9350 C.3     1  UNL1        0.0724
     17 C           4.7544   -0.0561   36.2443 C.3     1  UNL1        0.0178
     18 C           3.9834    1.2292   36.3018 C.3     1  UNL1        0.0087
     19 C           3.3902    1.8046   35.0500 C.3     1  UNL1        0.0178
     20 C           3.5680    1.0946   33.7407 C.3     1  UNL1        0.0724
     21 C           3.8056    1.9393   37.6112 C.3     1  UNL1        0.0453
     22 C           2.6881    1.5467   38.5315 C.ar    1  UNL1        0.0541
     23 C           1.7724    2.4870   39.2576 C.ar    1  UNL1        0.1131
     24 N           0.8085    1.6664   40.0622 N.ar    1  UNL1       -0.2229
     25 C           1.1285    0.2189   39.8335 C.ar    1  UNL1        0.1748
     26 N           2.2902    0.1449   38.8875 N.ar    1  UNL1       -0.3382
     27 H           2.7166   -0.6790   38.5580 H       1  UNL1        0.1672
@<TRIPOS>BOND
     1    12    13    1
     2    13    14    1
     3    13    11    1
     4    11    10    1
     5    10     9    1
     6     9     8    1
     7     8     2    1
     8     2     3   ar
     9     3     4   ar
    10     4     5   ar
    11     5     1    1
    12     1    15    1
    13    15    16    1
    14    16    17    1
    15    17    18    1
    16    18    21    1
    17    21    22    1
    18    22    23   ar
    19    23    24   ar
    20    24    25   ar
    21    25    26   ar
    22    18    19    1
    23    19    20    1
    24     5     6   ar
    25     6     7   ar
    26     7     2   ar
    27    20    15    1
    28    26    22   ar
    29    26    27    1
@<TRIPOS>MOLECULE
*****
 27 29 0 0 0
SMALL
GASTEIGER

@<TRIPOS>ATOM
      1 C           0.4030    2.5362   21.6391 C.3     1  UNL1        0.0991
      2 C           2.7757   -0.6938   19.5927 C.ar    1  UNL1        0.1385
      3 C           1.3248   -0.9121   19.9043 C.ar    1  UNL1        0.0366
      4 C           0.5339    0.1645   20.5865 C.ar    1  UNL1        0.0002
      5 C           1.1939    1.4595   20.9569 C.ar    1  UNL1       -0.0059
      6 C           2.6448    1.6779   20.6453 C.ar    1  UNL1        0.0002
      7 C           3.4357    0.6012   19.9631 C.ar    1  UNL1        0.0366
      8 O           3.5666   -1.7704   18.9105 O.3     1  UNL1       -0.4754
      9 C           3.4909   -3.1844   19.4053 C.3     1  UNL1        0.2068
     10 C           4.4158   -3.6498   20.4907 C.3     1  UNL1        0.0646
     11 C           5.8976   -3.6642   20.2582 C.3     1  UNL1        0.0760
     12 C           7.3562   -2.2042   18.6800 C.3     1  UNL1        0.0897
     13 N           6.6252   -2.3828   19.9775 N.3     1  UNL1       -0.2702
     14 C           6.6217   -1.2801   20.9944 C.3     1  UNL1        0.0897
     15 N           0.0148    2.3831   23.0798 N.3     1  UNL1       -0.2690
     16 C          -1.0861    3.2251   23.6535 C.3     1  UNL1        0.0724
     17 C          -1.4743    3.0720   25.0943 C.3     1  UNL1        0.0178
     18 C          -0.7617    2.0769   25.9614 C.3     1  UNL1        0.0087
     19 C           0.3392    1.2349   25.3878 C.3     1  UNL1        0.0178
     20 C           0.7275    1.3880   23.9470 C.3     1  UNL1        0.0724
     21 C          -1.1499    1.9239   27.4022 C.3     1  UNL1        0.0453
     22 C          -0.1753    1.3443   28.3841 C.ar    1  UNL1        0.0541
     23 C          -0.1388   -0.0797   28.8542 C.ar    1  UNL1        0.1131
     24 N           0.9930   -0.2172   29.8289 N.ar    1  UNL1       -0.2229
     25 C           1.6560    1.1218   29.9613 C.ar    1  UNL1        0.1748
     26 N           0.9339    2.0868   29.0684 N.ar    1  UNL1       -0.3382
     27 H           1.1501    3.0402   28.9519 H       1  UNL1        0.1672
@<TRIPOS>BOND
     1    12    13    1
     2    13    14    1
     3    13    11    1
     4    11    10    1
     5    10     9    1
     6     9     8    1
     7     8     2    1
     8     2     3   ar
     9     3     4   ar
    10     4     5   ar
    11     5     1    1
    12     1    15    1
    13    15    16    1
    14    16    17    1
    15    17    18    1
    16    18    21    1
    17    21    22    1
    18    22    23   ar
    19    23    24   ar
    20    24    25   ar
    21    25    26   ar
    22    18    19    1
    23    19    20    1
    24     5     6   ar
    25     6     7   ar
    26     7     2   ar
    27    20    15    1
    28    26    22   ar
    29    26    27    1
