@<TRIPOS>MOLECULE
*****
 29 32 0 0 0
SMALL
GASTEIGER

@<TRIPOS>ATOM
      1 C          -7.3647  -18.1647   21.2692 C.2     1  UNL1        0.2252
      2 O          -8.7824  -17.9315   20.8388 O.2     1  UNL1       -0.2750
      3 N          -6.7566  -17.3113   22.3426 N.am    1  UNL1       -0.3003
      4 H          -5.8260  -17.4644   22.6251 H       1  UNL1        0.1497
      5 C          -6.5547  -19.2513   20.6262 C.3     1  UNL1        0.1154
      6 C          -6.2836  -20.5121   22.1645 C.3     1  UNL1        0.0335
      7 C          -5.3152  -19.7611   21.2996 C.3     1  UNL1        0.1377
      8 C          -4.6059  -18.9035   20.2939 C.3     1  UNL1        0.0613
      9 C          -3.1303  -19.0403   20.5266 C.3     1  UNL1        0.1290
     10 C          -1.6907  -19.2752   20.8764 C.3     1  UNL1        0.0305
     11 C          -0.6080  -18.5901   20.0965 C.3     1  UNL1        0.0025
     12 C          -0.9648  -17.6701   18.9668 C.3     1  UNL1        0.0002
     13 C          -2.4043  -17.4352   18.6169 C.3     1  UNL1        0.0025
     14 C          -3.4871  -18.1203   19.3968 C.3     1  UNL1        0.0305
     15 O          -2.9277  -19.9824   21.6761 O.3     1  UNL1       -0.2256
     16 O          -4.2780  -20.4279   22.1539 O.3     1  UNL1       -0.2251
     17 C          -7.5666  -16.2248   22.9856 C.3     1  UNL1        0.1176
     18 C          -7.7737  -16.2229   24.4712 C.ar    1  UNL1        0.0108
     19 C          -6.8892  -15.3899   25.3508 C.ar    1  UNL1       -0.0014
     20 C          -7.0963  -15.3880   26.8364 C.ar    1  UNL1       -0.0002
     21 C          -8.1880  -16.2193   27.4424 C.ar    1  UNL1        0.0012
     22 C          -9.0725  -17.0523   26.5630 C.ar    1  UNL1        0.0143
     23 C          -8.8654  -17.0542   25.0773 C.ar    1  UNL1        0.0454
     24 N          -9.7499  -17.8872   24.1978 N.pl3   1  UNL1       -0.3077
     25 C         -10.9204  -17.2591   23.5009 C.3     1  UNL1        0.0908
     26 C         -11.8049  -18.0922   22.6213 C.3     1  UNL1        0.0215
     27 C         -11.5190  -19.5533   22.4387 C.3     1  UNL1        0.0035
     28 C         -10.3486  -20.1813   23.1355 C.3     1  UNL1        0.0215
     29 C          -9.4640  -19.3484   24.0150 C.3     1  UNL1        0.0908
@<TRIPOS>BOND
     1     6     7    1
     2     7     5    1
     3     5     1    1
     4     1     2    2
     5     1     3   am
     6     3    17    1
     7    17    18    1
     8    18    19   ar
     9    19    20   ar
    10    20    21   ar
    11    21    22   ar
    12    22    23   ar
    13    23    24    1
    14    24    25    1
    15    25    26    1
    16    26    27    1
    17    27    28    1
    18    28    29    1
    19     7     8    1
    20     8     9    1
    21     9    10    1
    22    10    11    1
    23    11    12    1
    24    12    13    1
    25    13    14    1
    26     9    15    1
    27    15    16    1
    28    16     7    1
    29    23    18   ar
    30    29    24    1
    31    14     9    1
    32     3     4    1
@<TRIPOS>MOLECULE
*****
 29 32 0 0 0
SMALL
GASTEIGER

@<TRIPOS>ATOM
      1 C          -7.0691  -19.6543   22.1493 C.2     1  UNL1        0.2252
      2 O          -8.1583  -19.9926   23.1234 O.2     1  UNL1       -0.2750
      3 N          -6.9705  -18.2675   21.5862 N.am    1  UNL1       -0.3003
      4 H          -6.2555  -18.0454   20.9469 H       1  UNL1        0.1497
      5 C          -6.0782  -20.7029   21.7381 C.3     1  UNL1        0.1154
      6 C          -5.9556  -21.5541   19.9243 C.3     1  UNL1        0.0335
      7 C          -5.1656  -20.4567   20.5736 C.3     1  UNL1        0.1377
      8 C          -4.5664  -19.4108   21.4663 C.3     1  UNL1        0.0613
      9 C          -3.4484  -18.7474   20.7177 C.3     1  UNL1        0.1290
     10 C          -2.3646  -18.1803   19.8497 C.3     1  UNL1        0.0305
     11 C          -1.4917  -17.0751   20.3659 C.3     1  UNL1        0.0025
     12 C          -1.7026  -16.5370   21.7501 C.3     1  UNL1        0.0002
     13 C          -2.7865  -17.1042   22.6181 C.3     1  UNL1        0.0025
     14 C          -3.6594  -18.2094   22.1019 C.3     1  UNL1        0.0305
     15 O          -3.3567  -19.3834   19.3623 O.3     1  UNL1       -0.2256
     16 O          -4.4180  -20.4398   19.2732 O.3     1  UNL1       -0.2251
     17 C          -7.9612  -17.2190   21.9974 C.3     1  UNL1        0.1176
     18 C          -7.8100  -16.5203   23.3161 C.ar    1  UNL1        0.0108
     19 C          -6.4630  -16.0254   23.7526 C.ar    1  UNL1       -0.0014
     20 C          -6.3118  -15.3267   25.0713 C.ar    1  UNL1       -0.0002
     21 C          -7.5077  -15.1230   25.9535 C.ar    1  UNL1        0.0012
     22 C          -8.8547  -15.6178   25.5170 C.ar    1  UNL1        0.0143
     23 C          -9.0059  -16.3165   24.1983 C.ar    1  UNL1        0.0454
     24 N         -10.3529  -16.8114   23.7618 N.pl3   1  UNL1       -0.3077
     25 C         -11.1752  -16.0015   22.8036 C.3     1  UNL1        0.0908
     26 C         -12.5223  -16.4964   22.3672 C.3     1  UNL1        0.0215
     27 C         -13.0471  -17.8011   22.8888 C.3     1  UNL1        0.0035
     28 C         -12.2248  -18.6110   23.8470 C.3     1  UNL1        0.0215
     29 C         -10.8778  -18.1162   24.2835 C.3     1  UNL1        0.0908
@<TRIPOS>BOND
     1     6     7    1
     2     7     5    1
     3     5     1    1
     4     1     2    2
     5     1     3   am
     6     3    17    1
     7    17    18    1
     8    18    19   ar
     9    19    20   ar
    10    20    21   ar
    11    21    22   ar
    12    22    23   ar
    13    23    24    1
    14    24    25    1
    15    25    26    1
    16    26    27    1
    17    27    28    1
    18    28    29    1
    19     7     8    1
    20     8     9    1
    21     9    10    1
    22    10    11    1
    23    11    12    1
    24    12    13    1
    25    13    14    1
    26     9    15    1
    27    15    16    1
    28    16     7    1
    29    23    18   ar
    30    29    24    1
    31    14     9    1
    32     3     4    1
@<TRIPOS>MOLECULE
*****
 29 32 0 0 0
SMALL
GASTEIGER

@<TRIPOS>ATOM
      1 C          -7.5889  -19.8003   21.9361 C.2     1  UNL1        0.2252
      2 O          -8.1850  -19.5114   20.5904 O.2     1  UNL1       -0.2750
      3 N          -8.4123  -19.6163   23.1764 N.am    1  UNL1       -0.3003
      4 H          -8.0210  -19.8059   24.0597 H       1  UNL1        0.1497
      5 C          -6.1692  -20.2732   22.0418 C.3     1  UNL1        0.1154
      6 C          -6.1167  -21.3405   20.3424 C.3     1  UNL1        0.0335
      7 C          -5.2671  -20.2112   20.8450 C.3     1  UNL1        0.1377
      8 C          -4.6061  -19.0948   21.5978 C.3     1  UNL1        0.0613
      9 C          -3.4729  -18.5788   20.7612 C.3     1  UNL1        0.1290
     10 C          -2.3802  -18.1708   19.8180 C.3     1  UNL1        0.0305
     11 C          -1.4498  -17.0535   20.1866 C.3     1  UNL1        0.0025
     12 C          -1.6120  -16.3442   21.4983 C.3     1  UNL1        0.0002
     13 C          -2.7047  -16.7521   22.4414 C.3     1  UNL1        0.0025
     14 C          -3.6351  -17.8694   22.0729 C.3     1  UNL1        0.0305
     15 O          -3.4337  -19.3763   19.4913 O.3     1  UNL1       -0.2256
     16 O          -4.5426  -20.3852   19.5431 O.3     1  UNL1       -0.2251
     17 C          -9.8318  -19.1434   23.0708 C.3     1  UNL1        0.1176
     18 C         -10.2075  -18.1229   22.0377 C.ar    1  UNL1        0.0108
     19 C         -11.1315  -18.4957   20.9164 C.ar    1  UNL1       -0.0014
     20 C         -11.5071  -17.4752   19.8832 C.ar    1  UNL1       -0.0002
     21 C         -10.9587  -16.0818   19.9714 C.ar    1  UNL1        0.0012
     22 C         -10.0348  -15.7090   21.0926 C.ar    1  UNL1        0.0143
     23 C          -9.6591  -16.7295   22.1258 C.ar    1  UNL1        0.0454
     24 N          -8.7352  -16.3567   23.2470 N.pl3   1  UNL1       -0.3077
     25 C          -9.2934  -16.0142   24.5965 C.3     1  UNL1        0.0908
     26 C          -8.3694  -15.6413   25.7178 C.3     1  UNL1        0.0215
     27 C          -6.8872  -15.6109   25.4895 C.3     1  UNL1        0.0035
     28 C          -6.3290  -15.9534   24.1401 C.3     1  UNL1        0.0215
     29 C          -7.2529  -16.3263   23.0188 C.3     1  UNL1        0.0908
@<TRIPOS>BOND
     1     6     7    1
     2     7     5    1
     3     5     1    1
     4     1     2    2
     5     1     3   am
     6     3    17    1
     7    17    18    1
     8    18    19   ar
     9    19    20   ar
    10    20    21   ar
    11    21    22   ar
    12    22    23   ar
    13    23    24    1
    14    24    25    1
    15    25    26    1
    16    26    27    1
    17    27    28    1
    18    28    29    1
    19     7     8    1
    20     8     9    1
    21     9    10    1
    22    10    11    1
    23    11    12    1
    24    12    13    1
    25    13    14    1
    26     9    15    1
    27    15    16    1
    28    16     7    1
    29    23    18   ar
    30    29    24    1
    31    14     9    1
    32     3     4    1
@<TRIPOS>MOLECULE
*****
 29 32 0 0 0
SMALL
GASTEIGER

@<TRIPOS>ATOM
      1 C          -6.8006  -19.8406   22.0914 C.2     1  UNL1        0.2252
      2 O          -7.3007  -20.9293   22.9939 O.2     1  UNL1       -0.2750
      3 N          -7.7743  -18.9966   21.3235 N.am    1  UNL1       -0.3003
      4 H          -7.4461  -18.2820   20.7311 H       1  UNL1        0.1497
      5 C          -5.3268  -19.5958   21.9568 C.3     1  UNL1        0.1154
      6 C          -6.0038  -18.1019   23.1142 C.3     1  UNL1        0.0335
      7 C          -4.7561  -18.2505   22.2950 C.3     1  UNL1        0.1377
      8 C          -3.6277  -18.6803   21.4051 C.3     1  UNL1        0.0613
      9 C          -2.6204  -17.5695   21.3645 C.3     1  UNL1        0.1290
     10 C          -1.7085  -16.3799   21.4206 C.3     1  UNL1        0.0305
     11 C          -0.4213  -16.3847   20.6504 C.3     1  UNL1        0.0025
     12 C          -0.0461  -17.5791   19.8242 C.3     1  UNL1        0.0002
     13 C          -0.9581  -18.7686   19.7680 C.3     1  UNL1        0.0025
     14 C          -2.2452  -18.7639   20.5382 C.3     1  UNL1        0.0305
     15 O          -3.1263  -16.4532   22.2294 O.3     1  UNL1       -0.2256
     16 O          -4.4463  -16.8741   22.8045 O.3     1  UNL1       -0.2251
     17 C          -9.2481  -19.2414   21.4581 C.3     1  UNL1        0.1176
     18 C         -10.2236  -18.1581   21.1050 C.ar    1  UNL1        0.0108
     19 C         -10.8063  -18.0944   19.7243 C.ar    1  UNL1       -0.0014
     20 C         -11.7819  -17.0111   19.3712 C.ar    1  UNL1       -0.0002
     21 C         -12.1748  -15.9915   20.3988 C.ar    1  UNL1        0.0012
     22 C         -11.5921  -16.0552   21.7795 C.ar    1  UNL1        0.0143
     23 C         -10.6165  -17.1385   22.1326 C.ar    1  UNL1        0.0454
     24 N         -10.0338  -17.2022   23.5133 N.pl3   1  UNL1       -0.3077
     25 C         -10.3822  -18.3434   24.4225 C.3     1  UNL1        0.0908
     26 C          -9.7994  -18.4070   25.8032 C.3     1  UNL1        0.0215
     27 C          -8.8684  -17.3296   26.2748 C.3     1  UNL1        0.0035
     28 C          -8.5201  -16.1885   25.3656 C.3     1  UNL1        0.0215
     29 C          -9.1028  -16.1248   23.9849 C.3     1  UNL1        0.0908
@<TRIPOS>BOND
     1     6     7    1
     2     7     5    1
     3     5     1    1
     4     1     2    2
     5     1     3   am
     6     3    17    1
     7    17    18    1
     8    18    19   ar
     9    19    20   ar
    10    20    21   ar
    11    21    22   ar
    12    22    23   ar
    13    23    24    1
    14    24    25    1
    15    25    26    1
    16    26    27    1
    17    27    28    1
    18    28    29    1
    19     7     8    1
    20     8     9    1
    21     9    10    1
    22    10    11    1
    23    11    12    1
    24    12    13    1
    25    13    14    1
    26     9    15    1
    27    15    16    1
    28    16     7    1
    29    23    18   ar
    30    29    24    1
    31    14     9    1
    32     3     4    1
@<TRIPOS>MOLECULE
*****
 29 32 0 0 0
SMALL
GASTEIGER

@<TRIPOS>ATOM
      1 C          -7.1320  -19.3850   20.9573 C.2     1  UNL1        0.2252
      2 O          -7.5253  -20.2200   22.1396 O.2     1  UNL1       -0.2750
      3 N          -8.1854  -18.8514   20.0322 N.am    1  UNL1       -0.3003
      4 H          -7.9273  -18.3033   19.2562 H       1  UNL1        0.1497
      5 C          -5.6853  -19.0835   20.7000 C.3     1  UNL1        0.1154
      6 C          -3.9127  -19.8797   21.2036 C.3     1  UNL1        0.0335
      7 C          -4.7578  -18.8220   21.8494 C.3     1  UNL1        0.1377
      8 C          -5.7967  -17.8189   22.2549 C.3     1  UNL1        0.0613
      9 C          -5.3347  -17.1585   23.5200 C.3     1  UNL1        0.1290
     10 C          -4.7453  -16.5896   24.7765 C.3     1  UNL1        0.0305
     11 C          -5.4789  -15.5218   25.5325 C.3     1  UNL1        0.0025
     12 C          -6.8020  -15.0229   25.0319 C.3     1  UNL1        0.0002
     13 C          -7.3914  -15.5918   23.7754 C.3     1  UNL1        0.0025
     14 C          -6.6578  -16.6596   23.0195 C.3     1  UNL1        0.0305
     15 O          -4.0101  -17.7534   23.8964 O.3     1  UNL1       -0.2256
     16 O          -3.6535  -18.7815   22.8639 O.3     1  UNL1       -0.2251
     17 C          -9.6321  -19.1529   20.2896 C.3     1  UNL1        0.1176
     18 C         -10.6179  -18.0315   20.4332 C.ar    1  UNL1        0.0108
     19 C         -11.0586  -17.2609   19.2241 C.ar    1  UNL1       -0.0014
     20 C         -12.0444  -16.1395   19.3676 C.ar    1  UNL1       -0.0002
     21 C         -12.5895  -15.7887   20.7203 C.ar    1  UNL1        0.0012
     22 C         -12.1488  -16.5592   21.9294 C.ar    1  UNL1        0.0143
     23 C         -11.1630  -17.6807   21.7859 C.ar    1  UNL1        0.0454
     24 N         -10.7223  -18.4512   22.9949 N.pl3   1  UNL1       -0.3077
     25 C         -10.8282  -19.9475   23.0105 C.3     1  UNL1        0.0908
     26 C         -10.3875  -20.7180   24.2196 C.3     1  UNL1        0.0215
     27 C          -9.8409  -19.9924   25.4132 C.3     1  UNL1        0.0035
     28 C          -9.7350  -18.4963   25.3977 C.3     1  UNL1        0.0215
     29 C         -10.1757  -17.7256   24.1886 C.3     1  UNL1        0.0908
@<TRIPOS>BOND
     1     6     7    1
     2     7     5    1
     3     5     1    1
     4     1     2    2
     5     1     3   am
     6     3    17    1
     7    17    18    1
     8    18    19   ar
     9    19    20   ar
    10    20    21   ar
    11    21    22   ar
    12    22    23   ar
    13    23    24    1
    14    24    25    1
    15    25    26    1
    16    26    27    1
    17    27    28    1
    18    28    29    1
    19     7     8    1
    20     8     9    1
    21     9    10    1
    22    10    11    1
    23    11    12    1
    24    12    13    1
    25    13    14    1
    26     9    15    1
    27    15    16    1
    28    16     7    1
    29    23    18   ar
    30    29    24    1
    31    14     9    1
    32     3     4    1
@<TRIPOS>MOLECULE
*****
 29 32 0 0 0
SMALL
GASTEIGER

@<TRIPOS>ATOM
      1 C           6.6430   -3.1759   20.3335 C.2     1  UNL1        0.2252
      2 O           7.0218   -1.8888   21.0041 O.2     1  UNL1       -0.2750
      3 N           7.3359   -4.4513   20.7122 N.am    1  UNL1       -0.3003
      4 H           7.0873   -5.2961   20.2720 H       1  UNL1        0.1497
      5 C           5.5712   -3.1877   19.2840 C.3     1  UNL1        0.1154
      6 C           6.6770   -2.3802   17.8161 C.3     1  UNL1        0.0335
      7 C           5.3598   -1.9840   18.4144 C.3     1  UNL1        0.1377
      8 C           4.0868   -1.8394   19.1945 C.3     1  UNL1        0.0613
      9 C           3.3640   -0.6291   18.6820 C.3     1  UNL1        0.1290
     10 C           2.7605    0.5998   18.0691 C.3     1  UNL1        0.0305
     11 C           1.4428    1.1160   18.5661 C.3     1  UNL1        0.0025
     12 C           0.7286    0.4034   19.6761 C.3     1  UNL1        0.0002
     13 C           1.3320   -0.8255   20.2890 C.3     1  UNL1        0.0025
     14 C           2.6497   -1.3417   19.7919 C.3     1  UNL1        0.0305
     15 O           4.1903   -0.0257   17.5851 O.3     1  UNL1       -0.2256
     16 O           5.4238   -0.8631   17.4197 O.3     1  UNL1       -0.2251
     17 C           8.4077   -4.4394   21.7616 C.3     1  UNL1        0.1176
     18 C           8.2885   -5.3264   22.9653 C.ar    1  UNL1        0.0108
     19 C           9.0110   -6.6404   23.0032 C.ar    1  UNL1       -0.0014
     20 C           8.8918   -7.5274   24.2070 C.ar    1  UNL1       -0.0002
     21 C           8.0501   -7.1004   25.3728 C.ar    1  UNL1        0.0012
     22 C           7.3276   -5.7865   25.3349 C.ar    1  UNL1        0.0143
     23 C           7.4468   -4.8994   24.1312 C.ar    1  UNL1        0.0454
     24 N           6.7243   -3.5855   24.0933 N.pl3   1  UNL1       -0.3077
     25 C           7.4140   -2.3367   24.5570 C.3     1  UNL1        0.0908
     26 C           6.6915   -1.0227   24.5192 C.3     1  UNL1        0.0215
     27 C           5.2793   -0.9575   24.0176 C.3     1  UNL1        0.0035
     28 C           4.5897   -2.2063   23.5539 C.3     1  UNL1        0.0215
     29 C           5.3121   -3.5202   23.5917 C.3     1  UNL1        0.0908
@<TRIPOS>BOND
     1     6     7    1
     2     7     5    1
     3     5     1    1
     4     1     2    2
     5     1     3   am
     6     3    17    1
     7    17    18    1
     8    18    19   ar
     9    19    20   ar
    10    20    21   ar
    11    21    22   ar
    12    22    23   ar
    13    23    24    1
    14    24    25    1
    15    25    26    1
    16    26    27    1
    17    27    28    1
    18    28    29    1
    19     7     8    1
    20     8     9    1
    21     9    10    1
    22    10    11    1
    23    11    12    1
    24    12    13    1
    25    13    14    1
    26     9    15    1
    27    15    16    1
    28    16     7    1
    29    23    18   ar
    30    29    24    1
    31    14     9    1
    32     3     4    1
@<TRIPOS>MOLECULE
*****
 29 32 0 0 0
SMALL
GASTEIGER

@<TRIPOS>ATOM
      1 C           5.2035   -2.7272   22.6994 C.2     1  UNL1        0.2252
      2 O           4.2868   -3.9142   22.6814 O.2     1  UNL1       -0.2750
      3 N           4.6606   -1.3560   22.4248 N.am    1  UNL1       -0.3003
      4 H           5.2623   -0.5769   22.4366 H       1  UNL1        0.1497
      5 C           6.6632   -2.9111   22.9921 C.3     1  UNL1        0.1154
      6 C           7.4259   -3.5992   21.2675 C.3     1  UNL1        0.0335
      7 C           7.3421   -4.2011   22.6389 C.3     1  UNL1        0.1377
      8 C           7.1164   -4.5333   24.0841 C.3     1  UNL1        0.0613
      9 C           7.6734   -5.9029   24.3374 C.3     1  UNL1        0.1290
     10 C           8.2710   -7.2749   24.4390 C.3     1  UNL1        0.0305
     11 C           8.2600   -8.0025   25.7507 C.3     1  UNL1        0.0025
     12 C           7.6513   -7.3580   26.9607 C.3     1  UNL1        0.0002
     13 C           7.0536   -5.9860   26.8591 C.3     1  UNL1        0.0025
     14 C           7.0647   -5.2585   25.5474 C.3     1  UNL1        0.0305
     15 O           8.2434   -6.4171   23.0487 O.3     1  UNL1       -0.2256
     16 O           8.0386   -5.3653   21.9989 O.3     1  UNL1       -0.2251
     17 C           3.2010   -1.1721   22.1321 C.3     1  UNL1        0.1176
     18 C           2.7665   -0.2351   21.0444 C.ar    1  UNL1        0.0108
     19 C           2.0903    1.0575   21.3937 C.ar    1  UNL1       -0.0014
     20 C           1.6558    1.9945   20.3060 C.ar    1  UNL1       -0.0002
     21 C           1.8974    1.6389   18.8689 C.ar    1  UNL1        0.0012
     22 C           2.5734    0.3464   18.5196 C.ar    1  UNL1        0.0143
     23 C           3.0080   -0.5907   19.6073 C.ar    1  UNL1        0.0454
     24 N           3.6841   -1.8832   19.2579 N.pl3   1  UNL1       -0.3077
     25 C           2.9963   -3.1877   19.5328 C.3     1  UNL1        0.0908
     26 C           3.6724   -4.4803   19.1834 C.3     1  UNL1        0.0215
     27 C           5.0363   -4.4685   18.5592 C.3     1  UNL1        0.0035
     28 C           5.7241   -3.1641   18.2844 C.3     1  UNL1        0.0215
     29 C           5.0481   -1.8715   18.6337 C.3     1  UNL1        0.0908
@<TRIPOS>BOND
     1     6     7    1
     2     7     5    1
     3     5     1    1
     4     1     2    2
     5     1     3   am
     6     3    17    1
     7    17    18    1
     8    18    19   ar
     9    19    20   ar
    10    20    21   ar
    11    21    22   ar
    12    22    23   ar
    13    23    24    1
    14    24    25    1
    15    25    26    1
    16    26    27    1
    17    27    28    1
    18    28    29    1
    19     7     8    1
    20     8     9    1
    21     9    10    1
    22    10    11    1
    23    11    12    1
    24    12    13    1
    25    13    14    1
    26     9    15    1
    27    15    16    1
    28    16     7    1
    29    23    18   ar
    30    29    24    1
    31    14     9    1
    32     3     4    1
@<TRIPOS>MOLECULE
*****
 29 32 0 0 0
SMALL
GASTEIGER

@<TRIPOS>ATOM
      1 C           5.3078   -2.6097   17.9241 C.2     1  UNL1        0.2252
      2 O           6.4463   -1.8554   17.3040 O.2     1  UNL1       -0.2750
      3 N           3.9202   -2.0413   17.8824 N.am    1  UNL1       -0.3003
      4 H           3.1729   -2.5365   18.2894 H       1  UNL1        0.1497
      5 C           5.5567   -3.9326   18.5862 C.3     1  UNL1        0.1154
      6 C           3.9562   -5.0635   19.0211 C.3     1  UNL1        0.0335
      7 C           4.8821   -4.2598   19.8853 C.3     1  UNL1        0.1377
      8 C           5.9490   -3.3877   20.4778 C.3     1  UNL1        0.0613
      9 C           5.7403   -3.3439   21.9627 C.3     1  UNL1        0.1290
     10 C           5.4083   -3.3947   23.4246 C.3     1  UNL1        0.0305
     11 C           6.2481   -2.6386   24.4110 C.3     1  UNL1        0.0025
     12 C           7.4198   -1.8317   23.9356 C.3     1  UNL1        0.0002
     13 C           7.7518   -1.7809   22.4737 C.3     1  UNL1        0.0025
     14 C           6.9120   -2.5370   21.4872 C.3     1  UNL1        0.0305
     15 O           4.5444   -4.1889   22.2877 O.3     1  UNL1       -0.2256
     16 O           4.0139   -4.7550   21.0038 O.3     1  UNL1       -0.2251
     17 C           3.6713   -0.7185   17.2204 C.3     1  UNL1        0.1176
     18 C           3.0963    0.4193   18.0108 C.ar    1  UNL1        0.0108
     19 C           1.6095    0.5580   18.1530 C.ar    1  UNL1       -0.0014
     20 C           1.0346    1.6958   18.9434 C.ar    1  UNL1       -0.0002
     21 C           1.9464    2.6949   19.5917 C.ar    1  UNL1        0.0012
     22 C           3.4331    2.5562   19.4496 C.ar    1  UNL1        0.0143
     23 C           4.0082    1.4184   18.6591 C.ar    1  UNL1        0.0454
     24 N           5.4949    1.2797   18.5170 N.pl3   1  UNL1       -0.3077
     25 C           6.1783    1.7679   17.2741 C.3     1  UNL1        0.0908
     26 C           7.6651    1.6292   17.1320 C.3     1  UNL1        0.0215
     27 C           8.4685    1.0024   18.2327 C.3     1  UNL1        0.0035
     28 C           7.7851    0.5143   19.4755 C.3     1  UNL1        0.0215
     29 C           6.2984    0.6529   19.6177 C.3     1  UNL1        0.0908
@<TRIPOS>BOND
     1     6     7    1
     2     7     5    1
     3     5     1    1
     4     1     2    2
     5     1     3   am
     6     3    17    1
     7    17    18    1
     8    18    19   ar
     9    19    20   ar
    10    20    21   ar
    11    21    22   ar
    12    22    23   ar
    13    23    24    1
    14    24    25    1
    15    25    26    1
    16    26    27    1
    17    27    28    1
    18    28    29    1
    19     7     8    1
    20     8     9    1
    21     9    10    1
    22    10    11    1
    23    11    12    1
    24    12    13    1
    25    13    14    1
    26     9    15    1
    27    15    16    1
    28    16     7    1
    29    23    18   ar
    30    29    24    1
    31    14     9    1
    32     3     4    1
