@<TRIPOS>MOLECULE
*****
 33 37 0 0 0
SMALL
GASTEIGER

@<TRIPOS>ATOM
      1 N         -16.3015   -1.1276   18.0161 N.3     1  UNL1       -0.2726
      2 C         -17.1894   -0.2556   18.8536 C.3     1  UNL1        0.0721
      3 C         -17.9848   -1.1431   19.7645 C.3     1  UNL1        0.0190
      4 C         -17.5885   -2.5635   19.4899 C.3     1  UNL1        0.0201
      5 C         -18.5069   -3.1811   20.5024 C.3     1  UNL1        0.0061
      6 C         -17.6191   -4.0530   19.6649 C.3     1  UNL1        0.0237
      7 C         -16.5482   -2.5539   18.4094 C.3     1  UNL1        0.0724
      8 C         -17.1241   -5.4163   19.2824 C.ar    1  UNL1       -0.0225
      9 C         -15.7268   -5.8330   19.6345 C.ar    1  UNL1       -0.0043
     10 C         -15.2318   -7.1963   19.2520 C.ar    1  UNL1        0.0035
     11 C         -16.1341   -8.1430   18.5174 C.ar    1  UNL1        0.0714
     12 C         -17.5315   -7.7263   18.1654 C.ar    1  UNL1        0.0035
     13 C         -18.0264   -6.3630   18.5479 C.ar    1  UNL1       -0.0043
     14 C         -15.6392   -9.5063   18.1349 C.3     1  UNL1        0.4186
     15 F         -15.1442  -10.8697   17.7524 F       1  UNL1       -0.1659
     16 F         -14.2557   -8.9544   17.9581 F       1  UNL1       -0.1659
     17 F         -17.0227  -10.0582   18.3117 F       1  UNL1       -0.1659
     18 C         -15.3364   -0.6560   16.9692 C.3     1  UNL1        0.0730
     19 C         -14.4928    0.5588   17.2194 C.3     1  UNL1        0.0294
     20 C         -13.4387    0.5332   18.2864 C.3     1  UNL1        0.0666
     21 S         -12.2187   -0.3225   18.1149 S.3     1  UNL1       -0.0756
     22 C         -10.4171   -2.7316   16.8501 C.3     1  UNL1        0.1340
     23 N         -11.4173   -2.8678   17.9596 N.ar    1  UNL1       -0.2872
     24 C         -12.2454   -1.7605   18.5410 C.ar    1  UNL1        0.1933
     25 N         -13.1049   -2.3435   19.6233 N.ar    1  UNL1       -0.1221
     26 N         -12.8081   -3.8112   19.7108 N.ar    1  UNL1       -0.1267
     27 C         -11.7650   -4.1353   18.6826 C.ar    1  UNL1        0.1846
     28 C         -11.1736   -5.4891   18.4230 C.ar    1  UNL1        0.1171
     29 C          -9.9187   -5.9075   19.1301 C.ar    1  UNL1        0.0223
     30 C          -9.3272   -7.2613   18.8705 C.ar    1  UNL1        0.0032
     31 C          -9.9909   -8.1967   17.9037 C.ar    1  UNL1        0.0207
     32 C         -11.2458   -7.7784   17.1966 C.ar    1  UNL1        0.0989
     33 N         -11.8372   -6.4245   17.4562 N.ar    1  UNL1       -0.2407
@<TRIPOS>BOND
     1    22    23    1
     2    23    24   ar
     3    24    21    1
     4    21    20    1
     5    20    19    1
     6    19    18    1
     7    18     1    1
     8     1     2    1
     9     2     3    1
    10     4     3    1
    11     4     5    1
    12     5     6    1
    13     6     8    1
    14     8     9   ar
    15     9    10   ar
    16    10    11   ar
    17    11    14    1
    18    14    15    1
    19    14    16    1
    20    14    17    1
    21    11    12   ar
    22    12    13   ar
    23     4     7    1
    24    24    25   ar
    25    25    26   ar
    26    26    27   ar
    27    27    28    1
    28    28    29   ar
    29    29    30   ar
    30    30    31   ar
    31    31    32   ar
    32    32    33   ar
    33    27    23   ar
    34    33    28   ar
    35     7     1    1
    36     6     4    1
    37    13     8   ar
@<TRIPOS>MOLECULE
*****
 33 37 0 0 0
SMALL
GASTEIGER

@<TRIPOS>ATOM
      1 N         -11.9411   -7.2367   17.0892 N.3     1  UNL1       -0.2726
      2 C         -10.7131   -7.9634   17.5517 C.3     1  UNL1        0.0721
      3 C          -9.8833   -7.0065   18.3552 C.3     1  UNL1        0.0190
      4 C         -10.5983   -5.6883   18.3893 C.3     1  UNL1        0.0201
      5 C          -9.5742   -4.9758   19.2220 C.3     1  UNL1        0.0061
      6 C         -10.8022   -4.2491   18.7595 C.3     1  UNL1        0.0237
      7 C         -11.8702   -5.8306   17.6068 C.3     1  UNL1        0.0724
      8 C         -11.6288   -2.9986   18.7062 C.ar    1  UNL1       -0.0225
      9 C         -12.9592   -2.9489   19.3973 C.ar    1  UNL1       -0.0043
     10 C         -13.7858   -1.6984   19.3440 C.ar    1  UNL1        0.0035
     11 C         -13.2821   -0.4976   18.5995 C.ar    1  UNL1        0.0714
     12 C         -11.9517   -0.5472   17.9084 C.ar    1  UNL1        0.0035
     13 C         -11.1251   -1.7977   17.9617 C.ar    1  UNL1       -0.0043
     14 C         -14.1087    0.7529   18.5462 C.3     1  UNL1        0.4186
     15 F         -14.9354    2.0035   18.4929 F       1  UNL1       -0.1659
     16 F         -15.0791    0.1530   19.5201 F       1  UNL1       -0.1659
     17 F         -13.1384    1.3529   17.5724 F       1  UNL1       -0.1659
     18 C         -13.0461   -7.8145   16.2555 C.3     1  UNL1        0.0730
     19 C         -14.3994   -8.0453   16.8597 C.3     1  UNL1        0.0294
     20 C         -14.5739   -9.0725   17.9388 C.3     1  UNL1        0.0666
     21 S         -15.7218   -8.9647   18.8983 S.3     1  UNL1       -0.0756
     22 C         -15.2280   -5.8623   19.7818 C.3     1  UNL1        0.1340
     23 N         -16.4809   -6.4163   19.1710 N.ar    1  UNL1       -0.2872
     24 C         -16.7079   -7.8423   18.7649 C.ar    1  UNL1        0.1933
     25 N         -18.0942   -7.9490   18.2019 N.ar    1  UNL1       -0.1221
     26 N         -18.7239   -6.5888   18.2600 N.ar    1  UNL1       -0.1267
     27 C         -17.7269   -5.6415   18.8590 C.ar    1  UNL1        0.1846
     28 C         -17.9387   -4.1768   19.1030 C.ar    1  UNL1        0.1171
     29 C         -17.2577   -3.1648   18.2300 C.ar    1  UNL1        0.0223
     30 C         -17.4695   -1.7000   18.4741 C.ar    1  UNL1        0.0032
     31 C         -18.3624   -1.2473   19.5912 C.ar    1  UNL1        0.0207
     32 C         -19.0434   -2.2593   20.4642 C.ar    1  UNL1        0.0989
     33 N         -18.8316   -3.7240   20.2201 N.ar    1  UNL1       -0.2407
@<TRIPOS>BOND
     1    22    23    1
     2    23    24   ar
     3    24    21    1
     4    21    20    1
     5    20    19    1
     6    19    18    1
     7    18     1    1
     8     1     2    1
     9     2     3    1
    10     4     3    1
    11     4     5    1
    12     5     6    1
    13     6     8    1
    14     8     9   ar
    15     9    10   ar
    16    10    11   ar
    17    11    14    1
    18    14    15    1
    19    14    16    1
    20    14    17    1
    21    11    12   ar
    22    12    13   ar
    23     4     7    1
    24    24    25   ar
    25    25    26   ar
    26    26    27   ar
    27    27    28    1
    28    28    29   ar
    29    29    30   ar
    30    30    31   ar
    31    31    32   ar
    32    32    33   ar
    33    27    23   ar
    34    33    28   ar
    35     7     1    1
    36     6     4    1
    37    13     8   ar
@<TRIPOS>MOLECULE
*****
 33 37 0 0 0
SMALL
GASTEIGER

@<TRIPOS>ATOM
      1 N         -14.5048   -0.4683   18.9385 N.3     1  UNL1       -0.2726
      2 C         -14.1806    0.9148   18.4567 C.3     1  UNL1        0.0721
      3 C         -12.8079    0.8853   17.8527 C.3     1  UNL1        0.0190
      4 C         -12.2838   -0.5159   17.9611 C.3     1  UNL1        0.0201
      5 C         -10.9629   -0.2404   17.3058 C.3     1  UNL1        0.0061
      6 C         -11.2871   -1.6235   17.7875 C.3     1  UNL1        0.0237
      7 C         -13.3325   -1.3525   18.6322 C.3     1  UNL1        0.0724
      8 C         -10.8989   -3.0614   17.9654 C.ar    1  UNL1       -0.0225
      9 C         -11.6226   -3.9157   18.9637 C.ar    1  UNL1       -0.0043
     10 C         -11.2344   -5.3536   19.1416 C.ar    1  UNL1        0.0035
     11 C         -10.1225   -5.9372   18.3212 C.ar    1  UNL1        0.0714
     12 C          -9.3988   -5.0829   17.3230 C.ar    1  UNL1        0.0035
     13 C          -9.7870   -3.6450   17.1451 C.ar    1  UNL1       -0.0043
     14 C          -9.7343   -7.3751   18.4991 C.3     1  UNL1        0.4186
     15 F          -9.3460   -8.8131   18.6770 F       1  UNL1       -0.1659
     16 F          -8.9448   -7.0108   19.7214 F       1  UNL1       -0.1659
     17 F         -10.5237   -7.7395   17.2769 F       1  UNL1       -0.1659
     18 C         -15.7778   -0.8926   19.6088 C.3     1  UNL1        0.0730
     19 C         -16.8867   -1.4964   18.7990 C.3     1  UNL1        0.0294
     20 C         -16.9566   -1.2493   17.3211 C.3     1  UNL1        0.0666
     21 S         -16.6751   -2.3658   16.3598 S.3     1  UNL1       -0.0756
     22 C         -18.5267   -4.8881   17.2867 C.3     1  UNL1        0.1340
     23 N         -17.0273   -4.8450   17.2948 N.ar    1  UNL1       -0.2872
     24 C         -16.1762   -3.6857   16.8688 C.ar    1  UNL1        0.1933
     25 N         -14.7387   -4.0778   17.0412 N.ar    1  UNL1       -0.1221
     26 N         -14.7013   -5.4796   17.5737 N.ar    1  UNL1       -0.1267
     27 C         -16.1157   -5.9538   17.7305 C.ar    1  UNL1        0.1846
     28 C         -16.5435   -7.3004   18.2345 C.ar    1  UNL1        0.1171
     29 C         -16.1429   -7.7488   19.6087 C.ar    1  UNL1        0.0223
     30 C         -16.5707   -9.0953   20.1126 C.ar    1  UNL1        0.0032
     31 C         -17.3990   -9.9933   19.2422 C.ar    1  UNL1        0.0207
     32 C         -17.7995   -9.5449   17.8680 C.ar    1  UNL1        0.0989
     33 N         -17.3717   -8.1984   17.3641 N.ar    1  UNL1       -0.2407
@<TRIPOS>BOND
     1    22    23    1
     2    23    24   ar
     3    24    21    1
     4    21    20    1
     5    20    19    1
     6    19    18    1
     7    18     1    1
     8     1     2    1
     9     2     3    1
    10     4     3    1
    11     4     5    1
    12     5     6    1
    13     6     8    1
    14     8     9   ar
    15     9    10   ar
    16    10    11   ar
    17    11    14    1
    18    14    15    1
    19    14    16    1
    20    14    17    1
    21    11    12   ar
    22    12    13   ar
    23     4     7    1
    24    24    25   ar
    25    25    26   ar
    26    26    27   ar
    27    27    28    1
    28    28    29   ar
    29    29    30   ar
    30    30    31   ar
    31    31    32   ar
    32    32    33   ar
    33    27    23   ar
    34    33    28   ar
    35     7     1    1
    36     6     4    1
    37    13     8   ar
@<TRIPOS>MOLECULE
*****
 33 37 0 0 0
SMALL
GASTEIGER

@<TRIPOS>ATOM
      1 N         -11.2527   -4.2533   18.6590 N.3     1  UNL1       -0.2726
      2 C          -9.8123   -4.6562   18.5461 C.3     1  UNL1        0.0721
      3 C          -9.7648   -6.0796   18.0751 C.3     1  UNL1        0.0190
      4 C         -11.1758   -6.5563   17.8970 C.3     1  UNL1        0.0201
      5 C         -10.8176   -7.9405   17.4435 C.3     1  UNL1        0.0061
      6 C         -12.2580   -7.5375   17.5565 C.3     1  UNL1        0.0237
      7 C         -12.0954   -5.4275   18.2579 C.3     1  UNL1        0.0724
      8 C         -13.7145   -7.8713   17.4251 C.ar    1  UNL1       -0.0225
      9 C         -14.5172   -7.2950   16.2966 C.ar    1  UNL1       -0.0043
     10 C         -15.9737   -7.6289   16.1652 C.ar    1  UNL1        0.0035
     11 C         -16.6274   -8.5390   17.1623 C.ar    1  UNL1        0.0714
     12 C         -15.8247   -9.1153   18.2908 C.ar    1  UNL1        0.0035
     13 C         -14.3682   -8.7815   18.4222 C.ar    1  UNL1       -0.0043
     14 C         -18.0838   -8.8728   17.0309 C.3     1  UNL1        0.4186
     15 F         -19.5404   -9.2067   16.8995 F       1  UNL1       -0.1659
     16 F         -17.8164  -10.2493   17.5635 F       1  UNL1       -0.1659
     17 F         -18.3513   -7.4964   16.4983 F       1  UNL1       -0.1659
     18 C         -11.7612   -2.9115   19.0964 C.3     1  UNL1        0.0730
     19 C         -11.4455   -1.6893   18.2861 C.3     1  UNL1        0.0294
     20 C         -12.2984   -0.4622   18.4162 C.3     1  UNL1        0.0666
     21 S         -13.5516   -0.3302   17.6027 S.3     1  UNL1       -0.0756
     22 C         -15.6190   -1.7291   19.7048 C.3     1  UNL1        0.1340
     23 N         -15.3514   -2.1796   18.2992 N.ar    1  UNL1       -0.2872
     24 C         -14.4012   -1.5366   17.3330 C.ar    1  UNL1        0.1933
     25 N         -14.4497   -2.3118   16.0498 N.ar    1  UNL1       -0.1221
     26 N         -15.4299   -3.4340   16.2229 N.ar    1  UNL1       -0.1267
     27 C         -15.9873   -3.3523   17.6131 C.ar    1  UNL1        0.1846
     28 C         -17.0022   -4.2804   18.2121 C.ar    1  UNL1        0.1171
     29 C         -16.5641   -5.3677   19.1479 C.ar    1  UNL1        0.0223
     30 C         -17.5790   -6.2957   19.7469 C.ar    1  UNL1        0.0032
     31 C         -19.0320   -6.1363   19.4099 C.ar    1  UNL1        0.0207
     32 C         -19.4701   -5.0490   18.4740 C.ar    1  UNL1        0.0989
     33 N         -18.4551   -4.1210   17.8751 N.ar    1  UNL1       -0.2407
@<TRIPOS>BOND
     1    22    23    1
     2    23    24   ar
     3    24    21    1
     4    21    20    1
     5    20    19    1
     6    19    18    1
     7    18     1    1
     8     1     2    1
     9     2     3    1
    10     4     3    1
    11     4     5    1
    12     5     6    1
    13     6     8    1
    14     8     9   ar
    15     9    10   ar
    16    10    11   ar
    17    11    14    1
    18    14    15    1
    19    14    16    1
    20    14    17    1
    21    11    12   ar
    22    12    13   ar
    23     4     7    1
    24    24    25   ar
    25    25    26   ar
    26    26    27   ar
    27    27    28    1
    28    28    29   ar
    29    29    30   ar
    30    30    31   ar
    31    31    32   ar
    32    32    33   ar
    33    27    23   ar
    34    33    28   ar
    35     7     1    1
    36     6     4    1
    37    13     8   ar
@<TRIPOS>MOLECULE
*****
 33 37 0 0 0
SMALL
GASTEIGER

@<TRIPOS>ATOM
      1 N           8.0335   -5.4188   22.9379 N.3     1  UNL1       -0.2726
      2 C           8.7434   -6.5368   22.2335 C.3     1  UNL1        0.0721
      3 C           9.1999   -7.5212   23.2691 C.3     1  UNL1        0.0190
      4 C           8.7722   -7.0116   24.6135 C.3     1  UNL1        0.0201
      5 C           9.3432   -8.1524   25.4025 C.3     1  UNL1        0.0061
      6 C           8.6333   -7.0345   26.1069 C.3     1  UNL1        0.0237
      7 C           8.0513   -5.7123   24.4088 C.3     1  UNL1        0.0724
      8 C           8.1432   -6.4022   27.3757 C.ar    1  UNL1       -0.0225
      9 C           6.7774   -5.7840   27.4268 C.ar    1  UNL1       -0.0043
     10 C           6.2873   -5.1517   28.6957 C.ar    1  UNL1        0.0035
     11 C           7.1630   -5.1376   29.9134 C.ar    1  UNL1        0.0714
     12 C           8.5288   -5.7557   29.8623 C.ar    1  UNL1        0.0035
     13 C           9.0189   -6.3880   28.5935 C.ar    1  UNL1       -0.0043
     14 C           6.6730   -4.5053   31.1823 C.3     1  UNL1        0.4186
     15 F           6.1829   -3.8729   32.4512 F       1  UNL1       -0.1659
     16 F           7.0390   -5.7458   31.9418 F       1  UNL1       -0.1659
     17 F           6.3070   -3.2647   30.4227 F       1  UNL1       -0.1659
     18 C           7.4144   -4.2182   22.2858 C.3     1  UNL1        0.0730
     19 C           7.5193   -4.0335   20.8009 C.3     1  UNL1        0.0294
     20 C           8.6699   -3.2664   20.2199 C.3     1  UNL1        0.0666
     21 S           8.4118   -2.0975   19.3159 S.3     1  UNL1       -0.0756
     22 C           5.9426   -0.6776   20.9085 C.3     1  UNL1        0.1340
     23 N           5.8989   -1.2063   19.5054 N.ar    1  UNL1       -0.2872
     24 C           7.0339   -1.8590   18.7734 C.ar    1  UNL1        0.1933
     25 N           6.5490   -2.2312   17.4036 N.ar    1  UNL1       -0.1221
     26 N           5.1143   -1.8086   17.2890 N.ar    1  UNL1       -0.1267
     27 C           4.7125   -1.1751   18.5880 C.ar    1  UNL1        0.1846
     28 C           3.3615   -0.6098   18.9126 C.ar    1  UNL1        0.1171
     29 C           2.5193   -1.2447   19.9791 C.ar    1  UNL1        0.0223
     30 C           1.1684   -0.6794   20.3037 C.ar    1  UNL1        0.0032
     31 C           0.6597    0.5209   19.5616 C.ar    1  UNL1        0.0207
     32 C           1.5019    1.1559   18.4951 C.ar    1  UNL1        0.0989
     33 N           2.8529    0.5905   18.1706 N.ar    1  UNL1       -0.2407
@<TRIPOS>BOND
     1    22    23    1
     2    23    24   ar
     3    24    21    1
     4    21    20    1
     5    20    19    1
     6    19    18    1
     7    18     1    1
     8     1     2    1
     9     2     3    1
    10     4     3    1
    11     4     5    1
    12     5     6    1
    13     6     8    1
    14     8     9   ar
    15     9    10   ar
    16    10    11   ar
    17    11    14    1
    18    14    15    1
    19    14    16    1
    20    14    17    1
    21    11    12   ar
    22    12    13   ar
    23     4     7    1
    24    24    25   ar
    25    25    26   ar
    26    26    27   ar
    27    27    28    1
    28    28    29   ar
    29    29    30   ar
    30    30    31   ar
    31    31    32   ar
    32    32    33   ar
    33    27    23   ar
    34    33    28   ar
    35     7     1    1
    36     6     4    1
    37    13     8   ar
@<TRIPOS>MOLECULE
*****
 33 37 0 0 0
SMALL
GASTEIGER

@<TRIPOS>ATOM
      1 N         -15.7717   -1.3283   17.2159 N.3     1  UNL1       -0.2726
      2 C         -15.6794    0.1635   17.3425 C.3     1  UNL1        0.0721
      3 C         -14.3014    0.5030   17.8282 C.3     1  UNL1        0.0190
      4 C         -13.5421   -0.7789   18.0017 C.3     1  UNL1        0.0201
      5 C         -12.2671   -0.1435   18.4715 C.3     1  UNL1        0.0061
      6 C         -12.3594   -1.6353   18.3449 C.3     1  UNL1        0.0237
      7 C         -14.4508   -1.9107   17.6233 C.3     1  UNL1        0.0724
      8 C         -11.7299   -2.9910   18.4700 C.ar    1  UNL1       -0.0225
      9 C         -12.4312   -4.0762   19.2320 C.ar    1  UNL1       -0.0043
     10 C         -11.8016   -5.4319   19.3571 C.ar    1  UNL1        0.0035
     11 C         -10.4708   -5.7025   18.7201 C.ar    1  UNL1        0.0714
     12 C          -9.7695   -4.6173   17.9581 C.ar    1  UNL1        0.0035
     13 C         -10.3991   -3.2616   17.8330 C.ar    1  UNL1       -0.0043
     14 C          -9.8413   -7.0582   18.8452 C.3     1  UNL1        0.4186
     15 F          -9.2118   -8.4141   18.9702 F       1  UNL1       -0.1659
     16 F          -8.8666   -6.5133   19.8467 F       1  UNL1       -0.1659
     17 F         -10.8160   -7.6032   17.8437 F       1  UNL1       -0.1659
     18 C         -16.9739   -2.1020   16.7617 C.3     1  UNL1        0.0730
     19 C         -18.3081   -1.8592   17.4026 C.3     1  UNL1        0.0294
     20 C         -18.3884   -1.5141   18.8602 C.3     1  UNL1        0.0666
     21 S         -17.9642   -2.5162   19.8926 S.3     1  UNL1       -0.0756
     22 C         -16.2059   -5.1439   19.0848 C.3     1  UNL1        0.1340
     23 N         -17.6609   -5.1346   19.4492 N.ar    1  UNL1       -0.2872
     24 C         -18.4691   -3.9268   19.8205 C.ar    1  UNL1        0.1933
     25 N         -19.8709   -4.3772   20.1071 N.ar    1  UNL1       -0.1221
     26 N         -19.9291   -5.8634   19.9128 N.ar    1  UNL1       -0.1267
     27 C         -18.5632   -6.3316   19.5062 C.ar    1  UNL1        0.1846
     28 C         -18.1689   -7.7480   19.2089 C.ar    1  UNL1        0.1171
     29 C         -17.1082   -8.4193   20.0299 C.ar    1  UNL1        0.0223
     30 C         -16.7139   -9.8357   19.7326 C.ar    1  UNL1        0.0032
     31 C         -17.3805  -10.5807   18.6141 C.ar    1  UNL1        0.0207
     32 C         -18.4412   -9.9094   17.7931 C.ar    1  UNL1        0.0989
     33 N         -18.8354   -8.4929   18.0905 N.ar    1  UNL1       -0.2407
@<TRIPOS>BOND
     1    22    23    1
     2    23    24   ar
     3    24    21    1
     4    21    20    1
     5    20    19    1
     6    19    18    1
     7    18     1    1
     8     1     2    1
     9     2     3    1
    10     4     3    1
    11     4     5    1
    12     5     6    1
    13     6     8    1
    14     8     9   ar
    15     9    10   ar
    16    10    11   ar
    17    11    14    1
    18    14    15    1
    19    14    16    1
    20    14    17    1
    21    11    12   ar
    22    12    13   ar
    23     4     7    1
    24    24    25   ar
    25    25    26   ar
    26    26    27   ar
    27    27    28    1
    28    28    29   ar
    29    29    30   ar
    30    30    31   ar
    31    31    32   ar
    32    32    33   ar
    33    27    23   ar
    34    33    28   ar
    35     7     1    1
    36     6     4    1
    37    13     8   ar
@<TRIPOS>MOLECULE
*****
 33 37 0 0 0
SMALL
GASTEIGER

@<TRIPOS>ATOM
      1 N           0.0220    2.1227   21.9126 N.3     1  UNL1       -0.2726
      2 C           0.1075    2.8261   23.2347 C.3     1  UNL1        0.0721
      3 C           1.1610    2.1433   24.0556 C.3     1  UNL1        0.0190
      4 C           1.7265    1.0179   23.2410 C.3     1  UNL1        0.0201
      5 C           2.7045    0.5500   24.2776 C.3     1  UNL1        0.0061
      6 C           2.6190   -0.1534   22.9555 C.3     1  UNL1        0.0237
      7 C           1.0225    1.0051   21.9165 C.3     1  UNL1        0.0724
      8 C           3.0848   -1.2358   22.0274 C.ar    1  UNL1       -0.0225
      9 C           4.0697   -2.2613   22.5055 C.ar    1  UNL1       -0.0043
     10 C           4.5355   -3.3437   21.5774 C.ar    1  UNL1        0.0035
     11 C           4.0164   -3.4006   20.1712 C.ar    1  UNL1        0.0714
     12 C           3.0315   -2.3752   19.6932 C.ar    1  UNL1        0.0035
     13 C           2.5657   -1.2928   20.6213 C.ar    1  UNL1       -0.0043
     14 C           4.4823   -4.4830   19.2431 C.3     1  UNL1        0.4186
     15 F           4.9481   -5.5655   18.3150 F       1  UNL1       -0.1659
     16 F           5.8858   -4.3070   19.7423 F       1  UNL1       -0.1659
     17 F           3.0788   -4.6591   18.7440 F       1  UNL1       -0.1659
     18 C          -0.9020    2.4749   20.7847 C.3     1  UNL1        0.0730
     19 C          -1.2342    3.9112   20.5079 C.3     1  UNL1        0.0294
     20 C          -0.7499    4.5636   19.2470 C.3     1  UNL1        0.0666
     21 S          -0.0182    3.7548   18.2173 S.3     1  UNL1       -0.0756
     22 C           1.3251    0.7813   18.2806 C.3     1  UNL1        0.1340
     23 N           2.0563    2.0825   18.4295 N.ar    1  UNL1       -0.2872
     24 C           1.4389    3.4493   18.4004 C.ar    1  UNL1        0.1933
     25 N           2.5344    4.4569   18.5865 N.ar    1  UNL1       -0.1221
     26 N           3.8289    3.7129   18.7306 N.ar    1  UNL1       -0.1267
     27 C           3.5335    2.2455   18.6336 C.ar    1  UNL1        0.1846
     28 C           4.5387    1.1358   18.7246 C.ar    1  UNL1        0.1171
     29 C           5.2863    0.9042   20.0042 C.ar    1  UNL1        0.0223
     30 C           6.2915   -0.2054   20.0953 C.ar    1  UNL1        0.0032
     31 C           6.5490   -1.0835   18.9066 C.ar    1  UNL1        0.0207
     32 C           5.8014   -0.8519   17.6270 C.ar    1  UNL1        0.0989
     33 N           4.7962    0.2578   17.5361 N.ar    1  UNL1       -0.2407
@<TRIPOS>BOND
     1    22    23    1
     2    23    24   ar
     3    24    21    1
     4    21    20    1
     5    20    19    1
     6    19    18    1
     7    18     1    1
     8     1     2    1
     9     2     3    1
    10     4     3    1
    11     4     5    1
    12     5     6    1
    13     6     8    1
    14     8     9   ar
    15     9    10   ar
    16    10    11   ar
    17    11    14    1
    18    14    15    1
    19    14    16    1
    20    14    17    1
    21    11    12   ar
    22    12    13   ar
    23     4     7    1
    24    24    25   ar
    25    25    26   ar
    26    26    27   ar
    27    27    28    1
    28    28    29   ar
    29    29    30   ar
    30    30    31   ar
    31    31    32   ar
    32    32    33   ar
    33    27    23   ar
    34    33    28   ar
    35     7     1    1
    36     6     4    1
    37    13     8   ar
@<TRIPOS>MOLECULE
*****
 33 37 0 0 0
SMALL
GASTEIGER

@<TRIPOS>ATOM
      1 N         -18.3981   -5.4956   17.8424 N.3     1  UNL1       -0.2726
      2 C         -19.6332   -5.2626   18.6610 C.3     1  UNL1        0.0721
      3 C         -19.4165   -4.0287   19.4860 C.3     1  UNL1        0.0190
      4 C         -18.0475   -3.4991   19.1771 C.3     1  UNL1        0.0201
      5 C         -18.1202   -2.3246   20.1073 C.3     1  UNL1        0.0061
      6 C         -16.8851   -2.5576   19.2886 C.3     1  UNL1        0.0237
      7 C         -17.4181   -4.4057   18.1613 C.3     1  UNL1        0.0724
      8 C         -15.5009   -2.1486   18.8803 C.ar    1  UNL1       -0.0225
      9 C         -15.2866   -1.4071   17.5941 C.ar    1  UNL1       -0.0043
     10 C         -13.9024   -0.9981   17.1858 C.ar    1  UNL1        0.0035
     11 C         -12.7325   -1.3306   18.0637 C.ar    1  UNL1        0.0714
     12 C         -12.9468   -2.0721   19.3499 C.ar    1  UNL1        0.0035
     13 C         -14.3310   -2.4811   19.7582 C.ar    1  UNL1       -0.0043
     14 C         -11.3483   -0.9216   17.6554 C.3     1  UNL1        0.4186
     15 F          -9.9641   -0.5126   17.2471 F       1  UNL1       -0.1659
     16 F         -10.8121   -1.4354   18.9586 F       1  UNL1       -0.1659
     17 F         -11.8846   -0.4078   16.3522 F       1  UNL1       -0.1659
     18 C         -18.1811   -6.6209   16.8746 C.3     1  UNL1        0.0730
     19 C         -17.7007   -7.9532   17.3690 C.3     1  UNL1        0.0294
     20 C         -17.6665   -8.2391   18.8412 C.3     1  UNL1        0.0666
     21 S         -16.3507   -8.3908   19.5453 S.3     1  UNL1       -0.0756
     22 C         -14.3985   -5.8045   19.9318 C.3     1  UNL1        0.1340
     23 N         -14.1735   -6.9452   18.9841 N.ar    1  UNL1       -0.2872
     24 C         -15.0708   -8.1340   18.8065 C.ar    1  UNL1        0.1933
     25 N         -14.4636   -9.0209   17.7602 N.ar    1  UNL1       -0.1221
     26 N         -13.1909   -8.3803   17.2913 N.ar    1  UNL1       -0.1267
     27 C         -13.0115   -7.0974   18.0477 C.ar    1  UNL1        0.1846
     28 C         -11.8707   -6.1357   17.8945 C.ar    1  UNL1        0.1171
     29 C         -11.7553   -5.3002   16.6541 C.ar    1  UNL1        0.0223
     30 C         -10.6145   -4.3385   16.5010 C.ar    1  UNL1        0.0032
     31 C          -9.5889   -4.2123   17.5884 C.ar    1  UNL1        0.0207
     32 C          -9.7042   -5.0477   18.8288 C.ar    1  UNL1        0.0989
     33 N         -10.8451   -6.0095   18.9819 N.ar    1  UNL1       -0.2407
@<TRIPOS>BOND
     1    22    23    1
     2    23    24   ar
     3    24    21    1
     4    21    20    1
     5    20    19    1
     6    19    18    1
     7    18     1    1
     8     1     2    1
     9     2     3    1
    10     4     3    1
    11     4     5    1
    12     5     6    1
    13     6     8    1
    14     8     9   ar
    15     9    10   ar
    16    10    11   ar
    17    11    14    1
    18    14    15    1
    19    14    16    1
    20    14    17    1
    21    11    12   ar
    22    12    13   ar
    23     4     7    1
    24    24    25   ar
    25    25    26   ar
    26    26    27   ar
    27    27    28    1
    28    28    29   ar
    29    29    30   ar
    30    30    31   ar
    31    31    32   ar
    32    32    33   ar
    33    27    23   ar
    34    33    28   ar
    35     7     1    1
    36     6     4    1
    37    13     8   ar
@<TRIPOS>MOLECULE
*****
 33 37 0 0 0
SMALL
GASTEIGER

@<TRIPOS>ATOM
      1 N         -18.0810   -7.5514   17.8212 N.3     1  UNL1       -0.2726
      2 C         -18.6101   -8.9394   18.0299 C.3     1  UNL1        0.0721
      3 C         -17.4401   -9.8750   18.1050 C.3     1  UNL1        0.0190
      4 C         -16.1879   -9.0653   17.9427 C.3     1  UNL1        0.0201
      5 C         -15.2381  -10.2207   18.0567 C.3     1  UNL1        0.0061
      6 C         -14.7090   -8.8328   17.8479 C.3     1  UNL1        0.0237
      7 C         -16.5840   -7.6292   17.7672 C.3     1  UNL1        0.0724
      8 C         -13.5497   -7.8972   17.6727 C.ar    1  UNL1       -0.0225
      9 C         -12.7558   -7.9169   16.4002 C.ar    1  UNL1       -0.0043
     10 C         -11.5965   -6.9813   16.2249 C.ar    1  UNL1        0.0035
     11 C         -11.2312   -6.0260   17.3222 C.ar    1  UNL1        0.0714
     12 C         -12.0252   -6.0063   18.5947 C.ar    1  UNL1        0.0035
     13 C         -13.1845   -6.9419   18.7699 C.ar    1  UNL1       -0.0043
     14 C         -10.0720   -5.0904   17.1469 C.3     1  UNL1        0.4186
     15 F          -8.9126   -4.1548   16.9717 F       1  UNL1       -0.1659
     16 F         -10.8163   -4.3715   16.0611 F       1  UNL1       -0.1659
     17 F          -9.3276   -5.8093   18.2328 F       1  UNL1       -0.1659
     18 C         -18.9043   -6.3045   17.6894 C.3     1  UNL1        0.0730
     19 C         -18.9261   -5.2991   18.8023 C.3     1  UNL1        0.0294
     20 C         -17.7797   -4.3472   18.9758 C.3     1  UNL1        0.0666
     21 S         -16.7273   -4.6210   20.0090 S.3     1  UNL1       -0.0756
     22 C         -15.7994   -2.4980   17.7108 C.3     1  UNL1        0.1340
     23 N         -15.0040   -2.8922   18.9199 N.ar    1  UNL1       -0.2872
     24 C         -15.4305   -3.8680   19.9763 C.ar    1  UNL1        0.1933
     25 N         -14.3325   -3.9586   20.9942 N.ar    1  UNL1       -0.1221
     26 N         -13.2273   -3.0387   20.5670 N.ar    1  UNL1       -0.1267
     27 C         -13.6423   -2.3796   19.2850 C.ar    1  UNL1        0.1846
     28 C         -12.8370   -1.3830   18.5051 C.ar    1  UNL1        0.1171
     29 C         -11.4803   -1.7568   17.9857 C.ar    1  UNL1        0.0223
     30 C         -10.6750   -0.7601   17.2058 C.ar    1  UNL1        0.0032
     31 C         -11.2265    0.6103   16.9453 C.ar    1  UNL1        0.0207
     32 C         -12.5832    0.9841   17.4646 C.ar    1  UNL1        0.0989
     33 N         -13.3884   -0.0126   18.2446 N.ar    1  UNL1       -0.2407
@<TRIPOS>BOND
     1    22    23    1
     2    23    24   ar
     3    24    21    1
     4    21    20    1
     5    20    19    1
     6    19    18    1
     7    18     1    1
     8     1     2    1
     9     2     3    1
    10     4     3    1
    11     4     5    1
    12     5     6    1
    13     6     8    1
    14     8     9   ar
    15     9    10   ar
    16    10    11   ar
    17    11    14    1
    18    14    15    1
    19    14    16    1
    20    14    17    1
    21    11    12   ar
    22    12    13   ar
    23     4     7    1
    24    24    25   ar
    25    25    26   ar
    26    26    27   ar
    27    27    28    1
    28    28    29   ar
    29    29    30   ar
    30    30    31   ar
    31    31    32   ar
    32    32    33   ar
    33    27    23   ar
    34    33    28   ar
    35     7     1    1
    36     6     4    1
    37    13     8   ar
