@<TRIPOS>MOLECULE
*****
 35 39 0 0 0
SMALL
GASTEIGER

@<TRIPOS>ATOM
      1 C           6.6318   -1.0280   32.4747 C.3     1  UNL1        0.0952
      2 C           6.4009   -1.1639   30.9989 C.2     1  UNL1        0.2298
      3 O           7.5483   -1.4811   30.0862 O.2     1  UNL1       -0.2745
      4 N           5.0226   -0.9824   30.4356 N.am    1  UNL1       -0.2605
      5 C           4.7917   -1.1183   28.9596 C.ar    1  UNL1        0.0513
      6 C           5.9391   -1.4355   28.0471 C.ar    1  UNL1        0.0146
      7 C           5.7081   -1.5713   26.5712 C.ar    1  UNL1        0.0013
      8 C           4.3298   -1.3899   26.0079 C.ar    1  UNL1       -0.0002
      9 C           3.1824   -1.0726   26.9205 C.ar    1  UNL1       -0.0014
     10 C           3.4134   -0.9368   28.3963 C.ar    1  UNL1        0.0092
     11 C           2.2659   -0.6196   29.3090 C.3     1  UNL1        0.0947
     12 C           2.4969   -0.4837   30.7848 C.3     1  UNL1        0.0442
     13 C           3.8752   -0.6652   31.3481 C.3     1  UNL1        0.0818
     14 C           4.1061   -0.5293   32.8241 C.3     1  UNL1        0.0220
     15 C           4.0989   -1.5257   24.5320 C.ar    1  UNL1       -0.0000
     16 C           3.1795   -0.5739   23.8260 C.ar    1  UNL1       -0.0003
     17 C           2.9486   -0.7097   22.3500 C.ar    1  UNL1       -0.0029
     18 C           3.6372   -1.7974   21.5802 C.ar    1  UNL1       -0.0061
     19 C           4.5567   -2.7493   22.2863 C.ar    1  UNL1       -0.0029
     20 C           4.7875   -2.6134   23.7622 C.ar    1  UNL1       -0.0003
     21 C           3.4063   -1.9333   20.1043 C.3     1  UNL1        0.0991
     22 N           4.3818   -1.3351   19.1345 N.3     1  UNL1       -0.2690
     23 C           4.0705   -0.0281   18.4676 C.3     1  UNL1        0.0724
     24 C           5.0460    0.5701   17.4977 C.3     1  UNL1        0.0174
     25 C           6.3328   -0.1388   17.1948 C.3     1  UNL1        0.0029
     26 C           6.6441   -1.4458   17.8617 C.3     1  UNL1        0.0174
     27 C           5.6686   -2.0440   18.8316 C.3     1  UNL1        0.0724
     28 N           0.8876   -0.4381   28.7457 N.pl3   1  UNL1       -0.3305
     29 H           0.2792   -1.2089   28.6752 H       1  UNL1        0.1471
     30 C           0.4362    0.9177   28.2897 C.ar    1  UNL1        0.0448
     31 C           0.9754    2.1501   28.9532 C.ar    1  UNL1        0.0143
     32 C           0.5240    3.5060   28.4972 C.ar    1  UNL1        0.0013
     33 C          -0.4666    3.6294   27.3776 C.ar    1  UNL1        0.0001
     34 C          -1.0058    2.3969   26.7141 C.ar    1  UNL1        0.0013
     35 C          -0.5544    1.0411   27.1701 C.ar    1  UNL1        0.0143
@<TRIPOS>BOND
     1     1     2    1
     2     2     3    2
     3     2     4   am
     4     4     5    1
     5     5     6   ar
     6     6     7   ar
     7     7     8   ar
     8     8    15    1
     9    15    16   ar
    10    16    17   ar
    11    17    18   ar
    12    18    21    1
    13    21    22    1
    14    22    23    1
    15    23    24    1
    16    24    25    1
    17    25    26    1
    18    26    27    1
    19    18    19   ar
    20    19    20   ar
    21     8     9   ar
    22     9    10   ar
    23    10    11    1
    24    11    28    1
    25    28    30    1
    26    30    31   ar
    27    31    32   ar
    28    32    33   ar
    29    33    34   ar
    30    34    35   ar
    31    11    12    1
    32    12    13    1
    33    13    14    1
    34    13     4    1
    35    10     5   ar
    36    35    30   ar
    37    20    15   ar
    38    27    22    1
    39    28    29    1
@<TRIPOS>MOLECULE
*****
 35 39 0 0 0
SMALL
GASTEIGER

@<TRIPOS>ATOM
      1 C           2.2293   -0.5475   29.9578 C.3     1  UNL1        0.0952
      2 C           1.1987    0.2170   29.1811 C.2     1  UNL1        0.2298
      3 O          -0.1117    0.5709   29.8197 O.2     1  UNL1       -0.2745
      4 N           1.4785    0.6278   27.7659 N.am    1  UNL1       -0.2605
      5 C           0.4479    1.3925   26.9892 C.ar    1  UNL1        0.0513
      6 C          -0.8624    1.7463   27.6277 C.ar    1  UNL1        0.0146
      7 C          -1.8930    2.5108   26.8510 C.ar    1  UNL1        0.0013
      8 C          -1.6132    2.9216   25.4357 C.ar    1  UNL1       -0.0002
      9 C          -0.3029    2.5678   24.7972 C.ar    1  UNL1       -0.0014
     10 C           0.7277    1.8033   25.5739 C.ar    1  UNL1        0.0092
     11 C           2.0381    1.4494   24.9353 C.3     1  UNL1        0.0947
     12 C           3.0687    0.6848   25.7121 C.3     1  UNL1        0.0442
     13 C           2.7889    0.2740   27.1273 C.3     1  UNL1        0.0818
     14 C           3.8195   -0.4906   27.9040 C.3     1  UNL1        0.0220
     15 C          -2.6439    3.6863   24.6590 C.ar    1  UNL1       -0.0000
     16 C          -2.2154    4.7037   23.6436 C.ar    1  UNL1       -0.0003
     17 C          -3.2460    5.4684   22.8669 C.ar    1  UNL1       -0.0029
     18 C          -4.7051    5.2155   23.1057 C.ar    1  UNL1       -0.0061
     19 C          -5.1336    4.1979   24.1212 C.ar    1  UNL1       -0.0029
     20 C          -4.1030    3.4334   24.8978 C.ar    1  UNL1       -0.0003
     21 C          -5.7357    5.9800   22.3290 C.3     1  UNL1        0.0991
     22 N          -6.2873    5.4132   21.0545 N.3     1  UNL1       -0.2690
     23 C          -7.4013    6.1191   20.3400 C.3     1  UNL1        0.0724
     24 C          -7.9529    5.5522   19.0654 C.3     1  UNL1        0.0174
     25 C          -7.3904    4.2794   18.5054 C.3     1  UNL1        0.0029
     26 C          -6.2763    3.5735   19.2200 C.3     1  UNL1        0.0174
     27 C          -5.7248    4.1403   20.4945 C.3     1  UNL1        0.0724
     28 N           2.3179    1.8602   23.5201 N.pl3   1  UNL1       -0.3305
     29 H           2.7073    2.7447   23.3321 H       1  UNL1        0.1471
     30 C           2.0043    0.9235   22.3913 C.ar    1  UNL1        0.0448
     31 C           0.7282    1.0808   21.6187 C.ar    1  UNL1        0.0143
     32 C           0.4147    0.1440   20.4898 C.ar    1  UNL1        0.0013
     33 C           1.3772   -0.9499   20.1337 C.ar    1  UNL1        0.0001
     34 C           2.6532   -1.1072   20.9063 C.ar    1  UNL1        0.0013
     35 C           2.9668   -0.1705   22.0351 C.ar    1  UNL1        0.0143
@<TRIPOS>BOND
     1     1     2    1
     2     2     3    2
     3     2     4   am
     4     4     5    1
     5     5     6   ar
     6     6     7   ar
     7     7     8   ar
     8     8    15    1
     9    15    16   ar
    10    16    17   ar
    11    17    18   ar
    12    18    21    1
    13    21    22    1
    14    22    23    1
    15    23    24    1
    16    24    25    1
    17    25    26    1
    18    26    27    1
    19    18    19   ar
    20    19    20   ar
    21     8     9   ar
    22     9    10   ar
    23    10    11    1
    24    11    28    1
    25    28    30    1
    26    30    31   ar
    27    31    32   ar
    28    32    33   ar
    29    33    34   ar
    30    34    35   ar
    31    11    12    1
    32    12    13    1
    33    13    14    1
    34    13     4    1
    35    10     5   ar
    36    35    30   ar
    37    20    15   ar
    38    27    22    1
    39    28    29    1
@<TRIPOS>MOLECULE
*****
 35 39 0 0 0
SMALL
GASTEIGER

@<TRIPOS>ATOM
      1 C           3.8277    1.9177   37.4529 C.3     1  UNL1        0.0952
      2 C           3.1553    2.1061   36.1254 C.2     1  UNL1        0.2298
      3 O           2.1288    3.1861   35.9512 O.2     1  UNL1       -0.2745
      4 N           3.5091    1.2147   34.9721 N.am    1  UNL1       -0.2605
      5 C           2.8366    1.4032   33.6446 C.ar    1  UNL1        0.0513
      6 C           1.8102    2.4831   33.4705 C.ar    1  UNL1        0.0146
      7 C           1.1378    2.6716   32.1430 C.ar    1  UNL1        0.0013
      8 C           1.4916    1.7801   30.9897 C.ar    1  UNL1       -0.0002
      9 C           2.5180    0.7002   31.1638 C.ar    1  UNL1       -0.0014
     10 C           3.1905    0.5118   32.4913 C.ar    1  UNL1        0.0092
     11 C           4.2169   -0.5682   32.6655 C.3     1  UNL1        0.0947
     12 C           4.8894   -0.7566   33.9930 C.3     1  UNL1        0.0442
     13 C           4.5355    0.1348   35.1463 C.3     1  UNL1        0.0818
     14 C           5.2080   -0.0537   36.4738 C.3     1  UNL1        0.0220
     15 C           0.8191    1.9686   29.6622 C.ar    1  UNL1       -0.0000
     16 C          -0.0251    0.8706   29.0864 C.ar    1  UNL1       -0.0003
     17 C          -0.6976    1.0591   27.7589 C.ar    1  UNL1       -0.0029
     18 C          -0.5259    2.3457   27.0072 C.ar    1  UNL1       -0.0061
     19 C           0.3183    3.4438   27.5830 C.ar    1  UNL1       -0.0029
     20 C           0.9908    3.2553   28.9104 C.ar    1  UNL1       -0.0003
     21 C          -1.1984    2.5342   25.6797 C.3     1  UNL1        0.0991
     22 N          -2.5068    3.2633   25.5987 N.3     1  UNL1       -0.2690
     23 C          -3.0864    3.6175   24.2613 C.3     1  UNL1        0.0724
     24 C          -4.3949    4.3466   24.1803 C.3     1  UNL1        0.0174
     25 C          -5.1237    4.7213   25.4367 C.3     1  UNL1        0.0029
     26 C          -4.5440    4.3671   26.7740 C.3     1  UNL1        0.0174
     27 C          -3.2357    3.6381   26.8551 C.3     1  UNL1        0.0724
     28 N           4.5707   -1.4596   31.5122 N.pl3   1  UNL1       -0.3305
     29 H           3.8955   -1.6698   30.8272 H       1  UNL1        0.1471
     30 C           5.9533   -2.0309   31.4025 C.ar    1  UNL1        0.0448
     31 C           7.0783   -1.1796   30.8928 C.ar    1  UNL1        0.0143
     32 C           8.4610   -1.7509   30.7832 C.ar    1  UNL1        0.0013
     33 C           8.7186   -3.1734   31.1831 C.ar    1  UNL1        0.0001
     34 C           7.5936   -4.0247   31.6928 C.ar    1  UNL1        0.0013
     35 C           6.2110   -3.4535   31.8025 C.ar    1  UNL1        0.0143
@<TRIPOS>BOND
     1     1     2    1
     2     2     3    2
     3     2     4   am
     4     4     5    1
     5     5     6   ar
     6     6     7   ar
     7     7     8   ar
     8     8    15    1
     9    15    16   ar
    10    16    17   ar
    11    17    18   ar
    12    18    21    1
    13    21    22    1
    14    22    23    1
    15    23    24    1
    16    24    25    1
    17    25    26    1
    18    26    27    1
    19    18    19   ar
    20    19    20   ar
    21     8     9   ar
    22     9    10   ar
    23    10    11    1
    24    11    28    1
    25    28    30    1
    26    30    31   ar
    27    31    32   ar
    28    32    33   ar
    29    33    34   ar
    30    34    35   ar
    31    11    12    1
    32    12    13    1
    33    13    14    1
    34    13     4    1
    35    10     5   ar
    36    35    30   ar
    37    20    15   ar
    38    27    22    1
    39    28    29    1
@<TRIPOS>MOLECULE
*****
 35 39 0 0 0
SMALL
GASTEIGER

@<TRIPOS>ATOM
      1 C           3.9027   -0.4388   33.4580 C.3     1  UNL1        0.0952
      2 C           3.6586   -0.4475   31.9781 C.2     1  UNL1        0.2298
      3 O           2.3895    0.1290   31.4238 O.2     1  UNL1       -0.2745
      4 N           4.6835   -1.0326   31.0523 N.am    1  UNL1       -0.2605
      5 C           4.4394   -1.0413   29.5723 C.ar    1  UNL1        0.0513
      6 C           3.1704   -0.4648   29.0181 C.ar    1  UNL1        0.0146
      7 C           2.9263   -0.4735   27.5382 C.ar    1  UNL1        0.0013
      8 C           3.9512   -1.0586   26.6124 C.ar    1  UNL1       -0.0002
      9 C           5.2203   -1.6351   27.1666 C.ar    1  UNL1       -0.0014
     10 C           5.4644   -1.6264   28.6465 C.ar    1  UNL1        0.0092
     11 C           6.7335   -2.2029   29.2008 C.3     1  UNL1        0.0947
     12 C           6.9776   -2.1942   30.6807 C.3     1  UNL1        0.0442
     13 C           5.9526   -1.6091   31.6065 C.3     1  UNL1        0.0818
     14 C           6.1967   -1.6005   33.0865 C.3     1  UNL1        0.0220
     15 C           3.7071   -1.0673   25.1324 C.ar    1  UNL1       -0.0000
     16 C           2.7419   -0.0924   24.5257 C.ar    1  UNL1       -0.0003
     17 C           2.4978   -0.1011   23.0457 C.ar    1  UNL1       -0.0029
     18 C           3.2189   -1.0846   22.1724 C.ar    1  UNL1       -0.0061
     19 C           4.1841   -2.0595   22.7791 C.ar    1  UNL1       -0.0029
     20 C           4.4282   -2.0508   24.2590 C.ar    1  UNL1       -0.0003
     21 C           2.9748   -1.0933   20.6924 C.3     1  UNL1        0.0991
     22 N           4.0711   -1.5021   19.7539 N.3     1  UNL1       -0.2690
     23 C           5.1356   -0.5176   19.3698 C.3     1  UNL1        0.0724
     24 C           6.2319   -0.9265   18.4312 C.3     1  UNL1        0.0174
     25 C           6.2638   -2.3199   17.8768 C.3     1  UNL1        0.0029
     26 C           5.1994   -3.3044   18.2610 C.3     1  UNL1        0.0174
     27 C           4.1030   -2.8956   19.1995 C.3     1  UNL1        0.0724
     28 N           7.7584   -2.7881   28.2750 N.pl3   1  UNL1       -0.3305
     29 H           8.4356   -2.2065   27.8596 H       1  UNL1        0.1471
     30 C           7.7517   -4.2591   27.9822 C.ar    1  UNL1        0.0448
     31 C           8.4665   -5.2092   28.8967 C.ar    1  UNL1        0.0143
     32 C           8.4598   -6.6804   28.6038 C.ar    1  UNL1        0.0013
     33 C           7.7383   -7.2014   27.3964 C.ar    1  UNL1        0.0001
     34 C           7.0234   -6.2513   26.4819 C.ar    1  UNL1        0.0013
     35 C           7.0302   -4.7803   26.7747 C.ar    1  UNL1        0.0143
@<TRIPOS>BOND
     1     1     2    1
     2     2     3    2
     3     2     4   am
     4     4     5    1
     5     5     6   ar
     6     6     7   ar
     7     7     8   ar
     8     8    15    1
     9    15    16   ar
    10    16    17   ar
    11    17    18   ar
    12    18    21    1
    13    21    22    1
    14    22    23    1
    15    23    24    1
    16    24    25    1
    17    25    26    1
    18    26    27    1
    19    18    19   ar
    20    19    20   ar
    21     8     9   ar
    22     9    10   ar
    23    10    11    1
    24    11    28    1
    25    28    30    1
    26    30    31   ar
    27    31    32   ar
    28    32    33   ar
    29    33    34   ar
    30    34    35   ar
    31    11    12    1
    32    12    13    1
    33    13    14    1
    34    13     4    1
    35    10     5   ar
    36    35    30   ar
    37    20    15   ar
    38    27    22    1
    39    28    29    1
@<TRIPOS>MOLECULE
*****
 35 39 0 0 0
SMALL
GASTEIGER

@<TRIPOS>ATOM
      1 C           8.0521   -6.0831   31.3566 C.3     1  UNL1        0.0952
      2 C           7.8257   -5.9150   29.8834 C.2     1  UNL1        0.2298
      3 O           8.2069   -7.0137   28.9358 O.2     1  UNL1       -0.2745
      4 N           7.2181   -4.6484   29.3576 N.am    1  UNL1       -0.2605
      5 C           6.9916   -4.4804   27.8843 C.ar    1  UNL1        0.0513
      6 C           7.3728   -5.5790   26.9368 C.ar    1  UNL1        0.0146
      7 C           7.1464   -5.4110   25.4636 C.ar    1  UNL1        0.0013
      8 C           6.5388   -4.1444   24.9378 C.ar    1  UNL1       -0.0002
      9 C           6.1576   -3.0458   25.8853 C.ar    1  UNL1       -0.0014
     10 C           6.3840   -3.2138   27.3585 C.ar    1  UNL1        0.0092
     11 C           6.0029   -2.1151   28.3060 C.3     1  UNL1        0.0947
     12 C           6.2293   -2.2832   29.7792 C.3     1  UNL1        0.0442
     13 C           6.8369   -3.5498   30.3050 C.3     1  UNL1        0.0818
     14 C           7.0634   -3.7178   31.7783 C.3     1  UNL1        0.0220
     15 C           6.3123   -3.9764   23.4645 C.ar    1  UNL1       -0.0000
     16 C           7.4282   -4.2448   22.4988 C.ar    1  UNL1       -0.0003
     17 C           7.2018   -4.0768   21.0255 C.ar    1  UNL1       -0.0029
     18 C           5.8594   -3.6404   20.5179 C.ar    1  UNL1       -0.0061
     19 C           4.7435   -3.3720   21.4838 C.ar    1  UNL1       -0.0029
     20 C           4.9699   -3.5400   22.9570 C.ar    1  UNL1       -0.0003
     21 C           5.6329   -3.4725   19.0447 C.3     1  UNL1        0.0991
     22 N           5.4398   -2.1017   18.4671 N.3     1  UNL1       -0.2690
     23 C           6.6313   -1.2714   18.0914 C.3     1  UNL1        0.0724
     24 C           6.4381    0.0994   17.5138 C.3     1  UNL1        0.0174
     25 C           5.0535    0.6399   17.3120 C.3     1  UNL1        0.0029
     26 C           3.8621   -0.1903   17.6877 C.3     1  UNL1        0.0174
     27 C           4.0552   -1.5611   18.2653 C.3     1  UNL1        0.0724
     28 N           5.3952   -0.8485   27.7802 N.pl3   1  UNL1       -0.3305
     29 H           5.8053   -0.3873   27.0132 H       1  UNL1        0.1471
     30 C           4.1629   -0.2846   28.4231 C.ar    1  UNL1        0.0448
     31 C           4.2778    0.8480   29.3999 C.ar    1  UNL1        0.0143
     32 C           3.0454    1.4118   30.0428 C.ar    1  UNL1        0.0013
     33 C           1.6981    0.8431   29.7089 C.ar    1  UNL1        0.0001
     34 C           1.5833   -0.2894   28.7321 C.ar    1  UNL1        0.0013
     35 C           2.8156   -0.8533   28.0893 C.ar    1  UNL1        0.0143
@<TRIPOS>BOND
     1     1     2    1
     2     2     3    2
     3     2     4   am
     4     4     5    1
     5     5     6   ar
     6     6     7   ar
     7     7     8   ar
     8     8    15    1
     9    15    16   ar
    10    16    17   ar
    11    17    18   ar
    12    18    21    1
    13    21    22    1
    14    22    23    1
    15    23    24    1
    16    24    25    1
    17    25    26    1
    18    26    27    1
    19    18    19   ar
    20    19    20   ar
    21     8     9   ar
    22     9    10   ar
    23    10    11    1
    24    11    28    1
    25    28    30    1
    26    30    31   ar
    27    31    32   ar
    28    32    33   ar
    29    33    34   ar
    30    34    35   ar
    31    11    12    1
    32    12    13    1
    33    13    14    1
    34    13     4    1
    35    10     5   ar
    36    35    30   ar
    37    20    15   ar
    38    27    22    1
    39    28    29    1
@<TRIPOS>MOLECULE
*****
 35 39 0 0 0
SMALL
GASTEIGER

@<TRIPOS>ATOM
      1 C           3.9091   -0.9081   16.7536 C.3     1  UNL1        0.0952
      2 C           4.5538   -1.5913   17.9231 C.2     1  UNL1        0.2298
      3 O           5.7051   -2.5275   17.7035 O.2     1  UNL1       -0.2745
      4 N           4.0474   -1.3382   19.3121 N.am    1  UNL1       -0.2605
      5 C           4.6922   -2.0214   20.4816 C.ar    1  UNL1        0.0513
      6 C           5.8434   -2.9575   20.2620 C.ar    1  UNL1        0.0146
      7 C           6.4881   -3.6406   21.4314 C.ar    1  UNL1        0.0013
      8 C           5.9817   -3.3876   22.8204 C.ar    1  UNL1       -0.0002
      9 C           4.8305   -2.4514   23.0401 C.ar    1  UNL1       -0.0014
     10 C           4.1857   -1.7683   21.8706 C.ar    1  UNL1        0.0092
     11 C           3.0344   -0.8321   22.0902 C.3     1  UNL1        0.0947
     12 C           2.3897   -0.1490   20.9208 C.3     1  UNL1        0.0442
     13 C           2.8962   -0.4020   19.5317 C.3     1  UNL1        0.0818
     14 C           2.2514    0.2811   18.3623 C.3     1  UNL1        0.0220
     15 C           6.6265   -4.0708   23.9899 C.ar    1  UNL1       -0.0000
     16 C           7.4756   -5.2880   23.7727 C.ar    1  UNL1       -0.0003
     17 C           8.1204   -5.9711   24.9421 C.ar    1  UNL1       -0.0029
     18 C           7.9160   -5.4370   26.3288 C.ar    1  UNL1       -0.0061
     19 C           7.0668   -4.2197   26.5460 C.ar    1  UNL1       -0.0029
     20 C           6.4221   -3.5366   25.3766 C.ar    1  UNL1       -0.0003
     21 C           8.5608   -6.1201   27.4983 C.3     1  UNL1        0.0991
     22 N           8.4312   -5.5351   28.8733 N.3     1  UNL1       -0.2690
     23 C           9.4550   -4.5592   29.3728 C.3     1  UNL1        0.0724
     24 C           9.3254   -3.9742   30.7480 C.3     1  UNL1        0.0174
     25 C           8.1719   -4.3651   31.6236 C.3     1  UNL1        0.0029
     26 C           7.1481   -5.3410   31.1242 C.3     1  UNL1        0.0174
     27 C           7.2777   -5.9260   29.7491 C.3     1  UNL1        0.0724
     28 N           2.5280   -0.5790   23.4793 N.pl3   1  UNL1       -0.3305
     29 H           2.4693   -1.3203   24.1245 H       1  UNL1        0.1471
     30 C           2.1109    0.8034   23.8852 C.ar    1  UNL1        0.0448
     31 C           0.6673    1.0993   24.1657 C.ar    1  UNL1        0.0143
     32 C           0.2502    2.4818   24.5717 C.ar    1  UNL1        0.0013
     33 C           1.2767    3.5683   24.6972 C.ar    1  UNL1        0.0001
     34 C           2.7202    3.2725   24.4168 C.ar    1  UNL1        0.0013
     35 C           3.1373    1.8900   24.0108 C.ar    1  UNL1        0.0143
@<TRIPOS>BOND
     1     1     2    1
     2     2     3    2
     3     2     4   am
     4     4     5    1
     5     5     6   ar
     6     6     7   ar
     7     7     8   ar
     8     8    15    1
     9    15    16   ar
    10    16    17   ar
    11    17    18   ar
    12    18    21    1
    13    21    22    1
    14    22    23    1
    15    23    24    1
    16    24    25    1
    17    25    26    1
    18    26    27    1
    19    18    19   ar
    20    19    20   ar
    21     8     9   ar
    22     9    10   ar
    23    10    11    1
    24    11    28    1
    25    28    30    1
    26    30    31   ar
    27    31    32   ar
    28    32    33   ar
    29    33    34   ar
    30    34    35   ar
    31    11    12    1
    32    12    13    1
    33    13    14    1
    34    13     4    1
    35    10     5   ar
    36    35    30   ar
    37    20    15   ar
    38    27    22    1
    39    28    29    1
@<TRIPOS>MOLECULE
*****
 35 39 0 0 0
SMALL
GASTEIGER

@<TRIPOS>ATOM
      1 C           2.4880    3.2454   36.4684 C.3     1  UNL1        0.0952
      2 C           3.2977    2.1458   35.8479 C.2     1  UNL1        0.2298
      3 O           4.2017    1.3067   36.7016 O.2     1  UNL1       -0.2745
      4 N           3.2033    1.8851   34.3738 N.am    1  UNL1       -0.2605
      5 C           4.0131    0.7854   33.7532 C.ar    1  UNL1        0.0513
      6 C           4.9171   -0.0536   34.6069 C.ar    1  UNL1        0.0146
      7 C           5.7268   -1.1533   33.9864 C.ar    1  UNL1        0.0013
      8 C           5.6325   -1.4140   32.5122 C.ar    1  UNL1       -0.0002
      9 C           4.7284   -0.5749   31.6586 C.ar    1  UNL1       -0.0014
     10 C           3.9188    0.5247   32.2791 C.ar    1  UNL1        0.0092
     11 C           3.0147    1.3638   31.4254 C.3     1  UNL1        0.0947
     12 C           2.2050    2.4635   32.0459 C.3     1  UNL1        0.0442
     13 C           2.2993    2.7241   33.5201 C.3     1  UNL1        0.0818
     14 C           1.4896    3.8239   34.1406 C.3     1  UNL1        0.0220
     15 C           6.4422   -2.5137   31.8917 C.ar    1  UNL1       -0.0000
     16 C           6.1612   -3.9438   32.2464 C.ar    1  UNL1       -0.0003
     17 C           6.9709   -5.0435   31.6259 C.ar    1  UNL1       -0.0029
     18 C           8.0617   -4.7131   30.6507 C.ar    1  UNL1       -0.0061
     19 C           8.3427   -3.2829   30.2960 C.ar    1  UNL1       -0.0029
     20 C           7.5330   -2.1833   30.9165 C.ar    1  UNL1       -0.0003
     21 C           8.8714   -5.8127   30.0302 C.3     1  UNL1        0.0991
     22 N           8.3846   -6.4909   28.7840 N.3     1  UNL1       -0.2690
     23 C           8.9263   -7.8366   28.4020 C.3     1  UNL1        0.0724
     24 C           8.4394   -8.5148   27.1557 C.3     1  UNL1        0.0174
     25 C           7.4110   -7.8474   26.2915 C.3     1  UNL1        0.0029
     26 C           6.8694   -6.5018   26.6735 C.3     1  UNL1        0.0174
     27 C           7.3562   -5.8235   27.9197 C.3     1  UNL1        0.0724
     28 N           2.9203    1.1032   29.9513 N.pl3   1  UNL1       -0.3305
     29 H           3.7370    0.9338   29.4281 H       1  UNL1        0.1471
     30 C           1.5819    1.1006   29.2742 C.ar    1  UNL1        0.0448
     31 C           0.6936   -0.1041   29.3732 C.ar    1  UNL1        0.0143
     32 C          -0.6449   -0.1067   28.6961 C.ar    1  UNL1        0.0013
     33 C          -1.0952    1.0954   27.9201 C.ar    1  UNL1        0.0001
     34 C          -0.2069    2.3001   27.8211 C.ar    1  UNL1        0.0013
     35 C           1.1316    2.3027   28.4981 C.ar    1  UNL1        0.0143
@<TRIPOS>BOND
     1     1     2    1
     2     2     3    2
     3     2     4   am
     4     4     5    1
     5     5     6   ar
     6     6     7   ar
     7     7     8   ar
     8     8    15    1
     9    15    16   ar
    10    16    17   ar
    11    17    18   ar
    12    18    21    1
    13    21    22    1
    14    22    23    1
    15    23    24    1
    16    24    25    1
    17    25    26    1
    18    26    27    1
    19    18    19   ar
    20    19    20   ar
    21     8     9   ar
    22     9    10   ar
    23    10    11    1
    24    11    28    1
    25    28    30    1
    26    30    31   ar
    27    31    32   ar
    28    32    33   ar
    29    33    34   ar
    30    34    35   ar
    31    11    12    1
    32    12    13    1
    33    13    14    1
    34    13     4    1
    35    10     5   ar
    36    35    30   ar
    37    20    15   ar
    38    27    22    1
    39    28    29    1
@<TRIPOS>MOLECULE
*****
 35 39 0 0 0
SMALL
GASTEIGER

@<TRIPOS>ATOM
      1 C          -1.9116    3.8567   23.2216 C.3     1  UNL1        0.0952
      2 C          -0.7879    2.8762   23.3827 C.2     1  UNL1        0.2298
      3 O          -0.2653    2.5525   24.7510 O.2     1  UNL1       -0.2745
      4 N          -0.1867    2.2194   22.1755 N.am    1  UNL1       -0.2605
      5 C           0.9370    1.2389   22.3367 C.ar    1  UNL1        0.0513
      6 C           1.4595    0.9153   23.7049 C.ar    1  UNL1        0.0146
      7 C           2.5832   -0.0652   23.8660 C.ar    1  UNL1        0.0013
      8 C           3.1844   -0.7220   22.6589 C.ar    1  UNL1       -0.0002
      9 C           2.6619   -0.3983   21.2906 C.ar    1  UNL1       -0.0014
     10 C           1.5382    0.5821   21.1295 C.ar    1  UNL1        0.0092
     11 C           1.0156    0.9058   19.7612 C.3     1  UNL1        0.0947
     12 C          -0.1081    1.8863   19.6001 C.3     1  UNL1        0.0442
     13 C          -0.7093    2.5431   20.8073 C.3     1  UNL1        0.0818
     14 C          -1.8330    3.5236   20.6461 C.3     1  UNL1        0.0220
     15 C           4.3081   -1.7024   22.8200 C.ar    1  UNL1       -0.0000
     16 C           4.3783   -2.9143   21.9389 C.ar    1  UNL1       -0.0003
     17 C           5.5020   -3.8948   22.1001 C.ar    1  UNL1       -0.0029
     18 C           6.5556   -3.6634   23.1424 C.ar    1  UNL1       -0.0061
     19 C           6.4854   -2.4514   24.0236 C.ar    1  UNL1       -0.0029
     20 C           5.3617   -1.4710   23.8624 C.ar    1  UNL1       -0.0003
     21 C           7.6793   -4.6438   23.3036 C.3     1  UNL1        0.0991
     22 N           7.6462   -5.6456   24.4194 N.3     1  UNL1       -0.2690
     23 C           6.9196   -5.3268   25.6924 C.3     1  UNL1        0.0724
     24 C           6.8866   -6.3287   26.8083 C.3     1  UNL1        0.0174
     25 C           7.5801   -7.6494   26.6511 C.3     1  UNL1        0.0029
     26 C           8.3066   -7.9683   25.3782 C.3     1  UNL1        0.0174
     27 C           8.3397   -6.9664   24.2623 C.3     1  UNL1        0.0724
     28 N           1.6168    0.2491   18.5541 N.pl3   1  UNL1       -0.3305
     29 H           1.0919   -0.4031   18.0358 H       1  UNL1        0.1471
     30 C           3.0175    0.5858   18.1365 C.ar    1  UNL1        0.0448
     31 C           3.8568   -0.4384   17.4317 C.ar    1  UNL1        0.0143
     32 C           5.2576   -0.1015   17.0141 C.ar    1  UNL1        0.0013
     33 C           5.8191    1.2594   17.3013 C.ar    1  UNL1        0.0001
     34 C           4.9798    2.2836   18.0061 C.ar    1  UNL1        0.0013
     35 C           3.5791    1.9468   18.4237 C.ar    1  UNL1        0.0143
@<TRIPOS>BOND
     1     1     2    1
     2     2     3    2
     3     2     4   am
     4     4     5    1
     5     5     6   ar
     6     6     7   ar
     7     7     8   ar
     8     8    15    1
     9    15    16   ar
    10    16    17   ar
    11    17    18   ar
    12    18    21    1
    13    21    22    1
    14    22    23    1
    15    23    24    1
    16    24    25    1
    17    25    26    1
    18    26    27    1
    19    18    19   ar
    20    19    20   ar
    21     8     9   ar
    22     9    10   ar
    23    10    11    1
    24    11    28    1
    25    28    30    1
    26    30    31   ar
    27    31    32   ar
    28    32    33   ar
    29    33    34   ar
    30    34    35   ar
    31    11    12    1
    32    12    13    1
    33    13    14    1
    34    13     4    1
    35    10     5   ar
    36    35    30   ar
    37    20    15   ar
    38    27    22    1
    39    28    29    1
@<TRIPOS>MOLECULE
*****
 35 39 0 0 0
SMALL
GASTEIGER

@<TRIPOS>ATOM
      1 C           6.3687   -3.8901   21.4770 C.3     1  UNL1        0.0952
      2 C           5.4191   -2.9493   22.1574 C.2     1  UNL1        0.2298
      3 O           5.4701   -2.7792   23.6469 O.2     1  UNL1       -0.2745
      4 N           4.4184   -2.1785   21.3484 N.am    1  UNL1       -0.2605
      5 C           3.4688   -1.2376   22.0288 C.ar    1  UNL1        0.0513
      6 C           3.5198   -1.0676   23.5183 C.ar    1  UNL1        0.0146
      7 C           2.5702   -0.1267   24.1987 C.ar    1  UNL1        0.0013
      8 C           1.5695    0.6441   23.3897 C.ar    1  UNL1       -0.0002
      9 C           1.5185    0.4740   21.9002 C.ar    1  UNL1       -0.0014
     10 C           2.4681   -0.4668   21.2198 C.ar    1  UNL1        0.0092
     11 C           2.4170   -0.6369   19.7303 C.3     1  UNL1        0.0947
     12 C           3.3667   -1.5778   19.0499 C.3     1  UNL1        0.0442
     13 C           4.3673   -2.3486   19.8589 C.3     1  UNL1        0.0818
     14 C           5.3170   -3.2894   19.1784 C.3     1  UNL1        0.0220
     15 C           0.6199    1.5850   24.0701 C.ar    1  UNL1       -0.0000
     16 C           0.2658    2.8912   23.4233 C.ar    1  UNL1       -0.0003
     17 C          -0.6838    3.8320   24.1038 C.ar    1  UNL1       -0.0029
     18 C          -1.2794    3.4666   25.4311 C.ar    1  UNL1       -0.0061
     19 C          -0.9253    2.1604   26.0780 C.ar    1  UNL1       -0.0029
     20 C           0.0243    1.2196   25.3975 C.ar    1  UNL1       -0.0003
     21 C          -2.2289    4.4074   26.1116 C.3     1  UNL1        0.0991
     22 N          -3.6504    4.5071   25.6433 N.3     1  UNL1       -0.2690
     23 C          -4.6210    5.3869   26.3741 C.3     1  UNL1        0.0724
     24 C          -6.0425    5.4865   25.9057 C.3     1  UNL1        0.0174
     25 C          -6.4935    4.7063   24.7066 C.3     1  UNL1        0.0029
     26 C          -5.5230    3.8265   23.9759 C.3     1  UNL1        0.0174
     27 C          -4.1015    3.7268   24.4442 C.3     1  UNL1        0.0724
     28 N           1.4164    0.1339   18.9213 N.pl3   1  UNL1       -0.3305
     29 H           0.5991   -0.3092   18.5974 H       1  UNL1        0.1471
     30 C           1.6609    1.5798   18.6059 C.ar    1  UNL1        0.0448
     31 C           0.5015    2.5102   18.4053 C.ar    1  UNL1        0.0143
     32 C           0.7461    3.9561   18.0899 C.ar    1  UNL1        0.0013
     33 C           2.1500    4.4716   17.9749 C.ar    1  UNL1        0.0001
     34 C           3.3094    3.5412   18.1755 C.ar    1  UNL1        0.0013
     35 C           3.0648    2.0954   18.4909 C.ar    1  UNL1        0.0143
@<TRIPOS>BOND
     1     1     2    1
     2     2     3    2
     3     2     4   am
     4     4     5    1
     5     5     6   ar
     6     6     7   ar
     7     7     8   ar
     8     8    15    1
     9    15    16   ar
    10    16    17   ar
    11    17    18   ar
    12    18    21    1
    13    21    22    1
    14    22    23    1
    15    23    24    1
    16    24    25    1
    17    25    26    1
    18    26    27    1
    19    18    19   ar
    20    19    20   ar
    21     8     9   ar
    22     9    10   ar
    23    10    11    1
    24    11    28    1
    25    28    30    1
    26    30    31   ar
    27    31    32   ar
    28    32    33   ar
    29    33    34   ar
    30    34    35   ar
    31    11    12    1
    32    12    13    1
    33    13    14    1
    34    13     4    1
    35    10     5   ar
    36    35    30   ar
    37    20    15   ar
    38    27    22    1
    39    28    29    1
