@<TRIPOS>MOLECULE
*****
 26 27 0 0 0
SMALL
GASTEIGER

@<TRIPOS>ATOM
      1 C          -5.9740  -15.3684   24.7495 C.2     1  UNL1        0.1957
      2 O          -5.5893  -14.5873   25.9710 O.2     1  UNL1       -0.2866
      3 C          -4.6713  -17.2230   23.4795 C.2     1  UNL1        0.0033
      4 C          -4.9253  -15.7707   23.7554 C.2     1  UNL1        0.0420
      5 C          -2.6839  -20.7372   20.2082 C.3     1  UNL1        0.0342
      6 C          -2.6288  -19.3824   20.8497 C.ar    1  UNL1        0.0115
      7 C          -3.6775  -18.9801   21.8438 C.ar    1  UNL1       -0.0013
      8 C          -3.6224  -17.6253   22.4854 C.ar    1  UNL1       -0.0003
      9 C          -2.5186  -16.6729   22.1328 C.ar    1  UNL1       -0.0013
     10 C          -1.4699  -17.0752   21.1387 C.ar    1  UNL1        0.0115
     11 C          -0.3660  -16.1227   20.7862 C.3     1  UNL1        0.0342
     12 C          -1.5250  -18.4299   20.4972 C.ar    1  UNL1        0.1256
     13 O          -0.4761  -18.8322   19.5031 O.3     1  UNL1       -0.5061
     14 H           0.2134  -18.2372   19.2828 H       1  UNL1        0.2922
     15 C          -7.4075  -15.7471   24.5221 C.2     1  UNL1        0.0420
     16 C          -7.8281  -16.3370   23.2086 C.2     1  UNL1        0.0033
     17 C          -9.2616  -16.7157   22.9813 C.ar    1  UNL1       -0.0003
     18 C          -9.9782  -16.2367   21.7536 C.ar    1  UNL1       -0.0013
     19 C         -11.4117  -16.6154   21.5262 C.ar    1  UNL1        0.0115
     20 C         -12.1283  -16.1364   20.2986 C.3     1  UNL1        0.0342
     21 C         -12.1286  -17.4730   22.5265 C.ar    1  UNL1        0.1256
     22 O         -13.5621  -17.8517   22.2991 O.3     1  UNL1       -0.5061
     23 C         -11.4120  -17.9520   23.7541 C.ar    1  UNL1        0.0115
     24 C         -12.1289  -18.8096   24.7543 C.3     1  UNL1        0.0342
     25 C          -9.9785  -17.5733   23.9815 C.ar    1  UNL1       -0.0013
     26 H         -14.0097  -17.5525   21.5322 H       1  UNL1        0.2922
@<TRIPOS>BOND
     1     5     6    1
     2     6     7   ar
     3     7     8   ar
     4     8     3    1
     5     3     4    2
     6     4     1    1
     7     1     2    2
     8     1    15    1
     9    15    16    2
    10    16    17    1
    11    17    18   ar
    12    18    19   ar
    13    19    20    1
    14    19    21   ar
    15    21    22    1
    16    21    23   ar
    17    23    24    1
    18    23    25   ar
    19     8     9   ar
    20     9    10   ar
    21    10    11    1
    22    10    12   ar
    23    12    13    1
    24    12     6   ar
    25    25    17   ar
    26    22    26    1
    27    13    14    1
@<TRIPOS>MOLECULE
*****
 26 27 0 0 0
SMALL
GASTEIGER

@<TRIPOS>ATOM
      1 C          -5.9666  -15.3943   24.7640 C.2     1  UNL1        0.1957
      2 O          -5.5948  -14.5978   25.9796 O.2     1  UNL1       -0.2866
      3 C          -4.7001  -17.2444   23.4514 C.2     1  UNL1        0.0033
      4 C          -4.9097  -15.7955   23.7782 C.2     1  UNL1        0.0420
      5 C          -2.6946  -20.7490   20.1809 C.3     1  UNL1        0.0342
      6 C          -2.6404  -19.3979   20.8303 C.ar    1  UNL1        0.0115
      7 C          -3.6973  -18.9967   21.8162 C.ar    1  UNL1       -0.0013
      8 C          -3.6431  -17.6456   22.4655 C.ar    1  UNL1       -0.0003
      9 C          -2.5320  -16.6958   22.1291 C.ar    1  UNL1       -0.0013
     10 C          -1.4751  -17.0971   21.1432 C.ar    1  UNL1        0.0115
     11 C          -0.3639  -16.1472   20.8067 C.3     1  UNL1        0.0342
     12 C          -1.5293  -18.4481   20.4938 C.ar    1  UNL1        0.1256
     13 O          -0.4723  -18.8493   19.5079 O.3     1  UNL1       -0.5061
     14 H           0.2217  -18.2560   19.2978 H       1  UNL1        0.2922
     15 C          -7.3952  -15.7894   24.5344 C.2     1  UNL1        0.0420
     16 C          -7.8350  -16.2588   23.1792 C.2     1  UNL1        0.0033
     17 C          -9.2637  -16.6539   22.9496 C.ar    1  UNL1       -0.0003
     18 C          -9.9725  -17.5192   23.9491 C.ar    1  UNL1       -0.0013
     19 C         -11.4011  -17.9144   23.7195 C.ar    1  UNL1        0.0115
     20 C         -12.1099  -18.7796   24.7189 C.3     1  UNL1        0.0342
     21 C         -12.1210  -17.4443   22.4903 C.ar    1  UNL1        0.1256
     22 O         -13.5497  -17.8395   22.2606 O.3     1  UNL1       -0.5061
     23 C         -11.4123  -16.5791   21.4908 C.ar    1  UNL1        0.0115
     24 C         -12.1322  -16.1091   20.2617 C.3     1  UNL1        0.0342
     25 C          -9.9836  -16.1839   21.7204 C.ar    1  UNL1       -0.0013
     26 H         -13.9925  -18.3800   22.8850 H       1  UNL1        0.2922
@<TRIPOS>BOND
     1     5     6    1
     2     6     7   ar
     3     7     8   ar
     4     8     3    1
     5     3     4    2
     6     4     1    1
     7     1     2    2
     8     1    15    1
     9    15    16    2
    10    16    17    1
    11    17    18   ar
    12    18    19   ar
    13    19    20    1
    14    19    21   ar
    15    21    22    1
    16    21    23   ar
    17    23    24    1
    18    23    25   ar
    19     8     9   ar
    20     9    10   ar
    21    10    11    1
    22    10    12   ar
    23    12    13    1
    24    12     6   ar
    25    25    17   ar
    26    22    26    1
    27    13    14    1
@<TRIPOS>MOLECULE
*****
 26 27 0 0 0
SMALL
GASTEIGER

@<TRIPOS>ATOM
      1 C          -6.0348  -15.4081   24.8141 C.2     1  UNL1        0.1957
      2 O          -5.6607  -14.6197   26.0342 O.2     1  UNL1       -0.2866
      3 C          -7.9036  -16.2839   23.2359 C.2     1  UNL1        0.0033
      4 C          -7.4626  -15.8086   24.5886 C.2     1  UNL1        0.0420
      5 C         -12.1601  -18.8324   24.7812 C.3     1  UNL1        0.0342
      6 C         -11.4597  -17.9587   23.7831 C.ar    1  UNL1        0.0115
      7 C         -10.0319  -17.5582   24.0085 C.ar    1  UNL1       -0.0013
      8 C          -9.3315  -16.6844   23.0105 C.ar    1  UNL1       -0.0003
      9 C         -10.0590  -16.2112   21.7871 C.ar    1  UNL1       -0.0013
     10 C         -11.4868  -16.6117   21.5616 C.ar    1  UNL1        0.0115
     11 C         -12.2143  -16.1385   20.3382 C.3     1  UNL1        0.0342
     12 C         -12.1872  -17.4855   22.5597 C.ar    1  UNL1        0.1256
     13 O         -13.6151  -17.8860   22.3342 O.3     1  UNL1       -0.5061
     14 H         -14.0695  -17.5903   21.5700 H       1  UNL1        0.2922
     15 C          -4.9810  -15.7960   23.8195 C.2     1  UNL1        0.0420
     16 C          -4.7273  -17.2442   23.5221 C.2     1  UNL1        0.0033
     17 C          -3.6735  -17.6321   22.5276 C.ar    1  UNL1       -0.0003
     18 C          -2.5794  -16.6668   22.1792 C.ar    1  UNL1       -0.0013
     19 C          -1.5256  -17.0547   21.1846 C.ar    1  UNL1        0.0115
     20 C          -0.4315  -16.0895   20.8362 C.3     1  UNL1        0.0342
     21 C          -1.5659  -18.4079   20.5385 C.ar    1  UNL1        0.1256
     22 O          -0.5121  -18.7957   19.5440 O.3     1  UNL1       -0.5061
     23 C          -2.6600  -19.3730   20.8869 C.ar    1  UNL1        0.0115
     24 C          -2.7002  -20.7261   20.2407 C.3     1  UNL1        0.0342
     25 C          -3.7137  -18.9852   21.8814 C.ar    1  UNL1       -0.0013
     26 H           0.1713  -18.1928   19.3263 H       1  UNL1        0.2922
@<TRIPOS>BOND
     1     5     6    1
     2     6     7   ar
     3     7     8   ar
     4     8     3    1
     5     3     4    2
     6     4     1    1
     7     1     2    2
     8     1    15    1
     9    15    16    2
    10    16    17    1
    11    17    18   ar
    12    18    19   ar
    13    19    20    1
    14    19    21   ar
    15    21    22    1
    16    21    23   ar
    17    23    24    1
    18    23    25   ar
    19     8     9   ar
    20     9    10   ar
    21    10    11    1
    22    10    12   ar
    23    12    13    1
    24    12     6   ar
    25    25    17   ar
    26    22    26    1
    27    13    14    1
@<TRIPOS>MOLECULE
*****
 26 27 0 0 0
SMALL
GASTEIGER

@<TRIPOS>ATOM
      1 C           0.6747    1.2800   22.3146 C.2     1  UNL1        0.1957
      2 O          -0.4738    1.9736   21.6438 O.2     1  UNL1       -0.2866
      3 C           0.2789    2.2012   24.7114 C.2     1  UNL1        0.0033
      4 C           0.6615    1.0729   23.8001 C.2     1  UNL1        0.0420
      5 C          -1.2880   -0.5002   28.8644 C.3     1  UNL1        0.0342
      6 C          -0.5177    0.6432   28.2734 C.ar    1  UNL1        0.0115
      7 C          -0.5045    0.8505   26.7879 C.ar    1  UNL1       -0.0013
      8 C           0.2657    1.9940   26.1970 C.ar    1  UNL1       -0.0003
      9 C           1.0227    2.9302   27.0916 C.ar    1  UNL1       -0.0013
     10 C           1.0095    2.7229   28.5771 C.ar    1  UNL1        0.0115
     11 C           1.7666    3.6592   29.4718 C.3     1  UNL1        0.0342
     12 C           0.2393    1.5795   29.1680 C.ar    1  UNL1        0.1256
     13 O           0.2261    1.3722   30.6536 O.3     1  UNL1       -0.5061
     14 H           0.6990    1.9571   31.2125 H       1  UNL1        0.2922
     15 C           1.8364    0.7937   21.4998 C.2     1  UNL1        0.0420
     16 C           1.7016   -0.4470   20.6675 C.2     1  UNL1        0.0033
     17 C           2.8633   -0.9334   19.8527 C.ar    1  UNL1       -0.0003
     18 C           3.1691   -2.4003   19.7837 C.ar    1  UNL1       -0.0013
     19 C           4.3308   -2.8867   18.9688 C.ar    1  UNL1        0.0115
     20 C           4.6367   -4.3535   18.8998 C.3     1  UNL1        0.0342
     21 C           5.1866   -1.9062   18.2230 C.ar    1  UNL1        0.1256
     22 O           6.3483   -2.3926   17.4082 O.3     1  UNL1       -0.5061
     23 C           4.8808   -0.4394   18.2920 C.ar    1  UNL1        0.0115
     24 C           5.7366    0.5411   17.5463 C.3     1  UNL1        0.0342
     25 C           3.7191    0.0470   19.1069 C.ar    1  UNL1       -0.0013
     26 H           6.5394   -3.3089   17.3651 H       1  UNL1        0.2922
@<TRIPOS>BOND
     1     5     6    1
     2     6     7   ar
     3     7     8   ar
     4     8     3    1
     5     3     4    2
     6     4     1    1
     7     1     2    2
     8     1    15    1
     9    15    16    2
    10    16    17    1
    11    17    18   ar
    12    18    19   ar
    13    19    20    1
    14    19    21   ar
    15    21    22    1
    16    21    23   ar
    17    23    24    1
    18    23    25   ar
    19     8     9   ar
    20     9    10   ar
    21    10    11    1
    22    10    12   ar
    23    12    13    1
    24    12     6   ar
    25    25    17   ar
    26    22    26    1
    27    13    14    1
@<TRIPOS>MOLECULE
*****
 26 27 0 0 0
SMALL
GASTEIGER

@<TRIPOS>ATOM
      1 C           0.6524    1.5520   22.6533 C.2     1  UNL1        0.1957
      2 O          -0.1381    2.6054   21.9352 O.2     1  UNL1       -0.2866
      3 C           0.8388    2.3322   25.1244 C.2     1  UNL1        0.0033
      4 C           0.4197    1.3055   24.1145 C.2     1  UNL1        0.0420
      5 C           1.7086    3.5798   30.0931 C.3     1  UNL1        0.0342
      6 C           1.0410    2.7094   29.0699 C.ar    1  UNL1        0.0115
      7 C           1.2737    2.9560   27.6088 C.ar    1  UNL1       -0.0013
      8 C           0.6061    2.0856   26.5857 C.ar    1  UNL1       -0.0003
      9 C          -0.2942    0.9687   27.0237 C.ar    1  UNL1       -0.0013
     10 C          -0.5269    0.7221   28.4848 C.ar    1  UNL1        0.0115
     11 C          -1.4272   -0.3949   28.9229 C.3     1  UNL1        0.0342
     12 C           0.1407    1.5925   29.5080 C.ar    1  UNL1        0.1256
     13 O          -0.0920    1.3459   30.9692 O.3     1  UNL1       -0.5061
     14 H          -0.6544    0.6481   31.2428 H       1  UNL1        0.2922
     15 C           1.6755    0.7453   21.9102 C.2     1  UNL1        0.0420
     16 C           1.4370    0.3674   20.4782 C.2     1  UNL1        0.0033
     17 C           2.4602   -0.4394   19.7351 C.ar    1  UNL1       -0.0003
     18 C           2.6089   -1.9052   20.0172 C.ar    1  UNL1       -0.0013
     19 C           3.6320   -2.7120   19.2741 C.ar    1  UNL1        0.0115
     20 C           3.7807   -4.1776   19.5562 C.3     1  UNL1        0.0342
     21 C           4.5065   -2.0530   18.2488 C.ar    1  UNL1        0.1256
     22 O           5.5297   -2.8598   17.5057 O.3     1  UNL1       -0.5061
     23 C           4.3578   -0.5873   17.9667 C.ar    1  UNL1        0.0115
     24 C           5.2323    0.0716   16.9415 C.3     1  UNL1        0.0342
     25 C           3.3347    0.2195   18.7099 C.ar    1  UNL1       -0.0013
     26 H           5.6225   -3.7754   17.6819 H       1  UNL1        0.2922
@<TRIPOS>BOND
     1     5     6    1
     2     6     7   ar
     3     7     8   ar
     4     8     3    1
     5     3     4    2
     6     4     1    1
     7     1     2    2
     8     1    15    1
     9    15    16    2
    10    16    17    1
    11    17    18   ar
    12    18    19   ar
    13    19    20    1
    14    19    21   ar
    15    21    22    1
    16    21    23   ar
    17    23    24    1
    18    23    25   ar
    19     8     9   ar
    20     9    10   ar
    21    10    11    1
    22    10    12   ar
    23    12    13    1
    24    12     6   ar
    25    25    17   ar
    26    22    26    1
    27    13    14    1
@<TRIPOS>MOLECULE
*****
 26 27 0 0 0
SMALL
GASTEIGER

@<TRIPOS>ATOM
      1 C           0.6389    1.3362   22.2447 C.2     1  UNL1        0.1957
      2 O          -0.5123    2.0196   21.5680 O.2     1  UNL1       -0.2866
      3 C           1.6932   -0.3876   20.6116 C.2     1  UNL1        0.0033
      4 C           1.8090    0.8602   21.4359 C.2     1  UNL1        0.0420
      5 C           4.6686   -4.2681   18.8543 C.3     1  UNL1        0.0342
      6 C           4.3511   -2.8038   18.9242 C.ar    1  UNL1        0.0115
      7 C           3.1809   -2.3279   19.7329 C.ar    1  UNL1       -0.0013
      8 C           2.8635   -0.8635   19.8028 C.ar    1  UNL1       -0.0003
      9 C           3.7162    0.1249   19.0640 C.ar    1  UNL1       -0.0013
     10 C           4.8864   -0.3510   18.2553 C.ar    1  UNL1        0.0115
     11 C           5.7392    0.6374   17.5165 C.3     1  UNL1        0.0342
     12 C           5.2038   -1.8154   18.1854 C.ar    1  UNL1        0.1256
     13 O           6.3741   -2.2913   17.3766 O.3     1  UNL1       -0.5061
     14 H           6.9068   -1.6739   16.9151 H       1  UNL1        0.2922
     15 C           0.6198    1.1288   23.7302 C.2     1  UNL1        0.0420
     16 C           0.3279    2.2814   24.6447 C.2     1  UNL1        0.0033
     17 C           0.3088    2.0740   26.1302 C.ar    1  UNL1       -0.0003
     18 C           1.0717    3.0034   27.0271 C.ar    1  UNL1       -0.0013
     19 C           1.0526    2.7960   28.5125 C.ar    1  UNL1        0.0115
     20 C           1.8155    3.7252   29.4094 C.3     1  UNL1        0.0342
     21 C           0.2706    1.6592   29.1011 C.ar    1  UNL1        0.1256
     22 O           0.2515    1.4518   30.5866 O.3     1  UNL1       -0.5061
     23 C          -0.4922    0.7299   28.2042 C.ar    1  UNL1        0.0115
     24 C          -1.2742   -0.4067   28.7928 C.3     1  UNL1        0.0342
     25 C          -0.4731    0.9373   26.7187 C.ar    1  UNL1       -0.0013
     26 H           0.7281    2.0323   31.1468 H       1  UNL1        0.2922
@<TRIPOS>BOND
     1     5     6    1
     2     6     7   ar
     3     7     8   ar
     4     8     3    1
     5     3     4    2
     6     4     1    1
     7     1     2    2
     8     1    15    1
     9    15    16    2
    10    16    17    1
    11    17    18   ar
    12    18    19   ar
    13    19    20    1
    14    19    21   ar
    15    21    22    1
    16    21    23   ar
    17    23    24    1
    18    23    25   ar
    19     8     9   ar
    20     9    10   ar
    21    10    11    1
    22    10    12   ar
    23    12    13    1
    24    12     6   ar
    25    25    17   ar
    26    22    26    1
    27    13    14    1
@<TRIPOS>MOLECULE
*****
 26 27 0 0 0
SMALL
GASTEIGER

@<TRIPOS>ATOM
      1 C           0.5340    1.6244   22.7717 C.2     1  UNL1        0.1957
      2 O          -0.0757    2.8199   22.1016 O.2     1  UNL1       -0.2866
      3 C           1.9274    1.0836   20.6467 C.2     1  UNL1        0.0033
      4 C           1.3789    0.6706   21.9803 C.2     1  UNL1        0.0420
      5 C           3.5025   -3.7654   19.6434 C.3     1  UNL1        0.0342
      6 C           3.5599   -2.2948   19.3536 C.ar    1  UNL1        0.0115
      7 C           2.7150   -1.3409   20.1450 C.ar    1  UNL1       -0.0013
      8 C           2.7723    0.1297   19.8552 C.ar    1  UNL1       -0.0003
      9 C           3.6746    0.6465   18.7741 C.ar    1  UNL1       -0.0013
     10 C           4.5195   -0.3073   17.9828 C.ar    1  UNL1        0.0115
     11 C           5.4218    0.2094   16.9016 C.3     1  UNL1        0.0342
     12 C           4.4621   -1.7780   18.2726 C.ar    1  UNL1        0.1256
     13 O           5.3071   -2.7318   17.4811 O.3     1  UNL1       -0.5061
     14 H           5.8707   -2.4090   16.8058 H       1  UNL1        0.2922
     15 C           0.2987    1.3827   24.2333 C.2     1  UNL1        0.0420
     16 C           0.8782    2.3198   25.2513 C.2     1  UNL1        0.0033
     17 C           0.6428    2.0781   26.7129 C.ar    1  UNL1       -0.0003
     18 C          -0.3206    1.0154   27.1517 C.ar    1  UNL1       -0.0013
     19 C          -0.5559    0.7737   28.6133 C.ar    1  UNL1        0.0115
     20 C          -1.5193   -0.2890   29.0522 C.3     1  UNL1        0.0342
     21 C           0.1722    1.5947   29.6360 C.ar    1  UNL1        0.1256
     22 O          -0.0631    1.3530   31.0976 O.3     1  UNL1       -0.5061
     23 C           1.1356    2.6573   29.1971 C.ar    1  UNL1        0.0115
     24 C           1.8637    3.4782   30.2198 C.3     1  UNL1        0.0342
     25 C           1.3709    2.8990   27.7355 C.ar    1  UNL1       -0.0013
     26 H          -0.6649    0.6892   31.3717 H       1  UNL1        0.2922
@<TRIPOS>BOND
     1     5     6    1
     2     6     7   ar
     3     7     8   ar
     4     8     3    1
     5     3     4    2
     6     4     1    1
     7     1     2    2
     8     1    15    1
     9    15    16    2
    10    16    17    1
    11    17    18   ar
    12    18    19   ar
    13    19    20    1
    14    19    21   ar
    15    21    22    1
    16    21    23   ar
    17    23    24    1
    18    23    25   ar
    19     8     9   ar
    20     9    10   ar
    21    10    11    1
    22    10    12   ar
    23    12    13    1
    24    12     6   ar
    25    25    17   ar
    26    22    26    1
    27    13    14    1
@<TRIPOS>MOLECULE
*****
 26 27 0 0 0
SMALL
GASTEIGER

@<TRIPOS>ATOM
      1 C           0.5151    1.8250   22.3290 C.2     1  UNL1        0.1957
      2 O          -0.4969    2.7939   21.7931 O.2     1  UNL1       -0.2866
      3 C           1.7876   -0.2906   21.5197 C.2     1  UNL1        0.0033
      4 C           1.4977    1.1762   21.3998 C.2     1  UNL1        0.0420
      5 C           3.8420   -0.7834   16.7724 C.3     1  UNL1        0.0342
      6 C           3.7974   -1.1857   18.2168 C.ar    1  UNL1        0.0115
      7 C           2.8148   -0.5370   19.1461 C.ar    1  UNL1       -0.0013
      8 C           2.7703   -0.9394   20.5904 C.ar    1  UNL1       -0.0003
      9 C           3.7083   -1.9904   21.1055 C.ar    1  UNL1       -0.0013
     10 C           4.6909   -2.6391   20.1762 C.ar    1  UNL1        0.0115
     11 C           5.6290   -3.6902   20.6912 C.3     1  UNL1        0.0342
     12 C           4.7355   -2.2368   18.7318 C.ar    1  UNL1        0.1256
     13 O           5.7181   -2.8855   17.8025 O.3     1  UNL1       -0.5061
     14 H           6.3041   -3.5421   18.1243 H       1  UNL1        0.2922
     15 C           0.5444    1.5049   23.7941 C.2     1  UNL1        0.0420
     16 C           0.1553    2.5494   24.7980 C.2     1  UNL1        0.0033
     17 C           0.1846    2.2293   26.2631 C.ar    1  UNL1       -0.0003
     18 C           0.9428    3.1129   27.2089 C.ar    1  UNL1       -0.0013
     19 C           0.9721    2.7928   28.6740 C.ar    1  UNL1        0.0115
     20 C           1.7303    3.6764   29.6197 C.3     1  UNL1        0.0342
     21 C           0.2432    1.5891   29.1934 C.ar    1  UNL1        0.1256
     22 O           0.2725    1.2690   30.6586 O.3     1  UNL1       -0.5061
     23 C          -0.5151    0.7055   28.2477 C.ar    1  UNL1        0.0115
     24 C          -1.2440   -0.4981   28.7672 C.3     1  UNL1        0.0342
     25 C          -0.5444    1.0257   26.7826 C.ar    1  UNL1       -0.0013
     26 H           0.7461    1.8209   31.2493 H       1  UNL1        0.2922
@<TRIPOS>BOND
     1     5     6    1
     2     6     7   ar
     3     7     8   ar
     4     8     3    1
     5     3     4    2
     6     4     1    1
     7     1     2    2
     8     1    15    1
     9    15    16    2
    10    16    17    1
    11    17    18   ar
    12    18    19   ar
    13    19    20    1
    14    19    21   ar
    15    21    22    1
    16    21    23   ar
    17    23    24    1
    18    23    25   ar
    19     8     9   ar
    20     9    10   ar
    21    10    11    1
    22    10    12   ar
    23    12    13    1
    24    12     6   ar
    25    25    17   ar
    26    22    26    1
    27    13    14    1
@<TRIPOS>MOLECULE
*****
 26 27 0 0 0
SMALL
GASTEIGER

@<TRIPOS>ATOM
      1 C           0.8066    2.2672   19.9471 C.2     1  UNL1        0.1957
      2 O           0.9866    3.3515   18.9263 O.2     1  UNL1       -0.2866
      3 C          -0.7224    3.5070   21.6427 C.2     1  UNL1        0.0033
      4 C          -0.3917    2.2777   20.8492 C.2     1  UNL1        0.0420
      5 C          -5.8790    3.6149   22.2738 C.3     1  UNL1        0.0342
      6 C          -4.4991    3.5714   22.8603 C.ar    1  UNL1        0.0115
      7 C          -3.3007    3.5609   21.9583 C.ar    1  UNL1       -0.0013
      8 C          -1.9208    3.5175   22.5448 C.ar    1  UNL1       -0.0003
      9 C          -1.7393    3.4845   24.0334 C.ar    1  UNL1       -0.0013
     10 C          -2.9377    3.4950   24.9354 C.ar    1  UNL1        0.0115
     11 C          -2.7562    3.4620   26.4241 C.3     1  UNL1        0.0342
     12 C          -4.3176    3.5384   24.3489 C.ar    1  UNL1        0.1256
     13 O          -5.5160    3.5489   25.2510 O.3     1  UNL1       -0.5061
     14 H          -5.4026    3.5283   26.1809 H       1  UNL1        0.2922
     15 C           1.8251    1.1724   20.0658 C.2     1  UNL1        0.0420
     16 C           1.5739    0.0102   20.9803 C.2     1  UNL1        0.0033
     17 C           2.5923   -1.0847   21.0989 C.ar    1  UNL1       -0.0003
     18 C           3.2751   -1.3349   22.4109 C.ar    1  UNL1       -0.0013
     19 C           4.2936   -2.4297   22.5295 C.ar    1  UNL1        0.0115
     20 C           4.9763   -2.6800   23.8415 C.3     1  UNL1        0.0342
     21 C           4.6293   -3.2743   21.3362 C.ar    1  UNL1        0.1256
     22 O           5.6478   -4.3691   21.4548 O.3     1  UNL1       -0.5061
     23 C           3.9466   -3.0240   20.0242 C.ar    1  UNL1        0.0115
     24 C           4.2824   -3.8685   18.8309 C.3     1  UNL1        0.0342
     25 C           2.9281   -1.9292   19.9056 C.ar    1  UNL1       -0.0013
     26 H           6.0743   -4.5255   22.2743 H       1  UNL1        0.2922
@<TRIPOS>BOND
     1     5     6    1
     2     6     7   ar
     3     7     8   ar
     4     8     3    1
     5     3     4    2
     6     4     1    1
     7     1     2    2
     8     1    15    1
     9    15    16    2
    10    16    17    1
    11    17    18   ar
    12    18    19   ar
    13    19    20    1
    14    19    21   ar
    15    21    22    1
    16    21    23   ar
    17    23    24    1
    18    23    25   ar
    19     8     9   ar
    20     9    10   ar
    21    10    11    1
    22    10    12   ar
    23    12    13    1
    24    12     6   ar
    25    25    17   ar
    26    22    26    1
    27    13    14    1
