@<TRIPOS>MOLECULE
*****
 25 27 0 0 0
SMALL
GASTEIGER

@<TRIPOS>ATOM
      1 C           0.9890    3.7327   18.7809 C.2     1  UNL1        0.0412
      2 C           1.7244    2.4394   18.9718 C.2     1  UNL1       -0.0326
      3 C           0.9687    1.1913   19.3198 C.3     1  UNL1        0.0442
      4 C           1.7041   -0.1020   19.5108 C.3     1  UNL1        0.0967
      5 N           3.1952   -0.1472   19.3538 N.pl3   1  UNL1       -0.2877
      6 C           3.9509    1.1009   19.0058 C.3     1  UNL1        0.0967
      7 C           3.2154    2.3943   18.8148 C.3     1  UNL1        0.0442
      8 C           3.9306   -1.4405   19.5448 C.ar    1  UNL1        0.2023
      9 N           3.7707   -2.2129   20.8206 N.ar    1  UNL1       -0.2235
     10 C           4.5061   -3.5062   21.0116 C.ar    1  UNL1        0.1007
     11 C           5.4015   -4.0272   19.9267 C.ar    1  UNL1        0.0271
     12 C           5.5614   -3.2548   18.6509 C.ar    1  UNL1        0.0799
     13 C           4.8260   -1.9614   18.4599 C.ar    1  UNL1        0.3211
     14 N           4.9859   -1.1890   17.1841 N.pl3   1  UNL1        0.0839
     15 O           6.2992   -0.5413   16.8591 O.2     1  UNL1        0.0416
     16 O           3.8325   -1.0643   16.2332 O.co2   1  UNL1       -0.5759
     17 C          -1.9932    3.8231   19.0948 C.1     1  UNL1       -0.0405
     18 C          -0.5021    3.7779   18.9378 C.1     1  UNL1       -0.0583
     19 C          -6.1906    4.0949   22.1457 C.3     1  UNL1        0.0521
     20 C          -5.5830    4.0042   20.7772 C.ar    1  UNL1        0.0600
     21 C          -6.4664    3.9587   19.5659 C.ar    1  UNL1        0.0148
     22 C          -5.8588    3.8679   18.1975 C.ar    1  UNL1        0.0034
     23 C          -4.3677    3.8227   18.0404 C.ar    1  UNL1        0.0276
     24 C          -3.4843    3.8683   19.2518 C.ar    1  UNL1        0.1224
     25 N          -4.0920    3.9590   20.6202 N.ar    1  UNL1       -0.2414
@<TRIPOS>UNITY_ATOM_ATTR
14 1
charge 1
16 1
charge -1
@<TRIPOS>BOND
     1    19    20    1
     2    20    21   ar
     3    21    22   ar
     4    22    23   ar
     5    23    24   ar
     6    24    17    1
     7    17    18    3
     8    18     1    1
     9     1     2    2
    10     2     3    1
    11     3     4    1
    12     4     5    1
    13     5     8    1
    14     8     9   ar
    15     9    10   ar
    16    10    11   ar
    17    11    12   ar
    18    12    13   ar
    19    13    14    1
    20    14    15    2
    21    14    16    1
    22     5     6    1
    23     6     7    1
    24    24    25   ar
    25    25    20   ar
    26     7     2    1
    27    13     8   ar
@<TRIPOS>MOLECULE
*****
 25 27 0 0 0
SMALL
GASTEIGER

@<TRIPOS>ATOM
      1 C           0.0091    2.9684   18.9673 C.2     1  UNL1        0.0412
      2 C           0.8088    1.7220   19.2063 C.2     1  UNL1       -0.0326
      3 C           0.3264    0.6987   20.1912 C.3     1  UNL1        0.0442
      4 C           1.1261   -0.5476   20.4301 C.3     1  UNL1        0.0967
      5 N           2.4082   -0.7707   19.6841 N.pl3   1  UNL1       -0.2877
      6 C           2.8906    0.2527   18.6991 C.3     1  UNL1        0.0967
      7 C           2.0908    1.4990   18.4602 C.3     1  UNL1        0.0442
      8 C           3.2079   -2.0170   19.9230 C.ar    1  UNL1        0.2023
      9 N           3.1690   -3.1360   18.9248 N.ar    1  UNL1       -0.2235
     10 C           3.9687   -4.3823   19.1637 C.ar    1  UNL1        0.1007
     11 C           4.8073   -4.5097   20.4009 C.ar    1  UNL1        0.0271
     12 C           4.8462   -3.3908   21.3991 C.ar    1  UNL1        0.0799
     13 C           4.0464   -2.1444   21.1601 C.ar    1  UNL1        0.3211
     14 N           4.0853   -1.0254   22.1583 N.pl3   1  UNL1        0.0839
     15 O           5.0862    0.0813   22.0057 O.2     1  UNL1        0.0416
     16 O           3.1233   -1.0133   23.3092 O.co2   1  UNL1       -0.5759
     17 C          -2.5550    3.4145   20.4594 C.1     1  UNL1       -0.0405
     18 C          -1.2730    3.1914   19.7134 C.1     1  UNL1       -0.0583
     19 C          -5.1724    3.6372   24.9427 C.3     1  UNL1        0.0521
     20 C          -5.1458    3.7489   23.4471 C.ar    1  UNL1        0.0600
     21 C          -6.4012    4.0836   22.6975 C.ar    1  UNL1        0.0148
     22 C          -6.3746    4.1953   21.2019 C.ar    1  UNL1        0.0034
     23 C          -5.0926    3.9723   20.4559 C.ar    1  UNL1        0.0276
     24 C          -3.8372    3.6376   21.2054 C.ar    1  UNL1        0.1224
     25 N          -3.8638    3.5259   22.7010 N.ar    1  UNL1       -0.2414
@<TRIPOS>UNITY_ATOM_ATTR
14 1
charge 1
16 1
charge -1
@<TRIPOS>BOND
     1    19    20    1
     2    20    21   ar
     3    21    22   ar
     4    22    23   ar
     5    23    24   ar
     6    24    17    1
     7    17    18    3
     8    18     1    1
     9     1     2    2
    10     2     3    1
    11     3     4    1
    12     4     5    1
    13     5     8    1
    14     8     9   ar
    15     9    10   ar
    16    10    11   ar
    17    11    12   ar
    18    12    13   ar
    19    13    14    1
    20    14    15    2
    21    14    16    1
    22     5     6    1
    23     6     7    1
    24    24    25   ar
    25    25    20   ar
    26     7     2    1
    27    13     8   ar
@<TRIPOS>MOLECULE
*****
 25 27 0 0 0
SMALL
GASTEIGER

@<TRIPOS>ATOM
      1 C           6.8886   -5.7810   28.4551 C.2     1  UNL1        0.0412
      2 C           6.8599   -4.7689   29.5618 C.2     1  UNL1       -0.0326
      3 C           6.8012   -3.3054   29.2384 C.3     1  UNL1        0.0442
      4 C           6.7725   -2.2933   30.3451 C.3     1  UNL1        0.0967
      5 N           6.8025   -2.7447   31.7753 N.pl3   1  UNL1       -0.2877
      6 C           6.8612   -4.2083   32.0987 C.3     1  UNL1        0.0967
      7 C           6.8899   -5.2204   30.9919 C.3     1  UNL1        0.0442
      8 C           6.7738   -1.7327   32.8820 C.ar    1  UNL1        0.2023
      9 N           8.0491   -1.0961   33.3494 N.ar    1  UNL1       -0.2235
     10 C           8.0204   -0.0840   34.4561 C.ar    1  UNL1        0.1007
     11 C           6.7164    0.2915   35.0955 C.ar    1  UNL1        0.0271
     12 C           5.4412   -0.3451   34.6281 C.ar    1  UNL1        0.0799
     13 C           5.4699   -1.3572   33.5213 C.ar    1  UNL1        0.3211
     14 N           4.1947   -1.9938   33.0539 N.pl3   1  UNL1        0.0839
     15 O           3.4303   -1.3917   31.9124 O.2     1  UNL1        0.0416
     16 O           3.6838   -3.2326   33.7281 O.co2   1  UNL1       -0.5759
     17 C           6.8286   -4.8782   25.5948 C.1     1  UNL1       -0.0405
     18 C           6.8586   -5.3295   27.0249 C.1     1  UNL1       -0.0583
     19 C           9.0213   -4.6928   20.8876 C.3     1  UNL1        0.0521
     20 C           7.8950   -4.3341   21.8110 C.ar    1  UNL1        0.0600
     21 C           6.7388   -3.5239   21.3044 C.ar    1  UNL1        0.0148
     22 C           5.6125   -3.1652   22.2278 C.ar    1  UNL1        0.0034
     23 C           5.6424   -3.6166   23.6580 C.ar    1  UNL1        0.0276
     24 C           6.7986   -4.4267   24.1646 C.ar    1  UNL1        0.1224
     25 N           7.9249   -4.7855   23.2412 N.ar    1  UNL1       -0.2414
@<TRIPOS>UNITY_ATOM_ATTR
14 1
charge 1
16 1
charge -1
@<TRIPOS>BOND
     1    19    20    1
     2    20    21   ar
     3    21    22   ar
     4    22    23   ar
     5    23    24   ar
     6    24    17    1
     7    17    18    3
     8    18     1    1
     9     1     2    2
    10     2     3    1
    11     3     4    1
    12     4     5    1
    13     5     8    1
    14     8     9   ar
    15     9    10   ar
    16    10    11   ar
    17    11    12   ar
    18    12    13   ar
    19    13    14    1
    20    14    15    2
    21    14    16    1
    22     5     6    1
    23     6     7    1
    24    24    25   ar
    25    25    20   ar
    26     7     2    1
    27    13     8   ar
@<TRIPOS>MOLECULE
*****
 25 27 0 0 0
SMALL
GASTEIGER

@<TRIPOS>ATOM
      1 C          -4.9588  -15.5365   24.0573 C.2     1  UNL1        0.0412
      2 C          -6.4055  -15.9187   23.9532 C.2     1  UNL1       -0.0326
      3 C          -6.8740  -16.7792   22.8174 C.3     1  UNL1        0.0442
      4 C          -8.3207  -17.1614   22.7133 C.3     1  UNL1        0.0967
      5 N          -9.2990  -16.6831   23.7450 N.pl3   1  UNL1       -0.2877
      6 C          -8.8305  -15.8226   24.8807 C.3     1  UNL1        0.0967
      7 C          -7.3837  -15.4404   24.9848 C.3     1  UNL1        0.0442
      8 C         -10.7457  -17.0653   23.6408 C.ar    1  UNL1        0.2023
      9 N         -11.6965  -16.1995   22.8685 N.ar    1  UNL1       -0.2235
     10 C         -13.1432  -16.5817   22.7643 C.ar    1  UNL1        0.1007
     11 C         -13.6392  -17.8298   23.4326 C.ar    1  UNL1        0.0271
     12 C         -12.6884  -18.6955   24.2049 C.ar    1  UNL1        0.0799
     13 C         -11.2417  -18.3133   24.3090 C.ar    1  UNL1        0.3211
     14 N         -10.2909  -19.1790   25.0813 N.pl3   1  UNL1        0.0839
     15 O          -9.5780  -18.6265   26.2798 O.2     1  UNL1        0.0416
     16 O         -10.0530  -20.5975   24.6551 O.co2   1  UNL1       -0.5759
     17 C          -3.0023  -16.4930   21.9940 C.1     1  UNL1       -0.0405
     18 C          -3.9805  -16.0148   23.0257 C.1     1  UNL1       -0.0583
     19 C          -1.8986  -17.7220   17.0674 C.3     1  UNL1        0.0521
     20 C          -1.4722  -17.5858   18.4991 C.ar    1  UNL1        0.0600
     21 C          -0.0676  -17.9278   18.8990 C.ar    1  UNL1        0.0148
     22 C           0.3588  -17.7916   20.3307 C.ar    1  UNL1        0.0034
     23 C          -0.6194  -17.3133   21.3623 C.ar    1  UNL1        0.0276
     24 C          -2.0240  -16.9713   20.9624 C.ar    1  UNL1        0.1224
     25 N          -2.4504  -17.1075   19.5307 N.ar    1  UNL1       -0.2414
@<TRIPOS>UNITY_ATOM_ATTR
14 1
charge 1
16 1
charge -1
@<TRIPOS>BOND
     1    19    20    1
     2    20    21   ar
     3    21    22   ar
     4    22    23   ar
     5    23    24   ar
     6    24    17    1
     7    17    18    3
     8    18     1    1
     9     1     2    2
    10     2     3    1
    11     3     4    1
    12     4     5    1
    13     5     8    1
    14     8     9   ar
    15     9    10   ar
    16    10    11   ar
    17    11    12   ar
    18    12    13   ar
    19    13    14    1
    20    14    15    2
    21    14    16    1
    22     5     6    1
    23     6     7    1
    24    24    25   ar
    25    25    20   ar
    26     7     2    1
    27    13     8   ar
@<TRIPOS>MOLECULE
*****
 25 27 0 0 0
SMALL
GASTEIGER

@<TRIPOS>ATOM
      1 C           7.6176   -0.2124   34.8540 C.2     1  UNL1        0.0412
      2 C           7.4374   -1.0261   33.6069 C.2     1  UNL1       -0.0326
      3 C           6.0591   -1.2955   33.0797 C.3     1  UNL1        0.0442
      4 C           5.8789   -2.1092   31.8326 C.3     1  UNL1        0.0967
      5 N           7.0769   -2.6536   31.1125 N.pl3   1  UNL1       -0.2877
      6 C           8.4552   -2.3842   31.6397 C.3     1  UNL1        0.0967
      7 C           8.6354   -1.5704   32.8869 C.3     1  UNL1        0.0442
      8 C           6.8967   -3.4673   29.8654 C.ar    1  UNL1        0.2023
      9 N           6.4711   -2.8015   28.5904 N.ar    1  UNL1       -0.2235
     10 C           6.2909   -3.6152   27.3433 C.ar    1  UNL1        0.1007
     11 C           6.5363   -5.0948   27.3711 C.ar    1  UNL1        0.0271
     12 C           6.9619   -5.7606   28.6461 C.ar    1  UNL1        0.0799
     13 C           7.1421   -4.9468   29.8933 C.ar    1  UNL1        0.3211
     14 N           7.5677   -5.6126   31.1683 N.pl3   1  UNL1        0.0839
     15 O           9.0251   -5.7268   31.5045 O.2     1  UNL1        0.0416
     16 O           6.5359   -6.1642   32.1070 O.co2   1  UNL1       -0.5759
     17 C           5.2215    0.8762   36.2940 C.1     1  UNL1       -0.0405
     18 C           6.4195    0.3319   35.5740 C.1     1  UNL1       -0.0583
     19 C           1.2854    0.2132   39.6208 C.3     1  UNL1        0.0521
     20 C           2.0555    1.0890   38.6775 C.ar    1  UNL1        0.0600
     21 C           1.6275    2.5092   38.4542 C.ar    1  UNL1        0.0148
     22 C           2.3975    3.3851   37.5108 C.ar    1  UNL1        0.0034
     23 C           3.5955    2.8408   36.7908 C.ar    1  UNL1        0.0276
     24 C           4.0235    1.4206   37.0141 C.ar    1  UNL1        0.1224
     25 N           3.2534    0.5447   37.9575 N.ar    1  UNL1       -0.2414
@<TRIPOS>UNITY_ATOM_ATTR
14 1
charge 1
16 1
charge -1
@<TRIPOS>BOND
     1    19    20    1
     2    20    21   ar
     3    21    22   ar
     4    22    23   ar
     5    23    24   ar
     6    24    17    1
     7    17    18    3
     8    18     1    1
     9     1     2    2
    10     2     3    1
    11     3     4    1
    12     4     5    1
    13     5     8    1
    14     8     9   ar
    15     9    10   ar
    16    10    11   ar
    17    11    12   ar
    18    12    13   ar
    19    13    14    1
    20    14    15    2
    21    14    16    1
    22     5     6    1
    23     6     7    1
    24    24    25   ar
    25    25    20   ar
    26     7     2    1
    27    13     8   ar
@<TRIPOS>MOLECULE
*****
 25 27 0 0 0
SMALL
GASTEIGER

@<TRIPOS>ATOM
      1 C           4.5787   -0.9877   33.8259 C.2     1  UNL1        0.0412
      2 C           4.6485    0.0347   34.9212 C.2     1  UNL1       -0.0326
      3 C           3.9765    1.3648   34.7496 C.3     1  UNL1        0.0442
      4 C           4.0463    2.3872   35.8448 C.3     1  UNL1        0.0967
      5 N           4.7881    2.0796   37.1118 N.pl3   1  UNL1       -0.2877
      6 C           5.4601    0.7496   37.2835 C.3     1  UNL1        0.0967
      7 C           5.3903   -0.2729   36.1881 C.3     1  UNL1        0.0442
      8 C           4.8580    3.1021   38.2071 C.ar    1  UNL1        0.2023
      9 N           6.0984    3.9263   38.3858 N.ar    1  UNL1       -0.2235
     10 C           6.1682    4.9488   39.4810 C.ar    1  UNL1        0.1007
     11 C           4.9975    5.1471   40.3977 C.ar    1  UNL1        0.0271
     12 C           3.7571    4.3228   40.2191 C.ar    1  UNL1        0.0799
     13 C           3.6873    3.3003   39.1237 C.ar    1  UNL1        0.3211
     14 N           2.4469    2.4761   38.9451 N.pl3   1  UNL1        0.0839
     15 O           1.3069    3.0044   38.1258 O.2     1  UNL1        0.0416
     16 O           2.3464    1.1235   39.5858 O.co2   1  UNL1       -0.5759
     17 C           3.0952   -0.3726   31.2920 C.1     1  UNL1       -0.0405
     18 C           3.8369   -0.6802   32.5589 C.1     1  UNL1       -0.0583
     19 C          -1.3618   -0.1356   28.6313 C.3     1  UNL1        0.0521
     20 C           0.1249    0.0534   28.6947 C.ar    1  UNL1        0.0600
     21 C           0.8698    0.5500   27.4912 C.ar    1  UNL1        0.0148
     22 C           2.3564    0.7390   27.5546 C.ar    1  UNL1        0.0034
     23 C           3.0982    0.4315   28.8215 C.ar    1  UNL1        0.0276
     24 C           2.3534   -0.0651   30.0250 C.ar    1  UNL1        0.1224
     25 N           0.8667   -0.2541   29.9616 N.ar    1  UNL1       -0.2414
@<TRIPOS>UNITY_ATOM_ATTR
14 1
charge 1
16 1
charge -1
@<TRIPOS>BOND
     1    19    20    1
     2    20    21   ar
     3    21    22   ar
     4    22    23   ar
     5    23    24   ar
     6    24    17    1
     7    17    18    3
     8    18     1    1
     9     1     2    2
    10     2     3    1
    11     3     4    1
    12     4     5    1
    13     5     8    1
    14     8     9   ar
    15     9    10   ar
    16    10    11   ar
    17    11    12   ar
    18    12    13   ar
    19    13    14    1
    20    14    15    2
    21    14    16    1
    22     5     6    1
    23     6     7    1
    24    24    25   ar
    25    25    20   ar
    26     7     2    1
    27    13     8   ar
@<TRIPOS>MOLECULE
*****
 25 27 0 0 0
SMALL
GASTEIGER

@<TRIPOS>ATOM
      1 C           6.5829   -4.4755   23.7527 C.2     1  UNL1        0.0412
      2 C           5.7216   -3.6236   22.8681 C.2     1  UNL1       -0.0326
      3 C           4.8600   -2.5519   23.4674 C.3     1  UNL1        0.0442
      4 C           3.9988   -1.7000   22.5828 C.3     1  UNL1        0.0967
      5 N           3.9991   -1.9198   21.0990 N.pl3   1  UNL1       -0.2877
      6 C           4.8606   -2.9915   20.4997 C.3     1  UNL1        0.0967
      7 C           5.7220   -3.8434   21.3844 C.3     1  UNL1        0.0442
      8 C           3.1378   -1.0679   20.2145 C.ar    1  UNL1        0.2023
      9 N           1.6887   -0.8679   20.5463 N.ar    1  UNL1       -0.2235
     10 C           0.8274   -0.0160   19.6617 C.ar    1  UNL1        0.1007
     11 C           1.4152    0.6359   18.4453 C.ar    1  UNL1        0.0271
     12 C           2.8643    0.4359   18.1135 C.ar    1  UNL1        0.0799
     13 C           3.7256   -0.4161   18.9981 C.ar    1  UNL1        0.3211
     14 N           5.1747   -0.6161   18.6663 N.pl3   1  UNL1        0.0839
     15 O           5.5660   -1.4880   17.5102 O.2     1  UNL1        0.0416
     16 O           6.2326    0.0558   19.4907 O.co2   1  UNL1       -0.5759
     17 C           6.5823   -4.0360   26.7203 C.1     1  UNL1       -0.0405
     18 C           6.5826   -4.2557   25.2365 C.1     1  UNL1       -0.0583
     19 C           7.1279   -5.8892   31.5440 C.3     1  UNL1        0.0521
     20 C           6.8548   -4.7428   30.6160 C.ar    1  UNL1        0.0600
     21 C           6.5814   -3.3767   31.1717 C.ar    1  UNL1        0.0148
     22 C           6.3084   -2.2303   30.2437 C.ar    1  UNL1        0.0034
     23 C           6.3086   -2.4500   28.7599 C.ar    1  UNL1        0.0276
     24 C           6.5820   -3.8162   28.2042 C.ar    1  UNL1        0.1224
     25 N           6.8551   -4.9626   29.1322 N.ar    1  UNL1       -0.2414
@<TRIPOS>UNITY_ATOM_ATTR
14 1
charge 1
16 1
charge -1
@<TRIPOS>BOND
     1    19    20    1
     2    20    21   ar
     3    21    22   ar
     4    22    23   ar
     5    23    24   ar
     6    24    17    1
     7    17    18    3
     8    18     1    1
     9     1     2    2
    10     2     3    1
    11     3     4    1
    12     4     5    1
    13     5     8    1
    14     8     9   ar
    15     9    10   ar
    16    10    11   ar
    17    11    12   ar
    18    12    13   ar
    19    13    14    1
    20    14    15    2
    21    14    16    1
    22     5     6    1
    23     6     7    1
    24    24    25   ar
    25    25    20   ar
    26     7     2    1
    27    13     8   ar
@<TRIPOS>MOLECULE
*****
 25 27 0 0 0
SMALL
GASTEIGER

@<TRIPOS>ATOM
      1 C           7.6558   -0.3249   34.6668 C.2     1  UNL1        0.0412
      2 C           6.4883    0.0763   35.5188 C.2     1  UNL1       -0.0326
      3 C           5.1290   -0.4965   35.2462 C.3     1  UNL1        0.0442
      4 C           3.9615   -0.0952   36.0982 C.3     1  UNL1        0.0967
      5 N           4.1532    0.8788   37.2227 N.pl3   1  UNL1       -0.2877
      6 C           5.5125    1.4515   37.4953 C.3     1  UNL1        0.0967
      7 C           6.6801    1.0503   36.6433 C.3     1  UNL1        0.0442
      8 C           2.9857    1.2800   38.0747 C.ar    1  UNL1        0.2023
      9 N           2.6045    0.4493   39.2641 N.ar    1  UNL1       -0.2235
     10 C           1.4370    0.8505   40.1160 C.ar    1  UNL1        0.1007
     11 C           0.6506    2.0825   39.7786 C.ar    1  UNL1        0.0271
     12 C           1.0317    2.9132   38.5892 C.ar    1  UNL1        0.0799
     13 C           2.1993    2.5119   37.7373 C.ar    1  UNL1        0.3211
     14 N           2.5805    3.3427   36.5479 N.pl3   1  UNL1        0.0839
     15 O           3.5533    4.4737   36.7037 O.2     1  UNL1        0.0416
     16 O           1.9887    3.0423   35.2026 O.co2   1  UNL1       -0.5759
     17 C           7.2723   -2.2729   32.4177 C.1     1  UNL1       -0.0405
     18 C           7.4641   -1.2989   33.5422 C.1     1  UNL1       -0.0583
     19 C           6.3394   -3.2197   27.3944 C.3     1  UNL1        0.0521
     20 C           6.6141   -3.7203   28.7815 C.ar    1  UNL1        0.0600
     21 C           6.6971   -5.1948   29.0440 C.ar    1  UNL1        0.0148
     22 C           6.9718   -5.6953   30.4311 C.ar    1  UNL1        0.0034
     23 C           7.1635   -4.7214   31.5556 C.ar    1  UNL1        0.0276
     24 C           7.0806   -3.2469   31.2931 C.ar    1  UNL1        0.1224
     25 N           6.8059   -2.7464   29.9060 N.ar    1  UNL1       -0.2414
@<TRIPOS>UNITY_ATOM_ATTR
14 1
charge 1
16 1
charge -1
@<TRIPOS>BOND
     1    19    20    1
     2    20    21   ar
     3    21    22   ar
     4    22    23   ar
     5    23    24   ar
     6    24    17    1
     7    17    18    3
     8    18     1    1
     9     1     2    2
    10     2     3    1
    11     3     4    1
    12     4     5    1
    13     5     8    1
    14     8     9   ar
    15     9    10   ar
    16    10    11   ar
    17    11    12   ar
    18    12    13   ar
    19    13    14    1
    20    14    15    2
    21    14    16    1
    22     5     6    1
    23     6     7    1
    24    24    25   ar
    25    25    20   ar
    26     7     2    1
    27    13     8   ar
@<TRIPOS>MOLECULE
*****
 25 27 0 0 0
SMALL
GASTEIGER

@<TRIPOS>ATOM
      1 C           7.3509   -4.6064   26.2317 C.2     1  UNL1        0.0412
      2 C           7.0515   -3.9584   27.5510 C.2     1  UNL1       -0.0326
      3 C           5.9928   -2.8999   27.6436 C.3     1  UNL1        0.0442
      4 C           5.6934   -2.2520   28.9628 C.3     1  UNL1        0.0967
      5 N           6.4527   -2.6626   30.1896 N.pl3   1  UNL1       -0.2877
      6 C           7.5114   -3.7211   30.0970 C.3     1  UNL1        0.0967
      7 C           7.8108   -4.3691   28.7777 C.3     1  UNL1        0.0442
      8 C           6.1533   -2.0147   31.5089 C.ar    1  UNL1        0.2023
      9 N           5.0489   -2.5477   32.3728 N.ar    1  UNL1       -0.2235
     10 C           4.7495   -1.8997   33.6920 C.ar    1  UNL1        0.1007
     11 C           5.5545   -0.7187   34.1475 C.ar    1  UNL1        0.0271
     12 C           6.6588   -0.1857   33.2836 C.ar    1  UNL1        0.0799
     13 C           6.9582   -0.8337   31.9642 C.ar    1  UNL1        0.3211
     14 N           8.0626   -0.3007   31.1004 N.pl3   1  UNL1        0.0839
     15 O           7.7560    0.6927   30.0192 O.2     1  UNL1        0.0416
     16 O           9.4736   -0.7612   31.3177 O.co2   1  UNL1       -0.5759
     17 C           5.8323   -3.7851   23.7782 C.1     1  UNL1       -0.0405
     18 C           6.5916   -4.1957   25.0050 C.1     1  UNL1       -0.0583
     19 C           4.3451   -4.7113   18.8864 C.3     1  UNL1        0.0521
     20 C           4.3294   -3.8377   20.1056 C.ar    1  UNL1        0.0600
     21 C           3.5545   -2.5534   20.0980 C.ar    1  UNL1        0.0148
     22 C           3.5388   -1.6797   21.3172 C.ar    1  UNL1        0.0034
     23 C           4.2980   -2.0903   22.5439 C.ar    1  UNL1        0.0276
     24 C           5.0730   -3.3745   22.5515 C.ar    1  UNL1        0.1224
     25 N           5.0887   -4.2482   21.3323 N.ar    1  UNL1       -0.2414
@<TRIPOS>UNITY_ATOM_ATTR
14 1
charge 1
16 1
charge -1
@<TRIPOS>BOND
     1    19    20    1
     2    20    21   ar
     3    21    22   ar
     4    22    23   ar
     5    23    24   ar
     6    24    17    1
     7    17    18    3
     8    18     1    1
     9     1     2    2
    10     2     3    1
    11     3     4    1
    12     4     5    1
    13     5     8    1
    14     8     9   ar
    15     9    10   ar
    16    10    11   ar
    17    11    12   ar
    18    12    13   ar
    19    13    14    1
    20    14    15    2
    21    14    16    1
    22     5     6    1
    23     6     7    1
    24    24    25   ar
    25    25    20   ar
    26     7     2    1
    27    13     8   ar
