@<TRIPOS>MOLECULE
*****
 35 39 0 0 0
SMALL
GASTEIGER

@<TRIPOS>ATOM
      1 N           8.5720   -3.9407   20.8639 N.pl3   1  UNL1       -0.3058
      2 H           9.4876   -3.9072   20.5036 H       1  UNL1        0.1495
      3 C           8.3078   -4.6110   22.1795 C.ar    1  UNL1        0.1981
      4 N           8.4040   -6.0824   22.4544 N.ar    1  UNL1       -0.2138
      5 C           8.0566   -6.3084   23.8960 C.ar    1  UNL1        0.0999
      6 C           7.9832   -7.5548   24.7273 C.ar    1  UNL1        0.0207
      7 C           7.5989   -7.4693   26.1747 C.ar    1  UNL1        0.0016
      8 C           7.2879   -6.1375   26.7908 C.ar    1  UNL1        0.0016
      9 C           7.3613   -4.8911   25.9595 C.ar    1  UNL1        0.0188
     10 C           7.7456   -4.9765   24.5121 C.ar    1  UNL1        0.0801
     11 N           7.9009   -3.9275   23.4513 N.ar    1  UNL1       -0.2956
     12 C           7.6868   -2.4537   23.6307 C.3     1  UNL1        0.1354
     13 C           6.3206   -1.8654   23.4382 C.ar    1  UNL1        0.0006
     14 C           6.0734   -0.8918   22.3240 C.ar    1  UNL1       -0.0001
     15 C           4.7072   -0.3033   22.1315 C.ar    1  UNL1        0.0294
     16 C           3.5880   -0.6885   23.0530 C.ar    1  UNL1        0.1401
     17 F           2.2218   -0.1000   22.8605 F       1  UNL1       -0.2042
     18 C           3.8352   -1.6620   24.1671 C.ar    1  UNL1        0.0294
     19 C           5.2014   -2.2504   24.3597 C.ar    1  UNL1       -0.0001
     20 N           5.1797   -2.0828   18.5638 N.3     1  UNL1       -0.2723
     21 C           6.5746   -1.5562   18.3992 C.3     1  UNL1        0.0738
     22 C           7.7054   -2.1755   19.1660 C.3     1  UNL1        0.0369
     23 C           7.4413   -3.3214   20.0972 C.3     1  UNL1        0.0745
     24 C           6.0464   -3.8480   20.2617 C.3     1  UNL1        0.0369
     25 C           4.9157   -3.2287   19.4950 C.3     1  UNL1        0.0738
     26 C           4.0489   -1.4635   17.7970 C.3     1  UNL1        0.0768
     27 C           3.7887    0.0099   17.9035 C.3     1  UNL1        0.0437
     28 C           0.1882    1.5020   20.1529 C.ar    1  UNL1        0.1387
     29 C           1.0057    2.4532   19.3301 C.ar    1  UNL1        0.0366
     30 C           2.2058    1.9558   18.5803 C.ar    1  UNL1       -0.0011
     31 C           2.5886    0.5073   18.6533 C.ar    1  UNL1       -0.0206
     32 C           1.7711   -0.4439   19.4761 C.ar    1  UNL1       -0.0011
     33 C           0.5709    0.0535   20.2260 C.ar    1  UNL1        0.0366
     34 C          -1.8197    3.1384   20.3548 C.3     1  UNL1        0.2525
     35 O          -1.0119    1.9994   20.9027 O.3     1  UNL1       -0.4714
@<TRIPOS>BOND
     1    34    35    1
     2    35    28    1
     3    28    29   ar
     4    29    30   ar
     5    30    31   ar
     6    31    27    1
     7    27    26    1
     8    26    20    1
     9    20    21    1
    10    21    22    1
    11    22    23    1
    12    23     1    1
    13     1     3    1
    14     3     4   ar
    15     4     5   ar
    16     5     6   ar
    17     6     7   ar
    18     7     8   ar
    19     8     9   ar
    20     9    10   ar
    21    10    11   ar
    22    11    12    1
    23    12    13    1
    24    13    14   ar
    25    14    15   ar
    26    15    16   ar
    27    16    17    1
    28    16    18   ar
    29    18    19   ar
    30    23    24    1
    31    24    25    1
    32    31    32   ar
    33    32    33   ar
    34    33    28   ar
    35    25    20    1
    36    11     3   ar
    37    19    13   ar
    38    10     5   ar
    39     1     2    1
@<TRIPOS>MOLECULE
*****
 35 39 0 0 0
SMALL
GASTEIGER

@<TRIPOS>ATOM
      1 N           0.8681    3.1472   23.4611 N.pl3   1  UNL1       -0.3058
      2 H           0.7502    4.1241   23.4271 H       1  UNL1        0.1495
      3 C           0.7357    2.4208   24.7668 C.ar    1  UNL1        0.1981
      4 N          -0.5068    2.3279   25.6020 N.ar    1  UNL1       -0.2138
      5 C          -0.1879    1.5094   26.8179 C.ar    1  UNL1        0.0999
      6 C          -1.0224    1.0868   27.9905 C.ar    1  UNL1        0.0207
      7 C          -0.4172    0.2512   29.0793 C.ar    1  UNL1        0.0016
      8 C           1.0224   -0.1617   28.9956 C.ar    1  UNL1        0.0016
      9 C           1.8568    0.2609   27.8230 C.ar    1  UNL1        0.0188
     10 C           1.2517    1.0965   26.7342 C.ar    1  UNL1        0.0801
     11 N           1.8225    1.6597   25.4665 N.ar    1  UNL1       -0.2956
     12 C           3.2326    1.4915   24.9834 C.3     1  UNL1        0.1354
     13 C           3.7129    0.1464   24.5252 C.ar    1  UNL1        0.0006
     14 C           3.2745   -0.3939   23.1963 C.ar    1  UNL1       -0.0001
     15 C           3.7549   -1.7390   22.7381 C.ar    1  UNL1        0.0294
     16 C           4.6737   -2.5438   23.6088 C.ar    1  UNL1        0.1401
     17 F           5.1541   -3.8889   23.1505 F       1  UNL1       -0.2042
     18 C           5.1121   -2.0035   24.9376 C.ar    1  UNL1        0.0294
     19 C           4.6318   -0.6584   25.3958 C.ar    1  UNL1       -0.0001
     20 N           1.8042    0.8617   19.6995 N.3     1  UNL1       -0.2723
     21 C           0.5544    0.5568   20.4709 C.3     1  UNL1        0.0738
     22 C           0.2424    1.3186   21.7248 C.3     1  UNL1        0.0369
     23 C           1.1801    2.3854   22.2073 C.3     1  UNL1        0.0745
     24 C           2.4299    2.6903   21.4358 C.3     1  UNL1        0.0369
     25 C           2.7419    1.9284   20.1819 C.3     1  UNL1        0.0738
     26 C           2.1163    0.0998   18.4456 C.3     1  UNL1        0.0768
     27 C           3.5429   -0.1479   18.0539 C.3     1  UNL1        0.0437
     28 C           5.8441   -3.5178   19.9506 C.ar    1  UNL1        0.1387
     29 C           6.5366   -2.2285   19.6219 C.ar    1  UNL1        0.0366
     30 C           5.7695   -1.1052   18.9896 C.ar    1  UNL1       -0.0011
     31 C           4.3099   -1.2712   18.6861 C.ar    1  UNL1       -0.0206
     32 C           3.6175   -2.5605   19.0149 C.ar    1  UNL1       -0.0011
     33 C           4.3846   -3.6839   19.6471 C.ar    1  UNL1        0.0366
     34 C           8.0410   -4.4380   20.9886 C.3     1  UNL1        0.2525
     35 O           6.6112   -4.6411   20.5828 O.3     1  UNL1       -0.4714
@<TRIPOS>BOND
     1    34    35    1
     2    35    28    1
     3    28    29   ar
     4    29    30   ar
     5    30    31   ar
     6    31    27    1
     7    27    26    1
     8    26    20    1
     9    20    21    1
    10    21    22    1
    11    22    23    1
    12    23     1    1
    13     1     3    1
    14     3     4   ar
    15     4     5   ar
    16     5     6   ar
    17     6     7   ar
    18     7     8   ar
    19     8     9   ar
    20     9    10   ar
    21    10    11   ar
    22    11    12    1
    23    12    13    1
    24    13    14   ar
    25    14    15   ar
    26    15    16   ar
    27    16    17    1
    28    16    18   ar
    29    18    19   ar
    30    23    24    1
    31    24    25    1
    32    31    32   ar
    33    32    33   ar
    34    33    28   ar
    35    25    20    1
    36    11     3   ar
    37    19    13   ar
    38    10     5   ar
    39     1     2    1
@<TRIPOS>MOLECULE
*****
 35 39 0 0 0
SMALL
GASTEIGER

@<TRIPOS>ATOM
      1 N           6.7889   -1.3743   25.5724 N.pl3   1  UNL1       -0.3058
      2 H           7.3586   -0.7642   26.0943 H       1  UNL1        0.1495
      3 C           7.0478   -2.8515   25.6018 C.ar    1  UNL1        0.1981
      4 N           6.9908   -3.7327   26.8144 N.ar    1  UNL1       -0.2138
      5 C           7.3169   -5.1327   26.3859 C.ar    1  UNL1        0.0999
      6 C           7.4119   -6.4198   27.1501 C.ar    1  UNL1        0.0207
      7 C           7.7653   -7.6912   26.4369 C.ar    1  UNL1        0.0016
      8 C           8.0238   -7.6753   24.9594 C.ar    1  UNL1        0.0016
      9 C           7.9288   -6.3882   24.1952 C.ar    1  UNL1        0.0188
     10 C           7.5754   -5.1168   24.9084 C.ar    1  UNL1        0.0801
     11 N           7.4091   -3.7070   24.4239 N.ar    1  UNL1       -0.2956
     12 C           7.5749   -3.2355   23.0096 C.3     1  UNL1        0.1354
     13 C           6.5259   -3.5525   21.9854 C.ar    1  UNL1        0.0006
     14 C           5.1029   -3.7644   22.4100 C.ar    1  UNL1       -0.0001
     15 C           4.0539   -4.0814   21.3858 C.ar    1  UNL1        0.0294
     16 C           4.4278   -4.1866   19.9369 C.ar    1  UNL1        0.1401
     17 F           3.3788   -4.5036   18.9127 F       1  UNL1       -0.2042
     18 C           5.8508   -3.9747   19.5124 C.ar    1  UNL1        0.0294
     19 C           6.8998   -3.6576   20.5365 C.ar    1  UNL1       -0.0001
     20 N           3.4081    0.2686   23.0984 N.3     1  UNL1       -0.2723
     21 C           4.8031    0.7814   22.8967 C.3     1  UNL1        0.0738
     22 C           5.9301    0.2338   23.7214 C.3     1  UNL1        0.0369
     23 C           5.6620   -0.8267   24.7477 C.3     1  UNL1        0.0745
     24 C           4.2668   -1.3396   24.9494 C.3     1  UNL1        0.0369
     25 C           3.1399   -0.7919   24.1247 C.3     1  UNL1        0.0738
     26 C           2.2811    0.8162   22.2737 C.3     1  UNL1        0.0768
     27 C           1.8976    0.1454   20.9881 C.3     1  UNL1        0.0437
     28 C           4.7567    0.1397   17.5131 C.ar    1  UNL1        0.1387
     29 C           4.0381   -1.1204   17.8953 C.ar    1  UNL1        0.0366
     30 C           3.0851   -1.1185   19.0535 C.ar    1  UNL1       -0.0011
     31 C           2.8506    0.1435   19.8298 C.ar    1  UNL1       -0.0206
     32 C           3.5691    1.4035   19.4477 C.ar    1  UNL1       -0.0011
     33 C           4.5222    1.4016   18.2893 C.ar    1  UNL1        0.0366
     34 C           6.9091    1.0385   16.3690 C.3     1  UNL1        0.2525
     35 O           5.7097    0.1378   16.3548 O.3     1  UNL1       -0.4714
@<TRIPOS>BOND
     1    34    35    1
     2    35    28    1
     3    28    29   ar
     4    29    30   ar
     5    30    31   ar
     6    31    27    1
     7    27    26    1
     8    26    20    1
     9    20    21    1
    10    21    22    1
    11    22    23    1
    12    23     1    1
    13     1     3    1
    14     3     4   ar
    15     4     5   ar
    16     5     6   ar
    17     6     7   ar
    18     7     8   ar
    19     8     9   ar
    20     9    10   ar
    21    10    11   ar
    22    11    12    1
    23    12    13    1
    24    13    14   ar
    25    14    15   ar
    26    15    16   ar
    27    16    17    1
    28    16    18   ar
    29    18    19   ar
    30    23    24    1
    31    24    25    1
    32    31    32   ar
    33    32    33   ar
    34    33    28   ar
    35    25    20    1
    36    11     3   ar
    37    19    13   ar
    38    10     5   ar
    39     1     2    1
@<TRIPOS>MOLECULE
*****
 35 39 0 0 0
SMALL
GASTEIGER

@<TRIPOS>ATOM
      1 N          -0.5384    3.1192   19.3306 N.pl3   1  UNL1       -0.3058
      2 H          -0.6077    3.7582   18.5849 H       1  UNL1        0.1495
      3 C          -1.4648    3.2335   20.5048 C.ar    1  UNL1        0.1981
      4 N          -2.9566    3.0814   20.4690 N.ar    1  UNL1       -0.2138
      5 C          -3.4758    3.2739   21.8630 C.ar    1  UNL1        0.0999
      6 C          -4.8635    3.2373   22.4312 C.ar    1  UNL1        0.0207
      7 C          -5.0802    3.4719   23.8968 C.ar    1  UNL1        0.0016
      8 C          -3.9093    3.7430   24.7942 C.ar    1  UNL1        0.0016
      9 C          -2.5216    3.7796   24.2260 C.ar    1  UNL1        0.0188
     10 C          -2.3048    3.5450   22.7604 C.ar    1  UNL1        0.0801
     11 N          -1.0620    3.5200   21.9210 N.ar    1  UNL1       -0.2956
     12 C           0.3380    3.7426   22.4116 C.3     1  UNL1        0.1354
     13 C           1.1258    2.5977   22.9760 C.ar    1  UNL1        0.0006
     14 C           2.4562    2.2385   22.3834 C.ar    1  UNL1       -0.0001
     15 C           3.2441    1.0936   22.9477 C.ar    1  UNL1        0.0294
     16 C           2.7017    0.3080   24.1046 C.ar    1  UNL1        0.1401
     17 F           3.4896   -0.8369   24.6689 F       1  UNL1       -0.2042
     18 C           1.3714    0.6672   24.6972 C.ar    1  UNL1        0.0294
     19 C           0.5834    1.8121   24.1329 C.ar    1  UNL1       -0.0001
     20 N           2.5574   -0.1447   19.2163 N.3     1  UNL1       -0.2723
     21 C           1.2477   -0.3773   19.9095 C.3     1  UNL1        0.0738
     22 C           0.2157    0.7107   19.9476 C.3     1  UNL1        0.0369
     23 C           0.4935    2.0312   19.2925 C.3     1  UNL1        0.0745
     24 C           1.8033    2.2637   18.5993 C.3     1  UNL1        0.0369
     25 C           2.8352    1.1758   18.5613 C.3     1  UNL1        0.0738
     26 C           3.5894   -1.2327   19.1782 C.3     1  UNL1        0.0768
     27 C           3.4040   -2.4715   20.0035 C.3     1  UNL1        0.0437
     28 C           6.7341   -3.9258   22.6578 C.ar    1  UNL1        0.1387
     29 C           5.4299   -3.4934   23.2595 C.ar    1  UNL1        0.0366
     30 C           4.3199   -3.0086   22.3747 C.ar    1  UNL1       -0.0011
     31 C           4.5140   -2.9563   20.8882 C.ar    1  UNL1       -0.0206
     32 C           5.8182   -3.3887   20.2865 C.ar    1  UNL1       -0.0011
     33 C           6.9283   -3.8735   21.1713 C.ar    1  UNL1        0.0366
     34 C           7.7126   -5.7207   24.2613 C.3     1  UNL1        0.2525
     35 O           7.8441   -4.4106   23.5425 O.3     1  UNL1       -0.4714
@<TRIPOS>BOND
     1    34    35    1
     2    35    28    1
     3    28    29   ar
     4    29    30   ar
     5    30    31   ar
     6    31    27    1
     7    27    26    1
     8    26    20    1
     9    20    21    1
    10    21    22    1
    11    22    23    1
    12    23     1    1
    13     1     3    1
    14     3     4   ar
    15     4     5   ar
    16     5     6   ar
    17     6     7   ar
    18     7     8   ar
    19     8     9   ar
    20     9    10   ar
    21    10    11   ar
    22    11    12    1
    23    12    13    1
    24    13    14   ar
    25    14    15   ar
    26    15    16   ar
    27    16    17    1
    28    16    18   ar
    29    18    19   ar
    30    23    24    1
    31    24    25    1
    32    31    32   ar
    33    32    33   ar
    34    33    28   ar
    35    25    20    1
    36    11     3   ar
    37    19    13   ar
    38    10     5   ar
    39     1     2    1
@<TRIPOS>MOLECULE
*****
 35 39 0 0 0
SMALL
GASTEIGER

@<TRIPOS>ATOM
      1 N          -1.6119    2.8496   21.2031 N.pl3   1  UNL1       -0.3058
      2 H          -1.6366    2.8224   22.1869 H       1  UNL1        0.1495
      3 C          -2.7969    3.3579   20.4368 C.ar    1  UNL1        0.1981
      4 N          -2.7542    4.0717   19.1182 N.ar    1  UNL1       -0.2138
      5 C          -4.1637    4.3967   18.7210 C.ar    1  UNL1        0.0999
      6 C          -4.7330    5.0934   17.5209 C.ar    1  UNL1        0.0207
      7 C          -6.2163    5.2771   17.3938 C.ar    1  UNL1        0.0016
      8 C          -7.1302    4.7641   18.4670 C.ar    1  UNL1        0.0016
      9 C          -6.5608    4.0674   19.6671 C.ar    1  UNL1        0.0188
     10 C          -5.0776    3.8837   19.7942 C.ar    1  UNL1        0.0801
     11 N          -4.2329    3.2417   20.8545 N.ar    1  UNL1       -0.2956
     12 C          -4.7359    2.5968   22.1119 C.3     1  UNL1        0.1354
     13 C          -5.1241    3.4450   23.2865 C.ar    1  UNL1        0.0006
     14 C          -4.2188    3.5341   24.4792 C.ar    1  UNL1       -0.0001
     15 C          -4.6070    4.3824   25.6538 C.ar    1  UNL1        0.0294
     16 C          -5.9006    5.1416   25.6357 C.ar    1  UNL1        0.1401
     17 F          -6.2888    5.9899   26.8103 F       1  UNL1       -0.2042
     18 C          -6.8059    5.0525   24.4431 C.ar    1  UNL1        0.0294
     19 C          -6.4177    4.2042   23.2684 C.ar    1  UNL1       -0.0001
     20 N           2.0566    1.4493   19.0051 N.3     1  UNL1       -0.2723
     21 C           1.1463    0.4512   19.6571 C.3     1  UNL1        0.0738
     22 C          -0.0765    0.9180   20.3898 C.3     1  UNL1        0.0369
     23 C          -0.3891    2.3828   20.4704 C.3     1  UNL1        0.0745
     24 C           0.5213    3.3809   19.8183 C.3     1  UNL1        0.0369
     25 C           1.7441    2.9141   19.0857 C.3     1  UNL1        0.0738
     26 C           3.2795    0.9825   18.2724 C.3     1  UNL1        0.0768
     27 C           3.3327   -0.4076   17.7114 C.3     1  UNL1        0.0437
     28 C           5.7290   -3.5889   19.8059 C.ar    1  UNL1        0.1387
     29 C           6.4003   -2.6587   18.8394 C.ar    1  UNL1        0.0366
     30 C           5.6016   -1.5983   18.1413 C.ar    1  UNL1       -0.0011
     31 C           4.1315   -1.4680   18.4095 C.ar    1  UNL1       -0.0206
     32 C           3.4602   -2.3983   19.3760 C.ar    1  UNL1       -0.0011
     33 C           4.2590   -3.4587   20.0741 C.ar    1  UNL1        0.0366
     34 C           7.8699   -4.3166   21.0854 C.3     1  UNL1        0.2525
     35 O           6.5278   -4.6494   20.5040 O.3     1  UNL1       -0.4714
@<TRIPOS>BOND
     1    34    35    1
     2    35    28    1
     3    28    29   ar
     4    29    30   ar
     5    30    31   ar
     6    31    27    1
     7    27    26    1
     8    26    20    1
     9    20    21    1
    10    21    22    1
    11    22    23    1
    12    23     1    1
    13     1     3    1
    14     3     4   ar
    15     4     5   ar
    16     5     6   ar
    17     6     7   ar
    18     7     8   ar
    19     8     9   ar
    20     9    10   ar
    21    10    11   ar
    22    11    12    1
    23    12    13    1
    24    13    14   ar
    25    14    15   ar
    26    15    16   ar
    27    16    17    1
    28    16    18   ar
    29    18    19   ar
    30    23    24    1
    31    24    25    1
    32    31    32   ar
    33    32    33   ar
    34    33    28   ar
    35    25    20    1
    36    11     3   ar
    37    19    13   ar
    38    10     5   ar
    39     1     2    1
@<TRIPOS>MOLECULE
*****
 35 39 0 0 0
SMALL
GASTEIGER

@<TRIPOS>ATOM
      1 N          -0.6430    4.6755   22.0846 N.pl3   1  UNL1       -0.3058
      2 H          -0.8466    5.4587   22.6452 H       1  UNL1        0.1495
      3 C          -1.4017    4.4473   20.8109 C.ar    1  UNL1        0.1981
      4 N          -2.8890    4.2990   20.6851 N.ar    1  UNL1       -0.2138
      5 C          -3.2129    4.0874   19.2358 C.ar    1  UNL1        0.0999
      6 C          -4.5135    3.8810   18.5177 C.ar    1  UNL1        0.0207
      7 C          -4.5269    3.6922   17.0298 C.ar    1  UNL1        0.0016
      8 C          -3.2397    3.7097   16.2599 C.ar    1  UNL1        0.0016
      9 C          -1.9391    3.9161   16.9779 C.ar    1  UNL1        0.0188
     10 C          -1.9256    4.1050   18.4659 C.ar    1  UNL1        0.0801
     11 N          -0.8063    4.3274   19.4393 N.ar    1  UNL1       -0.2956
     12 C           0.6524    4.4146   19.1007 C.3     1  UNL1        0.1354
     13 C           1.4298    3.1663   18.8058 C.ar    1  UNL1        0.0006
     14 C           2.9036    3.2462   18.5378 C.ar    1  UNL1       -0.0001
     15 C           3.6811    1.9979   18.2429 C.ar    1  UNL1        0.0294
     16 C           2.9849    0.6694   18.2160 C.ar    1  UNL1        0.1401
     17 F           3.7625   -0.5789   17.9211 F       1  UNL1       -0.2042
     18 C           1.5113    0.5895   18.4840 C.ar    1  UNL1        0.0294
     19 C           0.7337    1.8378   18.7789 C.ar    1  UNL1       -0.0001
     20 N           2.5636    1.7800   23.3430 N.3     1  UNL1       -0.2723
     21 C           2.8323    3.2554   23.3715 C.3     1  UNL1        0.0738
     22 C           1.7634    4.2206   22.9520 C.3     1  UNL1        0.0369
     23 C           0.4259    3.7103   22.5041 C.3     1  UNL1        0.0745
     24 C           0.1572    2.2348   22.4756 C.3     1  UNL1        0.0369
     25 C           1.2260    1.2697   22.8951 C.3     1  UNL1        0.0738
     26 C           3.6324    0.8147   23.7625 C.3     1  UNL1        0.0768
     27 C           3.3023   -0.6371   23.9451 C.3     1  UNL1        0.0437
     28 C           4.8278   -3.6788   21.0004 C.ar    1  UNL1        0.1387
     29 C           3.9646   -2.5460   20.5294 C.ar    1  UNL1        0.0366
     30 C           3.4562   -1.5321   21.5109 C.ar    1  UNL1       -0.0011
     31 C           3.8108   -1.6509   22.9636 C.ar    1  UNL1       -0.0206
     32 C           4.6739   -2.7837   23.4346 C.ar    1  UNL1       -0.0011
     33 C           5.1824   -3.7976   22.4530 C.ar    1  UNL1        0.0366
     34 C           4.5671   -4.9706   18.7614 C.3     1  UNL1        0.2525
     35 O           5.3362   -4.6927   20.0189 O.3     1  UNL1       -0.4714
@<TRIPOS>BOND
     1    34    35    1
     2    35    28    1
     3    28    29   ar
     4    29    30   ar
     5    30    31   ar
     6    31    27    1
     7    27    26    1
     8    26    20    1
     9    20    21    1
    10    21    22    1
    11    22    23    1
    12    23     1    1
    13     1     3    1
    14     3     4   ar
    15     4     5   ar
    16     5     6   ar
    17     6     7   ar
    18     7     8   ar
    19     8     9   ar
    20     9    10   ar
    21    10    11   ar
    22    11    12    1
    23    12    13    1
    24    13    14   ar
    25    14    15   ar
    26    15    16   ar
    27    16    17    1
    28    16    18   ar
    29    18    19   ar
    30    23    24    1
    31    24    25    1
    32    31    32   ar
    33    32    33   ar
    34    33    28   ar
    35    25    20    1
    36    11     3   ar
    37    19    13   ar
    38    10     5   ar
    39     1     2    1
@<TRIPOS>MOLECULE
*****
 35 39 0 0 0
SMALL
GASTEIGER

@<TRIPOS>ATOM
      1 N           3.5146    1.6374   18.3516 N.pl3   1  UNL1       -0.3058
      2 H           4.2220    2.0363   17.7952 H       1  UNL1        0.1495
      3 C           3.6901    0.2574   18.9126 C.ar    1  UNL1        0.1981
      4 N           3.6720   -1.0217   18.1292 N.ar    1  UNL1       -0.2138
      5 C           3.8853   -2.1555   19.0878 C.ar    1  UNL1        0.0999
      6 C           3.9624   -3.6398   18.8857 C.ar    1  UNL1        0.0207
      7 C           4.1894   -4.5457   20.0594 C.ar    1  UNL1        0.0016
      8 C           4.3393   -3.9674   21.4353 C.ar    1  UNL1        0.0016
      9 C           4.2622   -2.4831   21.6374 C.ar    1  UNL1        0.0188
     10 C           4.0352   -1.5772   20.4637 C.ar    1  UNL1        0.0801
     11 N           3.9146   -0.0860   20.3554 N.ar    1  UNL1       -0.2956
     12 C           4.0030    0.8905   21.4906 C.3     1  UNL1        0.1354
     13 C           2.8855    0.9859   22.4865 C.ar    1  UNL1        0.0006
     14 C           1.5985    1.6570   22.1077 C.ar    1  UNL1       -0.0001
     15 C           0.4809    1.7525   23.1036 C.ar    1  UNL1        0.0294
     16 C           0.6503    1.1769   24.4785 C.ar    1  UNL1        0.1401
     17 F          -0.4673    1.2724   25.4744 F       1  UNL1       -0.2042
     18 C           1.9372    0.5059   24.8572 C.ar    1  UNL1        0.0294
     19 C           3.0547    0.4104   23.8613 C.ar    1  UNL1       -0.0001
     20 N          -0.2458    3.9545   19.2123 N.3     1  UNL1       -0.2723
     21 C           1.0877    4.6380   19.2773 C.3     1  UNL1        0.0738
     22 C           2.3413    3.8657   18.9904 C.3     1  UNL1        0.0369
     23 C           2.2611    2.4098   18.6385 C.3     1  UNL1        0.0745
     24 C           0.9275    1.7262   18.5735 C.3     1  UNL1        0.0369
     25 C          -0.3260    2.4985   18.8603 C.3     1  UNL1        0.0738
     26 C          -1.4994    4.7268   19.4991 C.3     1  UNL1        0.0768
     27 C          -2.7921    4.0008   19.7266 C.3     1  UNL1        0.0437
     28 C          -4.3448    3.4284   23.9113 C.ar    1  UNL1        0.1387
     29 C          -5.2700    3.2752   22.7405 C.ar    1  UNL1        0.0366
     30 C          -4.7524    3.4660   21.3457 C.ar    1  UNL1       -0.0011
     31 C          -3.3096    3.8100   21.1215 C.ar    1  UNL1       -0.0206
     32 C          -2.3845    3.9632   22.2922 C.ar    1  UNL1       -0.0011
     33 C          -2.9021    3.7724   23.6872 C.ar    1  UNL1        0.0366
     34 C          -4.7372    4.3446   26.3106 C.3     1  UNL1        0.2525
     35 O          -4.8624    3.2376   25.3061 O.3     1  UNL1       -0.4714
@<TRIPOS>BOND
     1    34    35    1
     2    35    28    1
     3    28    29   ar
     4    29    30   ar
     5    30    31   ar
     6    31    27    1
     7    27    26    1
     8    26    20    1
     9    20    21    1
    10    21    22    1
    11    22    23    1
    12    23     1    1
    13     1     3    1
    14     3     4   ar
    15     4     5   ar
    16     5     6   ar
    17     6     7   ar
    18     7     8   ar
    19     8     9   ar
    20     9    10   ar
    21    10    11   ar
    22    11    12    1
    23    12    13    1
    24    13    14   ar
    25    14    15   ar
    26    15    16   ar
    27    16    17    1
    28    16    18   ar
    29    18    19   ar
    30    23    24    1
    31    24    25    1
    32    31    32   ar
    33    32    33   ar
    34    33    28   ar
    35    25    20    1
    36    11     3   ar
    37    19    13   ar
    38    10     5   ar
    39     1     2    1
@<TRIPOS>MOLECULE
*****
 35 39 0 0 0
SMALL
GASTEIGER

@<TRIPOS>ATOM
      1 N           7.0372   -1.7483   27.1148 N.pl3   1  UNL1       -0.3058
      2 H           7.5702   -1.3336   27.8312 H       1  UNL1        0.1495
      3 C           7.2896   -3.1737   26.7215 C.ar    1  UNL1        0.1981
      4 N           7.3277   -4.3511   27.6500 N.ar    1  UNL1       -0.2138
      5 C           7.6099   -5.5770   26.8330 C.ar    1  UNL1        0.0999
      6 C           7.7603   -7.0212   27.2091 C.ar    1  UNL1        0.0207
      7 C           8.0470   -8.0456   26.1517 C.ar    1  UNL1        0.0016
      8 C           8.1833   -7.6259   24.7181 C.ar    1  UNL1        0.0016
      9 C           8.0328   -6.1817   24.3419 C.ar    1  UNL1        0.0188
     10 C           7.7461   -5.1572   25.3994 C.ar    1  UNL1        0.0801
     11 N           7.5482   -3.6719   25.3305 N.ar    1  UNL1       -0.2956
     12 C           7.5998   -2.8323   24.0885 C.3     1  UNL1        0.1354
     13 C           6.6173   -3.0707   22.9806 C.ar    1  UNL1        0.0006
     14 C           7.0905   -3.6019   21.6599 C.ar    1  UNL1       -0.0001
     15 C           6.1079   -3.8404   20.5519 C.ar    1  UNL1        0.0294
     16 C           4.6522   -3.5477   20.7645 C.ar    1  UNL1        0.1401
     17 F           3.6697   -3.7862   19.6564 F       1  UNL1       -0.2042
     18 C           4.1791   -3.0165   22.0850 C.ar    1  UNL1        0.0294
     19 C           5.1616   -2.7780   23.1931 C.ar    1  UNL1       -0.0001
     20 N           3.8440    0.6321   25.0204 N.3     1  UNL1       -0.2723
     21 C           3.4798   -0.6160   25.7683 C.3     1  UNL1        0.0738
     22 C           4.5443   -1.4096   26.4665 C.3     1  UNL1        0.0369
     23 C           5.9728   -0.9549   26.4167 C.3     1  UNL1        0.0745
     24 C           6.3369    0.2934   25.6687 C.3     1  UNL1        0.0369
     25 C           5.2725    1.0869   24.9706 C.3     1  UNL1        0.0738
     26 C           2.7795    1.4257   24.3223 C.3     1  UNL1        0.0768
     27 C           1.9026    0.7669   23.2991 C.3     1  UNL1        0.0437
     28 C           3.6089   -0.4355   19.3125 C.ar    1  UNL1        0.1387
     29 C           2.1992   -0.8054   19.6673 C.ar    1  UNL1        0.0366
     30 C           1.6304   -0.4046   20.9961 C.ar    1  UNL1       -0.0011
     31 C           2.4714    0.3661   21.9702 C.ar    1  UNL1       -0.0206
     32 C           3.8811    0.7360   21.6155 C.ar    1  UNL1       -0.0011
     33 C           4.4499    0.3352   20.2866 C.ar    1  UNL1        0.0366
     34 C           5.6155   -1.2506   17.8774 C.3     1  UNL1        0.2525
     35 O           4.1777   -0.8363   17.9837 O.3     1  UNL1       -0.4714
@<TRIPOS>BOND
     1    34    35    1
     2    35    28    1
     3    28    29   ar
     4    29    30   ar
     5    30    31   ar
     6    31    27    1
     7    27    26    1
     8    26    20    1
     9    20    21    1
    10    21    22    1
    11    22    23    1
    12    23     1    1
    13     1     3    1
    14     3     4   ar
    15     4     5   ar
    16     5     6   ar
    17     6     7   ar
    18     7     8   ar
    19     8     9   ar
    20     9    10   ar
    21    10    11   ar
    22    11    12    1
    23    12    13    1
    24    13    14   ar
    25    14    15   ar
    26    15    16   ar
    27    16    17    1
    28    16    18   ar
    29    18    19   ar
    30    23    24    1
    31    24    25    1
    32    31    32   ar
    33    32    33   ar
    34    33    28   ar
    35    25    20    1
    36    11     3   ar
    37    19    13   ar
    38    10     5   ar
    39     1     2    1
@<TRIPOS>MOLECULE
*****
 35 39 0 0 0
SMALL
GASTEIGER

@<TRIPOS>ATOM
      1 N           7.9882   -4.1320   22.4513 N.pl3   1  UNL1       -0.3058
      2 H           8.8736   -4.4267   22.1377 H       1  UNL1        0.1495
      3 C           7.6360   -4.2326   23.9059 C.ar    1  UNL1        0.1981
      4 N           7.4699   -5.5023   24.6871 N.ar    1  UNL1       -0.2138
      5 C           7.1193   -5.1356   26.0987 C.ar    1  UNL1        0.0999
      6 C           6.8396   -5.9709   27.3128 C.ar    1  UNL1        0.0207
      7 C           6.5092   -5.3098   28.6181 C.ar    1  UNL1        0.0016
      8 C           6.4585   -3.8135   28.7093 C.ar    1  UNL1        0.0016
      9 C           6.7382   -2.9782   27.4952 C.ar    1  UNL1        0.0188
     10 C           7.0686   -3.6392   26.1899 C.ar    1  UNL1        0.0801
     11 N           7.3879   -3.0812   24.8347 N.ar    1  UNL1       -0.2956
     12 C           7.4485   -1.6269   24.4720 C.3     1  UNL1        0.1354
     13 C           6.2260   -0.9326   23.9495 C.ar    1  UNL1        0.0006
     14 C           6.3567    0.1189   22.8877 C.ar    1  UNL1       -0.0001
     15 C           5.1342    0.8132   22.3650 C.ar    1  UNL1        0.0294
     16 C           3.7807    0.4561   22.9042 C.ar    1  UNL1        0.1401
     17 F           2.5581    1.1504   22.3816 F       1  UNL1       -0.2042
     18 C           3.6499   -0.5954   23.9660 C.ar    1  UNL1        0.0294
     19 C           4.8725   -1.2897   24.4886 C.ar    1  UNL1       -0.0001
     20 N           4.9977   -2.4829   19.5209 N.3     1  UNL1       -0.2723
     21 C           4.5255   -3.1646   20.7708 C.3     1  UNL1        0.0738
     22 C           5.5223   -3.7144   21.7476 C.3     1  UNL1        0.0369
     23 C           6.9914   -3.5823   21.4746 C.3     1  UNL1        0.0745
     24 C           7.4635   -2.9005   20.2246 C.3     1  UNL1        0.0369
     25 C           6.4667   -2.3508   19.2478 C.3     1  UNL1        0.0738
     26 C           4.0008   -1.9332   18.5441 C.3     1  UNL1        0.0768
     27 C           3.7957   -0.4512   18.4356 C.3     1  UNL1        0.0437
     28 C           0.0979    1.4409   20.1665 C.ar    1  UNL1        0.1387
     29 C           0.3740   -0.0152   20.3981 C.ar    1  UNL1        0.0366
     30 C           1.6065   -0.6459   19.8211 C.ar    1  UNL1       -0.0011
     31 C           2.5632    0.1795   19.0126 C.ar    1  UNL1       -0.0206
     32 C           2.2871    1.6355   18.7810 C.ar    1  UNL1       -0.0011
     33 C           1.0545    2.2662   19.3580 C.ar    1  UNL1        0.0366
     34 C          -1.6545    3.3590   20.1755 C.3     1  UNL1        0.2525
     35 O          -1.1347    2.0716   20.7434 O.3     1  UNL1       -0.4714
@<TRIPOS>BOND
     1    34    35    1
     2    35    28    1
     3    28    29   ar
     4    29    30   ar
     5    30    31   ar
     6    31    27    1
     7    27    26    1
     8    26    20    1
     9    20    21    1
    10    21    22    1
    11    22    23    1
    12    23     1    1
    13     1     3    1
    14     3     4   ar
    15     4     5   ar
    16     5     6   ar
    17     6     7   ar
    18     7     8   ar
    19     8     9   ar
    20     9    10   ar
    21    10    11   ar
    22    11    12    1
    23    12    13    1
    24    13    14   ar
    25    14    15   ar
    26    15    16   ar
    27    16    17    1
    28    16    18   ar
    29    18    19   ar
    30    23    24    1
    31    24    25    1
    32    31    32   ar
    33    32    33   ar
    34    33    28   ar
    35    25    20    1
    36    11     3   ar
    37    19    13   ar
    38    10     5   ar
    39     1     2    1
