@<TRIPOS>MOLECULE
*****
 32 35 0 0 0
SMALL
GASTEIGER

@<TRIPOS>ATOM
      1 C          -9.2199  -18.1643   21.9951 C.ar    1  UNL1       -0.0004
      2 C          -8.5483  -19.4309   21.5543 C.ar    1  UNL1       -0.0024
      3 C          -7.0819  -19.6275   21.8014 C.ar    1  UNL1       -0.0002
      4 C          -6.2872  -18.5574   22.4894 C.ar    1  UNL1        0.0030
      5 C          -4.8208  -18.7540   22.7365 C.ar    1  UNL1        0.0369
      6 C          -4.0260  -17.6839   23.4245 C.ar    1  UNL1        0.1386
      7 C          -4.6977  -16.4172   23.8653 C.ar    1  UNL1        0.0369
      8 C          -6.1641  -16.2206   23.6182 C.ar    1  UNL1        0.0031
      9 C          -6.9588  -17.2907   22.9302 C.ar    1  UNL1       -0.0001
     10 C          -8.4252  -17.0941   22.6831 C.ar    1  UNL1       -0.0024
     11 C         -10.6863  -17.9676   21.7480 C.3     1  UNL1        0.1240
     12 N         -11.6662  -18.1438   22.8699 N.ar    1  UNL1       -0.3045
     13 C         -13.0907  -17.6739   22.8785 C.ar    1  UNL1        0.0983
     14 C         -13.6985  -18.0605   24.1942 C.ar    1  UNL1        0.1193
     15 N         -12.6497  -18.7694   24.9988 N.ar    1  UNL1       -0.2223
     16 C         -11.3937  -18.8209   24.1804 C.ar    1  UNL1        0.1788
     17 C         -11.4301  -18.6630   19.3577 C.3     1  UNL1        0.0197
     18 C         -11.1728  -17.5948   20.3789 C.3     1  UNL1        0.0827
     19 N         -11.4020  -16.1538   20.0310 N.3     1  UNL1       -0.2696
     20 C         -10.3886  -15.1182   20.4191 C.3     1  UNL1        0.0897
     21 C         -12.6446  -15.7485   19.2951 C.3     1  UNL1        0.0897
     22 O          -2.5597  -17.8805   23.6716 O.3     1  UNL1       -0.4751
     23 C          -1.6072  -17.9531   22.5150 C.3     1  UNL1        0.2103
     24 C          -2.1344  -18.0700   21.1156 C.3     1  UNL1        0.0723
     25 C          -2.4384  -19.4479   21.6243 C.3     1  UNL1        0.0088
     26 C          -3.1004  -20.4501   20.7258 C.3     1  UNL1        0.0005
     27 C          -3.4584  -20.0743   19.3184 C.3     1  UNL1        0.0000
     28 C          -3.1543  -18.6963   18.8097 C.3     1  UNL1        0.0005
     29 C          -2.4923  -17.6942   19.7082 C.3     1  UNL1        0.0088
     30 C          -1.6472  -16.6515   21.0928 C.2     1  UNL1        0.0532
     31 O          -0.3092  -16.3274   20.4973 O.co2   1  UNL1       -0.5491
     32 O          -2.4982  -15.5570   21.6657 O.co2   1  UNL1       -0.5491
@<TRIPOS>UNITY_ATOM_ATTR
31 1
charge -1
@<TRIPOS>BOND
     1    18    17    1
     2    18    11    1
     3    11     1    1
     4     1     2   ar
     5     2     3   ar
     6     3     4   ar
     7     4     5   ar
     8     5     6   ar
     9     6    22    1
    10    22    23    1
    11    23    24    1
    12    24    30    1
    13    30    31   ar
    14    30    32   ar
    15    24    25    1
    16    25    26    1
    17    26    27    1
    18    27    28    1
    19    28    29    1
    20     6     7   ar
    21     7     8   ar
    22     8     9   ar
    23     9    10   ar
    24    11    12    1
    25    12    13   ar
    26    13    14   ar
    27    14    15   ar
    28    15    16   ar
    29    18    19    1
    30    19    20    1
    31    19    21    1
    32    10     1   ar
    33    16    12   ar
    34     9     4   ar
    35    29    24    1
@<TRIPOS>MOLECULE
*****
 32 35 0 0 0
SMALL
GASTEIGER

@<TRIPOS>ATOM
      1 C          -0.6583    2.9332   20.0270 C.ar    1  UNL1       -0.0004
      2 C           0.1653    3.5599   18.9413 C.ar    1  UNL1       -0.0024
      3 C           1.3276    2.8138   18.3562 C.ar    1  UNL1       -0.0002
      4 C           1.6662    1.4410   18.8569 C.ar    1  UNL1        0.0030
      5 C           2.8286    0.6948   18.2717 C.ar    1  UNL1        0.0369
      6 C           3.1672   -0.6780   18.7724 C.ar    1  UNL1        0.1386
      7 C           2.3435   -1.3047   19.8582 C.ar    1  UNL1        0.0369
      8 C           1.1812   -0.5586   20.4433 C.ar    1  UNL1        0.0031
      9 C           0.8426    0.8143   19.9426 C.ar    1  UNL1       -0.0001
     10 C          -0.3197    1.5604   20.5277 C.ar    1  UNL1       -0.0024
     11 C          -1.8206    3.6794   20.6122 C.3     1  UNL1        0.1240
     12 N          -3.1594    3.6308   19.9374 N.ar    1  UNL1       -0.3045
     13 C          -4.4580    3.2451   20.5815 C.ar    1  UNL1        0.0983
     14 C          -5.5358    3.3354   19.5422 C.ar    1  UNL1        0.1193
     15 N          -4.9034    3.7768   18.2557 N.ar    1  UNL1       -0.2223
     16 C          -3.4347    3.9594   18.5000 C.ar    1  UNL1        0.1788
     17 C          -1.3739    5.9477   21.7977 C.3     1  UNL1        0.0197
     18 C          -1.6442    4.4741   21.8721 C.3     1  UNL1        0.0827
     19 N          -1.7379    3.7952   23.2063 N.3     1  UNL1       -0.2696
     20 C          -3.0527    3.7340   23.9260 C.3     1  UNL1        0.0897
     21 C          -0.5170    3.1775   23.8210 C.3     1  UNL1        0.0897
     22 O           4.3294   -1.4242   18.1873 O.3     1  UNL1       -0.4751
     23 C           4.5252   -2.8769   18.5059 C.3     1  UNL1        0.2103
     24 C           5.6579   -3.3046   19.3913 C.3     1  UNL1        0.0723
     25 C           6.3779   -2.3421   18.4938 C.3     1  UNL1        0.0088
     26 C           7.8439   -2.0900   18.6867 C.3     1  UNL1        0.0005
     27 C           8.5900   -2.8004   19.7771 C.3     1  UNL1        0.0000
     28 C           7.8700   -3.7628   20.6744 C.3     1  UNL1        0.0005
     29 C           6.4040   -4.0149   20.4816 C.3     1  UNL1        0.0088
     30 C           4.5446   -4.1185   19.9811 C.2     1  UNL1        0.0532
     31 O           3.4334   -4.6159   19.1048 O.co2   1  UNL1       -0.5491
     32 O           4.5423   -4.4350   21.4474 O.co2   1  UNL1       -0.5491
@<TRIPOS>UNITY_ATOM_ATTR
31 1
charge -1
@<TRIPOS>BOND
     1    18    17    1
     2    18    11    1
     3    11     1    1
     4     1     2   ar
     5     2     3   ar
     6     3     4   ar
     7     4     5   ar
     8     5     6   ar
     9     6    22    1
    10    22    23    1
    11    23    24    1
    12    24    30    1
    13    30    31   ar
    14    30    32   ar
    15    24    25    1
    16    25    26    1
    17    26    27    1
    18    27    28    1
    19    28    29    1
    20     6     7   ar
    21     7     8   ar
    22     8     9   ar
    23     9    10   ar
    24    11    12    1
    25    12    13   ar
    26    13    14   ar
    27    14    15   ar
    28    15    16   ar
    29    18    19    1
    30    19    20    1
    31    19    21    1
    32    10     1   ar
    33    16    12   ar
    34     9     4   ar
    35    29    24    1
@<TRIPOS>MOLECULE
*****
 32 35 0 0 0
SMALL
GASTEIGER

@<TRIPOS>ATOM
      1 C           3.2227   -1.1421   20.9394 C.ar    1  UNL1       -0.0004
      2 C           1.9831   -0.4525   20.4518 C.ar    1  UNL1       -0.0024
      3 C           1.1339    0.3293   21.4096 C.ar    1  UNL1       -0.0002
      4 C           1.5242    0.4216   22.8550 C.ar    1  UNL1        0.0030
      5 C           0.6748    1.2034   23.8128 C.ar    1  UNL1        0.0369
      6 C           1.0652    1.2957   25.2582 C.ar    1  UNL1        0.1386
      7 C           2.3048    0.6060   25.7458 C.ar    1  UNL1        0.0369
      8 C           3.1541   -0.1758   24.7880 C.ar    1  UNL1        0.0031
      9 C           2.7638   -0.2681   23.3426 C.ar    1  UNL1       -0.0001
     10 C           3.6131   -1.0499   22.3848 C.ar    1  UNL1       -0.0024
     11 C           4.0721   -1.9240   19.9816 C.3     1  UNL1        0.1240
     12 N           4.6502   -1.2523   18.7713 N.ar    1  UNL1       -0.3045
     13 C           5.9631   -0.5298   18.7067 C.ar    1  UNL1        0.0983
     14 C           6.1412   -0.0161   17.3086 C.ar    1  UNL1        0.1193
     15 N           4.9383   -0.4212   16.5093 N.ar    1  UNL1       -0.2223
     16 C           4.0168   -1.1852   17.4133 C.ar    1  UNL1        0.1788
     17 C           3.4822   -4.4239   19.5908 C.3     1  UNL1        0.0197
     18 C           4.3433   -3.3775   20.2340 C.3     1  UNL1        0.0827
     19 N           5.4756   -3.7846   21.1296 N.3     1  UNL1       -0.2696
     20 C           6.8539   -3.9590   20.5639 C.3     1  UNL1        0.0897
     21 C           5.2296   -4.0174   22.5909 C.3     1  UNL1        0.0897
     22 O           0.2159    2.0775   26.2160 O.3     1  UNL1       -0.4751
     23 C          -0.3347    1.4144   27.4437 C.3     1  UNL1        0.2103
     24 C           0.1333    1.8445   28.8023 C.3     1  UNL1        0.0723
     25 C           0.0560    3.1778   28.1192 C.3     1  UNL1        0.0088
     26 C           0.4172    4.4262   28.8681 C.3     1  UNL1        0.0005
     27 C           0.8556    4.3415   30.3002 C.3     1  UNL1        0.0000
     28 C           0.9329    3.0083   30.9832 C.3     1  UNL1        0.0005
     29 C           0.5718    1.7598   30.2343 C.3     1  UNL1        0.0088
     30 C           0.0481    0.3620   29.0135 C.2     1  UNL1        0.0532
     31 O          -1.0621   -0.4232   28.3802 O.co2   1  UNL1       -0.5491
     32 O           1.0730   -0.3355   29.8580 O.co2   1  UNL1       -0.5491
@<TRIPOS>UNITY_ATOM_ATTR
31 1
charge -1
@<TRIPOS>BOND
     1    18    17    1
     2    18    11    1
     3    11     1    1
     4     1     2   ar
     5     2     3   ar
     6     3     4   ar
     7     4     5   ar
     8     5     6   ar
     9     6    22    1
    10    22    23    1
    11    23    24    1
    12    24    30    1
    13    30    31   ar
    14    30    32   ar
    15    24    25    1
    16    25    26    1
    17    26    27    1
    18    27    28    1
    19    28    29    1
    20     6     7   ar
    21     7     8   ar
    22     8     9   ar
    23     9    10   ar
    24    11    12    1
    25    12    13   ar
    26    13    14   ar
    27    14    15   ar
    28    15    16   ar
    29    18    19    1
    30    19    20    1
    31    19    21    1
    32    10     1   ar
    33    16    12   ar
    34     9     4   ar
    35    29    24    1
@<TRIPOS>MOLECULE
*****
 32 35 0 0 0
SMALL
GASTEIGER

@<TRIPOS>ATOM
      1 C          -0.9244    3.1104   19.9011 C.ar    1  UNL1       -0.0004
      2 C          -0.1019    3.6950   18.7913 C.ar    1  UNL1       -0.0024
      3 C           1.0706    2.9347   18.2462 C.ar    1  UNL1       -0.0002
      4 C           1.4206    1.5898   18.8109 C.ar    1  UNL1        0.0030
      5 C           2.5932    0.8295   18.2658 C.ar    1  UNL1        0.0369
      6 C           2.9432   -0.5153   18.8306 C.ar    1  UNL1        0.1386
      7 C           2.1206   -1.0998   19.9404 C.ar    1  UNL1        0.0369
      8 C           0.9481   -0.3395   20.4855 C.ar    1  UNL1        0.0031
      9 C           0.5981    1.0053   19.9208 C.ar    1  UNL1       -0.0001
     10 C          -0.5744    1.7656   20.4658 C.ar    1  UNL1       -0.0024
     11 C          -2.0970    3.8707   20.4462 C.3     1  UNL1        0.1240
     12 N          -2.4238    3.7980   21.9083 N.ar    1  UNL1       -0.3045
     13 C          -3.7837    3.5661   22.4974 C.ar    1  UNL1        0.0983
     14 C          -3.6485    3.5692   23.9913 C.ar    1  UNL1        0.1193
     15 N          -2.2050    3.8030   24.3255 N.ar    1  UNL1       -0.2223
     16 C          -1.4481    3.9444   23.0382 C.ar    1  UNL1        0.1788
     17 C          -2.8518    6.2002   19.5779 C.3     1  UNL1        0.0197
     18 C          -2.9426    4.7037   19.5292 C.3     1  UNL1        0.0827
     19 N          -3.8792    4.0402   18.5634 N.3     1  UNL1       -0.2696
     20 C          -3.4895    3.8921   17.1224 C.3     1  UNL1        0.0897
     21 C          -5.2053    3.5250   19.0385 C.3     1  UNL1        0.0897
     22 O           4.1157   -1.2756   18.2855 O.3     1  UNL1       -0.4751
     23 C           4.2783   -2.7325   18.6036 C.3     1  UNL1        0.2103
     24 C           5.4509   -3.1965   19.4158 C.3     1  UNL1        0.0723
     25 C           6.1328   -2.2117   18.5129 C.3     1  UNL1        0.0088
     26 C           7.6090   -1.9769   18.6379 C.3     1  UNL1        0.0005
     27 C           8.4034   -2.7270   19.6658 C.3     1  UNL1        0.0000
     28 C           7.7214   -3.7118   20.5686 C.3     1  UNL1        0.0005
     29 C           6.2452   -3.9465   20.4436 C.3     1  UNL1        0.0088
     30 C           4.3618   -4.0201   20.0365 C.2     1  UNL1        0.0532
     31 O           3.1930   -4.4648   19.2081 O.co2   1  UNL1       -0.5491
     32 O           4.4413   -4.3991   21.4857 O.co2   1  UNL1       -0.5491
@<TRIPOS>UNITY_ATOM_ATTR
31 1
charge -1
@<TRIPOS>BOND
     1    18    17    1
     2    18    11    1
     3    11     1    1
     4     1     2   ar
     5     2     3   ar
     6     3     4   ar
     7     4     5   ar
     8     5     6   ar
     9     6    22    1
    10    22    23    1
    11    23    24    1
    12    24    30    1
    13    30    31   ar
    14    30    32   ar
    15    24    25    1
    16    25    26    1
    17    26    27    1
    18    27    28    1
    19    28    29    1
    20     6     7   ar
    21     7     8   ar
    22     8     9   ar
    23     9    10   ar
    24    11    12    1
    25    12    13   ar
    26    13    14   ar
    27    14    15   ar
    28    15    16   ar
    29    18    19    1
    30    19    20    1
    31    19    21    1
    32    10     1   ar
    33    16    12   ar
    34     9     4   ar
    35    29    24    1
@<TRIPOS>MOLECULE
*****
 32 35 0 0 0
SMALL
GASTEIGER

@<TRIPOS>ATOM
      1 C           1.2002    1.3318   24.9236 C.ar    1  UNL1       -0.0004
      2 C           2.4756    0.5794   25.1626 C.ar    1  UNL1       -0.0024
      3 C           3.1172   -0.1839   24.0421 C.ar    1  UNL1       -0.0002
      4 C           2.4834   -0.1949   22.6826 C.ar    1  UNL1        0.0030
      5 C           3.1251   -0.9583   21.5621 C.ar    1  UNL1        0.0369
      6 C           2.4912   -0.9693   20.2026 C.ar    1  UNL1        0.1386
      7 C           1.2157   -0.2169   19.9637 C.ar    1  UNL1        0.0369
      8 C           0.5741    0.5465   21.0842 C.ar    1  UNL1        0.0031
      9 C           1.2080    0.5575   22.4437 C.ar    1  UNL1       -0.0001
     10 C           0.5664    1.3209   23.5642 C.ar    1  UNL1       -0.0024
     11 C           0.5585    2.0953   26.0442 C.3     1  UNL1        0.1240
     12 N           0.4678    1.4855   27.4116 N.ar    1  UNL1       -0.3045
     13 C           1.4224    1.7170   28.5453 C.ar    1  UNL1        0.0983
     14 C           0.9511    0.9118   29.7199 C.ar    1  UNL1        0.1193
     15 N          -0.2947    0.1826   29.3121 N.ar    1  UNL1       -0.2223
     16 C          -0.5934    0.5373   27.8856 C.ar    1  UNL1        0.1788
     17 C           0.9159    4.6611   25.8471 C.3     1  UNL1        0.0197
     18 C           0.0076    3.4684   25.7972 C.3     1  UNL1        0.0827
     19 N          -1.4516    3.6488   25.5003 N.3     1  UNL1       -0.2696
     20 C          -2.4638    3.5041   26.5979 C.3     1  UNL1        0.0897
     21 C          -1.8987    3.9739   24.1059 C.3     1  UNL1        0.0897
     22 O           3.1328   -1.7327   19.0821 O.3     1  UNL1       -0.4751
     23 C           3.6745   -3.1100   19.3266 C.3     1  UNL1        0.2103
     24 C           5.1219   -3.2960   19.6736 C.3     1  UNL1        0.0723
     25 C           5.2435   -2.2593   18.5962 C.3     1  UNL1        0.0088
     26 C           6.5956   -1.7463   18.1982 C.3     1  UNL1        0.0005
     27 C           7.8263   -2.2699   18.8776 C.3     1  UNL1        0.0000
     28 C           7.7047   -3.3065   19.9549 C.3     1  UNL1        0.0005
     29 C           6.3525   -3.8195   20.3529 C.3     1  UNL1        0.0088
     30 C           4.4977   -4.2679   20.6304 C.2     1  UNL1        0.0532
     31 O           4.7201   -4.1156   22.1060 O.co2   1  UNL1       -0.5491
     32 O           3.6510   -5.3923   20.1117 O.co2   1  UNL1       -0.5491
@<TRIPOS>UNITY_ATOM_ATTR
31 1
charge -1
@<TRIPOS>BOND
     1    18    17    1
     2    18    11    1
     3    11     1    1
     4     1     2   ar
     5     2     3   ar
     6     3     4   ar
     7     4     5   ar
     8     5     6   ar
     9     6    22    1
    10    22    23    1
    11    23    24    1
    12    24    30    1
    13    30    31   ar
    14    30    32   ar
    15    24    25    1
    16    25    26    1
    17    26    27    1
    18    27    28    1
    19    28    29    1
    20     6     7   ar
    21     7     8   ar
    22     8     9   ar
    23     9    10   ar
    24    11    12    1
    25    12    13   ar
    26    13    14   ar
    27    14    15   ar
    28    15    16   ar
    29    18    19    1
    30    19    20    1
    31    19    21    1
    32    10     1   ar
    33    16    12   ar
    34     9     4   ar
    35    29    24    1
@<TRIPOS>MOLECULE
*****
 32 35 0 0 0
SMALL
GASTEIGER

@<TRIPOS>ATOM
      1 C           3.6527   -1.5406   21.9609 C.ar    1  UNL1       -0.0004
      2 C           4.5166   -2.5428   22.6675 C.ar    1  UNL1       -0.0024
      3 C           4.6517   -2.4962   24.1606 C.ar    1  UNL1       -0.0002
      4 C           3.9228   -1.4473   24.9472 C.ar    1  UNL1        0.0030
      5 C           4.0578   -1.4007   26.4404 C.ar    1  UNL1        0.0369
      6 C           3.3289   -0.3519   27.2270 C.ar    1  UNL1        0.1386
      7 C           2.4650    0.6503   26.5204 C.ar    1  UNL1        0.0369
      8 C           2.3300    0.6037   25.0272 C.ar    1  UNL1        0.0031
      9 C           3.0589   -0.4452   24.2406 C.ar    1  UNL1       -0.0001
     10 C           2.9239   -0.4918   22.7475 C.ar    1  UNL1       -0.0024
     11 C           3.5177   -1.5873   20.4677 C.3     1  UNL1        0.1240
     12 N           2.6803   -0.5648   19.7581 N.ar    1  UNL1       -0.3045
     13 C           3.1944    0.6154   18.9882 C.ar    1  UNL1        0.0983
     14 C           2.0137    1.3665   18.4481 C.ar    1  UNL1        0.1193
     15 N           0.7699    0.6505   18.8842 N.ar    1  UNL1       -0.2223
     16 C           1.1819   -0.5431   19.6938 C.ar    1  UNL1        0.1788
     17 C           3.5074   -3.9341   19.3531 C.3     1  UNL1        0.0197
     18 C           4.2199   -2.6563   19.6841 C.3     1  UNL1        0.0827
     19 N           5.6347   -2.4475   19.2316 N.3     1  UNL1       -0.2696
     20 C           5.9157   -1.6536   17.9902 C.3     1  UNL1        0.0897
     21 C           6.7685   -3.0326   20.0203 C.3     1  UNL1        0.0897
     22 O           3.4640   -0.3052   28.7202 O.3     1  UNL1       -0.4751
     23 C           2.2491   -0.4505   29.5880 C.3     1  UNL1        0.2103
     24 C           1.9836    0.5439   30.6792 C.3     1  UNL1        0.0723
     25 C           3.1828   -0.1543   31.2491 C.3     1  UNL1        0.0088
     26 C           3.7319    0.2645   32.5806 C.3     1  UNL1        0.0005
     27 C           3.0820    1.3815   33.3423 C.3     1  UNL1        0.0000
     28 C           1.8829    2.0795   32.7724 C.3     1  UNL1        0.0005
     29 C           1.3337    1.6608   31.4409 C.3     1  UNL1        0.0088
     30 C           0.8768    0.8966   29.7304 C.2     1  UNL1        0.0532
     31 O           0.7306    2.3064   29.2393 O.co2   1  UNL1       -0.5491
     32 O          -0.0840   -0.1605   29.2725 O.co2   1  UNL1       -0.5491
@<TRIPOS>UNITY_ATOM_ATTR
31 1
charge -1
@<TRIPOS>BOND
     1    18    17    1
     2    18    11    1
     3    11     1    1
     4     1     2   ar
     5     2     3   ar
     6     3     4   ar
     7     4     5   ar
     8     5     6   ar
     9     6    22    1
    10    22    23    1
    11    23    24    1
    12    24    30    1
    13    30    31   ar
    14    30    32   ar
    15    24    25    1
    16    25    26    1
    17    26    27    1
    18    27    28    1
    19    28    29    1
    20     6     7   ar
    21     7     8   ar
    22     8     9   ar
    23     9    10   ar
    24    11    12    1
    25    12    13   ar
    26    13    14   ar
    27    14    15   ar
    28    15    16   ar
    29    18    19    1
    30    19    20    1
    31    19    21    1
    32    10     1   ar
    33    16    12   ar
    34     9     4   ar
    35    29    24    1
@<TRIPOS>MOLECULE
*****
 32 35 0 0 0
SMALL
GASTEIGER

@<TRIPOS>ATOM
      1 C           3.2208   -1.3371   21.1254 C.ar    1  UNL1       -0.0004
      2 C           2.1471   -0.8875   20.1795 C.ar    1  UNL1       -0.0024
      3 C           1.1268    0.1173   20.6260 C.ar    1  UNL1       -0.0002
      4 C           1.1803    0.6725   22.0184 C.ar    1  UNL1        0.0030
      5 C           0.1599    1.6773   22.4649 C.ar    1  UNL1        0.0369
      6 C           0.2134    2.2325   23.8573 C.ar    1  UNL1        0.1386
      7 C           1.2872    1.7828   24.8033 C.ar    1  UNL1        0.0369
      8 C           2.3074    0.7780   24.3568 C.ar    1  UNL1        0.0031
      9 C           2.2540    0.2228   22.9644 C.ar    1  UNL1       -0.0001
     10 C           3.2742   -0.7819   22.5179 C.ar    1  UNL1       -0.0024
     11 C           4.2411   -2.3419   20.6790 C.3     1  UNL1        0.1240
     12 N           5.3078   -2.8004   21.6287 N.ar    1  UNL1       -0.3045
     13 C           5.1724   -3.8958   22.6445 C.ar    1  UNL1        0.0983
     14 C           6.4780   -4.0164   23.3731 C.ar    1  UNL1        0.1193
     15 N           7.4204   -2.9955   22.8076 N.ar    1  UNL1       -0.2223
     16 C           6.6971   -2.2440   21.7295 C.ar    1  UNL1        0.1788
     17 C           3.4415   -4.1536   18.9971 C.3     1  UNL1        0.0197
     18 C           4.1948   -2.8883   19.2828 C.3     1  UNL1        0.0827
     19 N           4.9018   -2.1693   18.1722 N.3     1  UNL1       -0.2696
     20 C           4.1367   -1.2486   17.2682 C.3     1  UNL1        0.0897
     21 C           6.3737   -2.3710   17.9657 C.3     1  UNL1        0.0897
     22 O          -0.8069    3.2373   24.3038 O.3     1  UNL1       -0.4751
     23 C          -1.5893    4.0144   23.2869 C.3     1  UNL1        0.2103
     24 C          -3.0797    3.8632   23.2117 C.3     1  UNL1        0.0723
     25 C          -2.9117    4.0557   24.6898 C.3     1  UNL1        0.0088
     26 C          -4.1127    4.0484   25.5884 C.3     1  UNL1        0.0005
     27 C          -5.4818    3.8486   25.0089 C.3     1  UNL1        0.0000
     28 C          -5.6497    3.6561   23.5308 C.3     1  UNL1        0.0005
     29 C          -4.4487    3.6634   22.6323 C.3     1  UNL1        0.0088
     30 C          -2.7301    3.7233   21.7598 C.2     1  UNL1        0.0532
     31 O          -1.6260    4.5505   21.1711 O.co2   1  UNL1       -0.5491
     32 O          -3.4845    2.7560   20.8965 O.co2   1  UNL1       -0.5491
@<TRIPOS>UNITY_ATOM_ATTR
31 1
charge -1
@<TRIPOS>BOND
     1    18    17    1
     2    18    11    1
     3    11     1    1
     4     1     2   ar
     5     2     3   ar
     6     3     4   ar
     7     4     5   ar
     8     5     6   ar
     9     6    22    1
    10    22    23    1
    11    23    24    1
    12    24    30    1
    13    30    31   ar
    14    30    32   ar
    15    24    25    1
    16    25    26    1
    17    26    27    1
    18    27    28    1
    19    28    29    1
    20     6     7   ar
    21     7     8   ar
    22     8     9   ar
    23     9    10   ar
    24    11    12    1
    25    12    13   ar
    26    13    14   ar
    27    14    15   ar
    28    15    16   ar
    29    18    19    1
    30    19    20    1
    31    19    21    1
    32    10     1   ar
    33    16    12   ar
    34     9     4   ar
    35    29    24    1
@<TRIPOS>MOLECULE
*****
 32 35 0 0 0
SMALL
GASTEIGER

@<TRIPOS>ATOM
      1 C           3.9641   -1.7613   21.8500 C.ar    1  UNL1       -0.0004
      2 C           3.4996   -0.8680   22.9618 C.ar    1  UNL1       -0.0024
      3 C           4.0735   -1.0241   24.3388 C.ar    1  UNL1       -0.0002
      4 C           5.1119   -2.0735   24.6040 C.ar    1  UNL1        0.0030
      5 C           5.6858   -2.2296   25.9811 C.ar    1  UNL1        0.0369
      6 C           6.7243   -3.2790   26.2463 C.ar    1  UNL1        0.1386
      7 C           7.1888   -4.1724   25.1344 C.ar    1  UNL1        0.0369
      8 C           6.6149   -4.0163   23.7574 C.ar    1  UNL1        0.0031
      9 C           5.5764   -2.9669   23.4922 C.ar    1  UNL1       -0.0001
     10 C           5.0025   -2.8108   22.1152 C.ar    1  UNL1       -0.0024
     11 C           3.3902   -1.6053   20.4729 C.3     1  UNL1        0.1240
     12 N           2.3945   -0.5186   20.1941 N.ar    1  UNL1       -0.3045
     13 C           0.9028   -0.6437   20.2897 C.ar    1  UNL1        0.0983
     14 C           0.3021    0.6816   19.9254 C.ar    1  UNL1        0.1193
     15 N           1.4226    1.6259   19.6046 N.ar    1  UNL1       -0.2223
     16 C           2.7157    0.8841   19.7706 C.ar    1  UNL1        0.1788
     17 C           3.3238   -3.9543   19.3648 C.3     1  UNL1        0.0197
     18 C           3.8119   -2.5359   19.3747 C.3     1  UNL1        0.0827
     19 N           4.7217   -2.0482   18.2864 N.3     1  UNL1       -0.2696
     20 C           4.1842   -1.1667   17.1983 C.3     1  UNL1        0.0897
     21 C           6.1691   -2.4421   18.2863 C.3     1  UNL1        0.0897
     22 O           7.2982   -3.4351   27.6233 O.3     1  UNL1       -0.4751
     23 C           6.6427   -4.3563   28.6091 C.3     1  UNL1        0.2103
     24 C           6.6620   -4.0258   30.0721 C.3     1  UNL1        0.0723
     25 C           6.3654   -2.6701   29.5027 C.3     1  UNL1        0.0088
     26 C           6.1889   -1.4946   30.4176 C.3     1  UNL1        0.0005
     27 C           6.3089   -1.6748   31.9020 C.3     1  UNL1        0.0000
     28 C           6.6055   -3.0305   32.4713 C.3     1  UNL1        0.0005
     29 C           6.7821   -4.2059   31.5564 C.3     1  UNL1        0.0088
     30 C           6.9519   -5.4962   30.1334 C.2     1  UNL1        0.0532
     31 O           7.3161   -6.2416   28.8837 O.co2   1  UNL1       -0.5491
     32 O           6.8775   -6.2213   31.4444 O.co2   1  UNL1       -0.5491
@<TRIPOS>UNITY_ATOM_ATTR
31 1
charge -1
@<TRIPOS>BOND
     1    18    17    1
     2    18    11    1
     3    11     1    1
     4     1     2   ar
     5     2     3   ar
     6     3     4   ar
     7     4     5   ar
     8     5     6   ar
     9     6    22    1
    10    22    23    1
    11    23    24    1
    12    24    30    1
    13    30    31   ar
    14    30    32   ar
    15    24    25    1
    16    25    26    1
    17    26    27    1
    18    27    28    1
    19    28    29    1
    20     6     7   ar
    21     7     8   ar
    22     8     9   ar
    23     9    10   ar
    24    11    12    1
    25    12    13   ar
    26    13    14   ar
    27    14    15   ar
    28    15    16   ar
    29    18    19    1
    30    19    20    1
    31    19    21    1
    32    10     1   ar
    33    16    12   ar
    34     9     4   ar
    35    29    24    1
@<TRIPOS>MOLECULE
*****
 32 35 0 0 0
SMALL
GASTEIGER

@<TRIPOS>ATOM
      1 C           3.1214   -0.3386   19.6002 C.ar    1  UNL1       -0.0004
      2 C           2.3731    0.0560   18.3616 C.ar    1  UNL1       -0.0024
      3 C           1.1530    0.9222   18.4665 C.ar    1  UNL1       -0.0002
      4 C           0.6813    1.3939   19.8100 C.ar    1  UNL1        0.0030
      5 C          -0.5388    2.2601   19.9149 C.ar    1  UNL1        0.0369
      6 C          -1.0105    2.7318   21.2584 C.ar    1  UNL1        0.1386
      7 C          -0.2621    2.3371   22.4971 C.ar    1  UNL1        0.0369
      8 C           0.9580    1.4709   22.3921 C.ar    1  UNL1        0.0031
      9 C           1.4297    0.9993   21.0486 C.ar    1  UNL1       -0.0001
     10 C           2.6497    0.1331   20.9437 C.ar    1  UNL1       -0.0024
     11 C           4.3416   -1.2048   19.4953 C.3     1  UNL1        0.1240
     12 N           5.6082   -0.6492   18.9149 N.ar    1  UNL1       -0.3045
     13 C           6.7672   -0.0990   19.6921 C.ar    1  UNL1        0.0983
     14 C           7.8135    0.3440   18.7129 C.ar    1  UNL1        0.1193
     15 N           7.3012    0.0677   17.3304 N.ar    1  UNL1       -0.2223
     16 C           5.9383   -0.5461   17.4553 C.ar    1  UNL1        0.1788
     17 C           3.4853   -3.6423   19.2206 C.3     1  UNL1        0.0197
     18 C           4.2950   -2.6267   19.9708 C.3     1  UNL1        0.0827
     19 N           5.0582   -3.0329   21.1966 N.3     1  UNL1       -0.2696
     20 C           4.4457   -2.8561   22.5544 C.3     1  UNL1        0.0897
     21 C           6.4339   -3.6160   21.0646 C.3     1  UNL1        0.0897
     22 O          -2.2306    3.5980   21.3633 O.3     1  UNL1       -0.4751
     23 C          -3.4924    3.2055   20.6534 C.3     1  UNL1        0.2103
     24 C          -4.8138    3.7375   21.1232 C.3     1  UNL1        0.0723
     25 C          -4.2000    3.3648   22.4402 C.3     1  UNL1        0.0088
     26 C          -4.9613    3.5893   23.7129 C.3     1  UNL1        0.0005
     27 C          -6.3367    4.1866   23.6687 C.3     1  UNL1        0.0000
     28 C          -6.9504    4.5593   22.3518 C.3     1  UNL1        0.0005
     29 C          -6.1891    4.3348   21.0791 C.3     1  UNL1        0.0088
     30 C          -4.9687    3.9254   19.6432 C.2     1  UNL1        0.0532
     31 O          -5.9558    3.0923   18.8806 O.co2   1  UNL1       -0.5491
     32 O          -4.1365    4.9465   18.9256 O.co2   1  UNL1       -0.5491
@<TRIPOS>UNITY_ATOM_ATTR
31 1
charge -1
@<TRIPOS>BOND
     1    18    17    1
     2    18    11    1
     3    11     1    1
     4     1     2   ar
     5     2     3   ar
     6     3     4   ar
     7     4     5   ar
     8     5     6   ar
     9     6    22    1
    10    22    23    1
    11    23    24    1
    12    24    30    1
    13    30    31   ar
    14    30    32   ar
    15    24    25    1
    16    25    26    1
    17    26    27    1
    18    27    28    1
    19    28    29    1
    20     6     7   ar
    21     7     8   ar
    22     8     9   ar
    23     9    10   ar
    24    11    12    1
    25    12    13   ar
    26    13    14   ar
    27    14    15   ar
    28    15    16   ar
    29    18    19    1
    30    19    20    1
    31    19    21    1
    32    10     1   ar
    33    16    12   ar
    34     9     4   ar
    35    29    24    1
