@<TRIPOS>MOLECULE
*****
 30 33 0 0 0
SMALL
GASTEIGER

@<TRIPOS>ATOM
      1 C          -6.8305  -19.8217   21.3919 C.3     1  UNL1        0.0749
      2 C          -6.2302  -18.7446   22.2459 C.3     1  UNL1        0.0444
      3 C          -4.7466  -18.5240   22.2421 C.ar    1  UNL1       -0.0101
      4 C          -3.8632  -19.3806   21.3843 C.ar    1  UNL1       -0.0091
      5 C          -2.3794  -19.1600   21.3805 C.ar    1  UNL1       -0.0032
      6 C          -1.7792  -18.0828   22.2346 C.ar    1  UNL1        0.0010
      7 C          -2.6626  -17.2262   23.0924 C.ar    1  UNL1        0.0142
      8 C          -4.1463  -17.4468   23.0962 C.ar    1  UNL1        0.0436
      9 C          -4.4634  -20.4577   20.5302 C.3     1  UNL1        0.0954
     10 N          -5.9471  -20.6783   20.5340 N.3     1  UNL1       -0.2934
     11 H          -6.1005  -21.6437   20.8252 H       1  UNL1        0.1236
     12 N          -5.0297  -16.5902   23.9540 N.pl3   1  UNL1       -0.3049
     13 C          -6.2004  -15.8758   23.3464 C.3     1  UNL1        0.1079
     14 C          -7.0838  -15.0193   24.2043 C.3     1  UNL1        0.0903
     15 N          -6.7965  -14.8771   25.6697 N.3     1  UNL1       -0.2946
     16 C          -5.6258  -15.5915   26.2772 C.3     1  UNL1        0.0903
     17 C          -4.7424  -16.4481   25.4193 C.3     1  UNL1        0.1079
     18 H          -7.6277  -15.1994   26.1653 H       1  UNL1        0.1233
     19 C          -8.3142  -20.0423   21.3956 C.3     1  UNL1        0.0886
     20 N          -9.2216  -19.0508   20.7297 N.3     1  UNL1       -0.2653
     21 C          -9.6338  -19.2525   19.3016 C.3     1  UNL1        0.0900
     22 C          -9.7168  -17.8575   21.4919 C.3     1  UNL1        0.1184
     23 C         -14.2780  -18.4410   25.3461 C.3     1  UNL1        0.0326
     24 C         -13.1377  -18.2952   24.3825 C.ar    1  UNL1       -0.0030
     25 C         -11.8032  -18.9008   24.7025 C.ar    1  UNL1        0.0942
     26 N         -10.6630  -18.7549   23.7390 N.ar    1  UNL1       -0.2474
     27 C         -10.8571  -18.0034   22.4555 C.ar    1  UNL1        0.0712
     28 C         -12.1915  -17.3977   22.1355 C.ar    1  UNL1       -0.0072
     29 C         -12.3857  -16.6462   20.8519 C.3     1  UNL1        0.0323
     30 C         -13.3318  -17.5436   23.0990 C.ar    1  UNL1       -0.0058
@<TRIPOS>BOND
     1    23    24    1
     2    24    25   ar
     3    25    26   ar
     4    26    27   ar
     5    27    22    1
     6    22    20    1
     7    20    21    1
     8    20    19    1
     9     1    19    1
    10     1     2    1
    11     2     3    1
    12     3     4   ar
    13     4     5   ar
    14     5     6   ar
    15     6     7   ar
    16     7     8   ar
    17     8    12    1
    18    12    13    1
    19    13    14    1
    20    14    15    1
    21    15    16    1
    22    16    17    1
    23     4     9    1
    24     9    10    1
    25    27    28   ar
    26    28    29    1
    27    28    30   ar
    28    30    24   ar
    29    10     1    1
    30     8     3   ar
    31    17    12    1
    32    15    18    1
    33    10    11    1
@<TRIPOS>MOLECULE
*****
 30 33 0 0 0
SMALL
GASTEIGER

@<TRIPOS>ATOM
      1 C          -8.1230  -18.9294   20.1838 C.3     1  UNL1        0.0749
      2 C          -8.4200  -18.0576   21.3677 C.3     1  UNL1        0.0444
      3 C          -9.8415  -17.7527   21.7368 C.ar    1  UNL1       -0.0101
      4 C         -10.9661  -18.3196   20.9220 C.ar    1  UNL1       -0.0091
      5 C         -12.3877  -18.0147   21.2911 C.ar    1  UNL1       -0.0032
      6 C         -12.6846  -17.1429   22.4750 C.ar    1  UNL1        0.0010
      7 C         -11.5600  -16.5759   23.2899 C.ar    1  UNL1        0.0142
      8 C         -10.1385  -16.8808   22.9208 C.ar    1  UNL1        0.0436
      9 C         -10.6691  -19.1915   19.7381 C.3     1  UNL1        0.0954
     10 N          -9.2476  -19.4964   19.3690 N.3     1  UNL1       -0.2934
     11 H          -9.1143  -19.1662   18.4131 H       1  UNL1        0.1236
     12 N          -9.0139  -16.3139   23.7356 N.pl3   1  UNL1       -0.3049
     13 C          -7.9055  -15.5602   23.0621 C.3     1  UNL1        0.1079
     14 C          -6.7809  -14.9933   23.8769 C.3     1  UNL1        0.0903
     15 N          -6.7648  -15.1800   25.3652 N.3     1  UNL1       -0.2946
     16 C          -7.8732  -15.9336   26.0386 C.3     1  UNL1        0.0903
     17 C          -8.9977  -16.5005   25.2238 C.3     1  UNL1        0.1079
     18 H          -6.7489  -14.2477   25.7787 H       1  UNL1        0.1233
     19 C          -6.7015  -19.2343   19.8146 C.3     1  UNL1        0.0886
     20 N          -5.8951  -20.1805   20.6539 N.3     1  UNL1       -0.2653
     21 C          -6.0213  -21.6609   20.4467 C.3     1  UNL1        0.0900
     22 C          -4.9625  -19.6465   21.7004 C.3     1  UNL1        0.1184
     23 C           0.1074  -16.8819   20.0714 C.3     1  UNL1        0.0326
     24 C          -1.1601  -17.5731   20.4787 C.ar    1  UNL1       -0.0030
     25 C          -1.7627  -18.6198   19.5892 C.ar    1  UNL1        0.0942
     26 N          -3.0301  -19.3109   19.9964 N.ar    1  UNL1       -0.2474
     27 C          -3.6950  -18.9553   21.2931 C.ar    1  UNL1        0.0712
     28 C          -3.0925  -17.9086   22.1826 C.ar    1  UNL1       -0.0072
     29 C          -3.7574  -17.5530   23.4793 C.3     1  UNL1        0.0323
     30 C          -1.8250  -17.2174   21.7754 C.ar    1  UNL1       -0.0058
@<TRIPOS>BOND
     1    23    24    1
     2    24    25   ar
     3    25    26   ar
     4    26    27   ar
     5    27    22    1
     6    22    20    1
     7    20    21    1
     8    20    19    1
     9     1    19    1
    10     1     2    1
    11     2     3    1
    12     3     4   ar
    13     4     5   ar
    14     5     6   ar
    15     6     7   ar
    16     7     8   ar
    17     8    12    1
    18    12    13    1
    19    13    14    1
    20    14    15    1
    21    15    16    1
    22    16    17    1
    23     4     9    1
    24     9    10    1
    25    27    28   ar
    26    28    29    1
    27    28    30   ar
    28    30    24   ar
    29    10     1    1
    30     8     3   ar
    31    17    12    1
    32    15    18    1
    33    10    11    1
@<TRIPOS>MOLECULE
*****
 30 33 0 0 0
SMALL
GASTEIGER

@<TRIPOS>ATOM
      1 C          -7.0775  -19.8659   21.7614 C.3     1  UNL1        0.0749
      2 C          -6.4101  -18.7377   22.4905 C.3     1  UNL1        0.0444
      3 C          -4.9413  -18.4928   22.3099 C.ar    1  UNL1       -0.0101
      4 C          -4.1399  -19.3761   21.4002 C.ar    1  UNL1       -0.0091
      5 C          -2.6711  -19.1311   21.2196 C.ar    1  UNL1       -0.0032
      6 C          -2.0037  -18.0029   21.9487 C.ar    1  UNL1        0.0010
      7 C          -2.8050  -17.1196   22.8585 C.ar    1  UNL1        0.0142
      8 C          -4.2738  -17.3646   23.0391 C.ar    1  UNL1        0.0436
      9 C          -4.8073  -20.5043   20.6710 C.3     1  UNL1        0.0954
     10 N          -6.2761  -20.7492   20.8516 N.3     1  UNL1       -0.2934
     11 H          -6.3747  -21.7014   21.2038 H       1  UNL1        0.1236
     12 N          -5.0752  -16.4813   23.9488 N.pl3   1  UNL1       -0.3049
     13 C          -6.2701  -15.7456   23.4186 C.3     1  UNL1        0.1079
     14 C          -7.0715  -14.8623   24.3283 C.3     1  UNL1        0.0903
     15 N          -6.6779  -14.7147   25.7682 N.3     1  UNL1       -0.2946
     16 C          -5.4831  -15.4503   26.2984 C.3     1  UNL1        0.0903
     17 C          -4.6817  -16.3336   25.3887 C.3     1  UNL1        0.1079
     18 H          -7.4787  -15.0141   26.3245 H       1  UNL1        0.1233
     19 C          -8.5463  -20.1109   21.9420 C.3     1  UNL1        0.0886
     20 N          -9.2138  -19.7479   23.2352 N.3     1  UNL1       -0.2653
     21 C          -9.4017  -20.7876   24.3000 C.3     1  UNL1        0.0900
     22 C          -9.6934  -18.3451   23.4638 C.3     1  UNL1        0.1184
     23 C         -12.6699  -15.4492   19.1332 C.3     1  UNL1        0.0326
     24 C         -11.9257  -16.1732   20.2159 C.ar    1  UNL1       -0.0030
     25 C         -10.4275  -16.2364   20.1829 C.ar    1  UNL1        0.0942
     26 N          -9.6834  -16.9604   21.2655 N.ar    1  UNL1       -0.2474
     27 C         -10.4376  -17.6211   22.3812 C.ar    1  UNL1        0.0712
     28 C         -11.9359  -17.5579   22.4142 C.ar    1  UNL1       -0.0072
     29 C         -12.6900  -18.2186   23.5298 C.3     1  UNL1        0.0323
     30 C         -12.6799  -16.8339   21.3315 C.ar    1  UNL1       -0.0058
@<TRIPOS>BOND
     1    23    24    1
     2    24    25   ar
     3    25    26   ar
     4    26    27   ar
     5    27    22    1
     6    22    20    1
     7    20    21    1
     8    20    19    1
     9     1    19    1
    10     1     2    1
    11     2     3    1
    12     3     4   ar
    13     4     5   ar
    14     5     6   ar
    15     6     7   ar
    16     7     8   ar
    17     8    12    1
    18    12    13    1
    19    13    14    1
    20    14    15    1
    21    15    16    1
    22    16    17    1
    23     4     9    1
    24     9    10    1
    25    27    28   ar
    26    28    29    1
    27    28    30   ar
    28    30    24   ar
    29    10     1    1
    30     8     3   ar
    31    17    12    1
    32    15    18    1
    33    10    11    1
@<TRIPOS>MOLECULE
*****
 30 33 0 0 0
SMALL
GASTEIGER

@<TRIPOS>ATOM
      1 C          -8.6077  -16.5823   22.3089 C.3     1  UNL1        0.0749
      2 C          -7.1669  -16.6218   22.7242 C.3     1  UNL1        0.0444
      3 C          -6.7735  -16.1988   24.1084 C.ar    1  UNL1       -0.0101
      4 C          -7.8209  -15.7363   25.0775 C.ar    1  UNL1       -0.0091
      5 C          -7.4274  -15.3133   26.4618 C.ar    1  UNL1       -0.0032
      6 C          -5.9866  -15.3528   26.8770 C.ar    1  UNL1        0.0010
      7 C          -4.9392  -15.8154   25.9080 C.ar    1  UNL1        0.0142
      8 C          -5.3326  -16.2384   24.5237 C.ar    1  UNL1        0.0436
      9 C          -9.2617  -15.6968   24.6623 C.3     1  UNL1        0.0954
     10 N          -9.6551  -16.1198   23.2780 N.3     1  UNL1       -0.2934
     11 H         -10.1223  -15.3216   22.8478 H       1  UNL1        0.1236
     12 N          -4.2852  -16.7009   23.5547 N.pl3   1  UNL1       -0.3049
     13 C          -3.4804  -15.6965   22.7842 C.3     1  UNL1        0.1079
     14 C          -2.4331  -16.1590   21.8152 C.3     1  UNL1        0.0903
     15 N          -2.1905  -17.6259   21.6166 N.3     1  UNL1       -0.2946
     16 C          -2.9952  -18.6302   22.3871 C.3     1  UNL1        0.0903
     17 C          -4.0426  -18.1677   23.3561 C.3     1  UNL1        0.1079
     18 H          -1.2110  -17.7960   21.8449 H       1  UNL1        0.1233
     19 C          -9.0012  -17.0053   20.9246 C.3     1  UNL1        0.0886
     20 N          -9.1451  -18.4622   20.5980 N.3     1  UNL1       -0.2653
     21 C          -7.9457  -19.2583   20.1762 C.3     1  UNL1        0.0900
     22 C         -10.4883  -19.1231   20.6931 C.3     1  UNL1        0.1184
     23 C         -13.9001  -18.2970   25.5591 C.3     1  UNL1        0.0326
     24 C         -13.0471  -18.5036   24.3426 C.ar    1  UNL1       -0.0030
     25 C         -11.9626  -19.5397   24.3542 C.ar    1  UNL1        0.0942
     26 N         -11.1096  -19.7461   23.1377 N.ar    1  UNL1       -0.2474
     27 C         -11.3413  -18.9166   21.9096 C.ar    1  UNL1        0.0712
     28 C         -12.4259  -17.8805   21.8980 C.ar    1  UNL1       -0.0072
     29 C         -12.6575  -17.0509   20.6700 C.3     1  UNL1        0.0323
     30 C         -13.2788  -17.6740   23.1145 C.ar    1  UNL1       -0.0058
@<TRIPOS>BOND
     1    23    24    1
     2    24    25   ar
     3    25    26   ar
     4    26    27   ar
     5    27    22    1
     6    22    20    1
     7    20    21    1
     8    20    19    1
     9     1    19    1
    10     1     2    1
    11     2     3    1
    12     3     4   ar
    13     4     5   ar
    14     5     6   ar
    15     6     7   ar
    16     7     8   ar
    17     8    12    1
    18    12    13    1
    19    13    14    1
    20    14    15    1
    21    15    16    1
    22    16    17    1
    23     4     9    1
    24     9    10    1
    25    27    28   ar
    26    28    29    1
    27    28    30   ar
    28    30    24   ar
    29    10     1    1
    30     8     3   ar
    31    17    12    1
    32    15    18    1
    33    10    11    1
@<TRIPOS>MOLECULE
*****
 30 33 0 0 0
SMALL
GASTEIGER

@<TRIPOS>ATOM
      1 C          -8.9334  -16.0613   22.5997 C.3     1  UNL1        0.0749
      2 C          -7.4867  -16.2133   22.9657 C.3     1  UNL1        0.0444
      3 C          -7.0475  -16.0143   24.3861 C.ar    1  UNL1       -0.0101
      4 C          -8.0550  -15.6632   25.4404 C.ar    1  UNL1       -0.0091
      5 C          -7.6158  -15.4642   26.8609 C.ar    1  UNL1       -0.0032
      6 C          -6.1691  -15.6162   27.2268 C.ar    1  UNL1        0.0010
      7 C          -5.1616  -15.9673   26.1725 C.ar    1  UNL1        0.0142
      8 C          -5.6008  -16.1663   24.7521 C.ar    1  UNL1        0.0436
      9 C          -9.5017  -15.5112   25.0745 C.3     1  UNL1        0.0954
     10 N          -9.9409  -15.7102   23.6541 N.3     1  UNL1       -0.2934
     11 H         -10.3854  -14.8410   23.3588 H       1  UNL1        0.1236
     12 N          -4.5933  -16.5174   23.6977 N.pl3   1  UNL1       -0.3049
     13 C          -3.8589  -15.4302   22.9705 C.3     1  UNL1        0.1079
     14 C          -2.8514  -15.7813   21.9162 C.3     1  UNL1        0.0903
     15 N          -2.5783  -17.2195   21.5890 N.3     1  UNL1       -0.2946
     16 C          -3.3127  -18.3066   22.3162 C.3     1  UNL1        0.0903
     17 C          -4.3202  -17.9555   23.3705 C.3     1  UNL1        0.1079
     18 H          -1.5837  -17.3752   21.7534 H       1  UNL1        0.1233
     19 C          -9.3726  -16.2603   21.1793 C.3     1  UNL1        0.0886
     20 N         -10.4917  -17.2088   20.8662 N.3     1  UNL1       -0.2653
     21 C         -11.8505  -16.6769   20.5183 C.3     1  UNL1        0.0900
     22 C         -10.2521  -18.6891   20.9010 C.3     1  UNL1        0.1184
     23 C          -4.6827  -20.8414   20.3092 C.3     1  UNL1        0.0326
     24 C          -6.0751  -20.3033   20.4571 C.ar    1  UNL1       -0.0030
     25 C          -6.8090  -19.7816   19.2574 C.ar    1  UNL1        0.0942
     26 N          -8.2013  -19.2436   19.4054 N.ar    1  UNL1       -0.2474
     27 C          -8.8597  -19.2272   20.7531 C.ar    1  UNL1        0.0712
     28 C          -8.1259  -19.7489   21.9527 C.ar    1  UNL1       -0.0072
     29 C          -8.7843  -19.7325   23.3004 C.3     1  UNL1        0.0323
     30 C          -6.7336  -20.2869   21.8048 C.ar    1  UNL1       -0.0058
@<TRIPOS>BOND
     1    23    24    1
     2    24    25   ar
     3    25    26   ar
     4    26    27   ar
     5    27    22    1
     6    22    20    1
     7    20    21    1
     8    20    19    1
     9     1    19    1
    10     1     2    1
    11     2     3    1
    12     3     4   ar
    13     4     5   ar
    14     5     6   ar
    15     6     7   ar
    16     7     8   ar
    17     8    12    1
    18    12    13    1
    19    13    14    1
    20    14    15    1
    21    15    16    1
    22    16    17    1
    23     4     9    1
    24     9    10    1
    25    27    28   ar
    26    28    29    1
    27    28    30   ar
    28    30    24   ar
    29    10     1    1
    30     8     3   ar
    31    17    12    1
    32    15    18    1
    33    10    11    1
@<TRIPOS>MOLECULE
*****
 30 33 0 0 0
SMALL
GASTEIGER

@<TRIPOS>ATOM
      1 C          -7.7297  -15.0894   22.3279 C.3     1  UNL1        0.0749
      2 C          -8.6337  -16.2672   22.5411 C.3     1  UNL1        0.0444
      3 C          -9.8149  -16.4787   21.6411 C.ar    1  UNL1       -0.0101
      4 C         -10.0920  -15.5124   20.5278 C.ar    1  UNL1       -0.0091
      5 C         -11.2732  -15.7239   19.6277 C.ar    1  UNL1       -0.0032
      6 C         -12.1773  -16.9017   19.8409 C.ar    1  UNL1        0.0010
      7 C         -11.9001  -17.8680   20.9542 C.ar    1  UNL1        0.0142
      8 C         -10.7190  -17.6565   21.8543 C.ar    1  UNL1        0.0436
      9 C          -9.1880  -14.3346   20.3145 C.3     1  UNL1        0.0954
     10 N          -8.0069  -14.1231   21.2146 N.3     1  UNL1       -0.2934
     11 H          -8.1243  -13.2053   21.6437 H       1  UNL1        0.1236
     12 N         -10.4419  -18.6228   22.9676 N.pl3   1  UNL1       -0.3049
     13 C          -9.4638  -19.7418   22.7634 C.3     1  UNL1        0.1079
     14 C          -9.1867  -20.7081   23.8767 C.3     1  UNL1        0.0903
     15 N          -9.8876  -20.5555   25.1942 N.3     1  UNL1       -0.2946
     16 C         -10.8656  -19.4366   25.3982 C.3     1  UNL1        0.0903
     17 C         -11.1427  -18.4703   24.2849 C.3     1  UNL1        0.1079
     18 H          -9.1621  -20.4453   25.9026 H       1  UNL1        0.1233
     19 C          -6.5485  -14.8779   23.2279 C.3     1  UNL1        0.0886
     20 N          -6.0863  -15.9829   24.1309 N.3     1  UNL1       -0.2653
     21 C          -5.9692  -15.7455   25.6074 C.3     1  UNL1        0.0900
     22 C          -5.7410  -17.3252   23.5574 C.3     1  UNL1        0.1184
     23 C          -0.7667  -17.9935   20.2696 C.3     1  UNL1        0.0326
     24 C          -2.0103  -17.8264   21.0916 C.ar    1  UNL1       -0.0030
     25 C          -2.2284  -16.5654   21.8740 C.ar    1  UNL1        0.0942
     26 N          -3.4720  -16.3983   22.6959 N.ar    1  UNL1       -0.2474
     27 C          -4.4974  -17.4923   22.7354 C.ar    1  UNL1        0.0712
     28 C          -4.2793  -18.7534   21.9531 C.ar    1  UNL1       -0.0072
     29 C          -5.3048  -19.8474   21.9927 C.3     1  UNL1        0.0323
     30 C          -3.0357  -18.9204   21.1312 C.ar    1  UNL1       -0.0058
@<TRIPOS>BOND
     1    23    24    1
     2    24    25   ar
     3    25    26   ar
     4    26    27   ar
     5    27    22    1
     6    22    20    1
     7    20    21    1
     8    20    19    1
     9     1    19    1
    10     1     2    1
    11     2     3    1
    12     3     4   ar
    13     4     5   ar
    14     5     6   ar
    15     6     7   ar
    16     7     8   ar
    17     8    12    1
    18    12    13    1
    19    13    14    1
    20    14    15    1
    21    15    16    1
    22    16    17    1
    23     4     9    1
    24     9    10    1
    25    27    28   ar
    26    28    29    1
    27    28    30   ar
    28    30    24   ar
    29    10     1    1
    30     8     3   ar
    31    17    12    1
    32    15    18    1
    33    10    11    1
@<TRIPOS>MOLECULE
*****
 30 33 0 0 0
SMALL
GASTEIGER

@<TRIPOS>ATOM
      1 C          -7.5148  -15.9674   23.2822 C.3     1  UNL1        0.0749
      2 C          -8.1055  -17.0323   22.4064 C.3     1  UNL1        0.0444
      3 C          -9.5792  -17.3082   22.4515 C.ar    1  UNL1       -0.0101
      4 C         -10.4621  -16.5193   23.3724 C.ar    1  UNL1       -0.0091
      5 C         -11.9359  -16.7953   23.4175 C.ar    1  UNL1       -0.0032
      6 C         -12.5266  -17.8602   22.5417 C.ar    1  UNL1        0.0010
      7 C         -11.6437  -18.6491   21.6208 C.ar    1  UNL1        0.0142
      8 C         -10.1701  -18.3731   21.5757 C.ar    1  UNL1        0.0436
      9 C          -9.8714  -15.4545   24.2482 C.3     1  UNL1        0.0954
     10 N          -8.3977  -15.1785   24.2031 N.3     1  UNL1       -0.2934
     11 H          -8.0419  -15.3235   25.1480 H       1  UNL1        0.1236
     12 N          -9.2871  -19.1620   20.6548 N.pl3   1  UNL1       -0.3049
     13 C          -9.8333  -19.6888   19.3608 C.3     1  UNL1        0.1079
     14 C          -8.9504  -20.4777   18.4399 C.3     1  UNL1        0.0903
     15 N          -7.5213  -20.7398   18.8129 N.3     1  UNL1       -0.2946
     16 C          -6.9752  -20.2130   20.1068 C.3     1  UNL1        0.0903
     17 C          -7.8581  -19.4241   21.0277 C.3     1  UNL1        0.1079
     18 H          -6.9457  -20.3463   18.0684 H       1  UNL1        0.1233
     19 C          -6.0410  -15.6914   23.2371 C.3     1  UNL1        0.0886
     20 N          -5.1576  -16.1493   24.3595 N.3     1  UNL1       -0.2653
     21 C          -5.2536  -15.4933   25.7050 C.3     1  UNL1        0.0900
     22 C          -4.1780  -17.2632   24.1363 C.3     1  UNL1        0.1184
     23 C          -1.4788  -17.8626   18.8113 C.3     1  UNL1        0.0326
     24 C          -2.1536  -17.7127   20.1426 C.ar    1  UNL1       -0.0030
     25 C          -1.9432  -16.4690   20.9544 C.ar    1  UNL1        0.0942
     26 N          -2.6180  -16.3192   22.2856 N.ar    1  UNL1       -0.2474
     27 C          -3.5032  -17.4130   22.8050 C.ar    1  UNL1        0.0712
     28 C          -3.7137  -18.6567   21.9933 C.ar    1  UNL1       -0.0072
     29 C          -4.5989  -19.7505   22.5128 C.3     1  UNL1        0.0323
     30 C          -3.0389  -18.8065   20.6621 C.ar    1  UNL1       -0.0058
@<TRIPOS>BOND
     1    23    24    1
     2    24    25   ar
     3    25    26   ar
     4    26    27   ar
     5    27    22    1
     6    22    20    1
     7    20    21    1
     8    20    19    1
     9     1    19    1
    10     1     2    1
    11     2     3    1
    12     3     4   ar
    13     4     5   ar
    14     5     6   ar
    15     6     7   ar
    16     7     8   ar
    17     8    12    1
    18    12    13    1
    19    13    14    1
    20    14    15    1
    21    15    16    1
    22    16    17    1
    23     4     9    1
    24     9    10    1
    25    27    28   ar
    26    28    29    1
    27    28    30   ar
    28    30    24   ar
    29    10     1    1
    30     8     3   ar
    31    17    12    1
    32    15    18    1
    33    10    11    1
@<TRIPOS>MOLECULE
*****
 30 33 0 0 0
SMALL
GASTEIGER

@<TRIPOS>ATOM
      1 C          -8.1495  -18.9059   20.8314 C.3     1  UNL1        0.0749
      2 C          -8.7491  -18.2738   22.0524 C.3     1  UNL1        0.0444
      3 C         -10.2262  -18.0217   22.1179 C.ar    1  UNL1       -0.0101
      4 C         -11.1039  -18.4018   20.9624 C.ar    1  UNL1       -0.0091
      5 C         -12.5812  -18.1498   21.0279 C.ar    1  UNL1       -0.0032
      6 C         -13.1807  -17.5176   22.2489 C.ar    1  UNL1        0.0010
      7 C         -12.3031  -17.1375   23.4044 C.ar    1  UNL1        0.0142
      8 C         -10.8259  -17.3896   23.3390 C.ar    1  UNL1        0.0436
      9 C         -10.5044  -19.0340   19.7414 C.3     1  UNL1        0.0954
     10 N          -9.0272  -19.2860   19.6759 N.3     1  UNL1       -0.2934
     11 H          -8.6779  -18.7801   18.8620 H       1  UNL1        0.1236
     12 N          -9.9482  -17.0094   24.4945 N.pl3   1  UNL1       -0.3049
     13 C          -9.7912  -17.9449   25.6566 C.3     1  UNL1        0.1079
     14 C          -8.9136  -17.5648   26.8121 C.3     1  UNL1        0.0903
     15 N          -8.1929  -16.2492   26.8055 N.3     1  UNL1       -0.2946
     16 C          -8.3499  -15.3138   25.6435 C.3     1  UNL1        0.0903
     17 C          -9.2276  -15.6939   24.4880 C.3     1  UNL1        0.1079
     18 H          -7.1976  -16.4583   26.8828 H       1  UNL1        0.1233
     19 C          -6.6722  -19.1580   20.7659 C.3     1  UNL1        0.0886
     20 N          -5.7814  -18.6892   21.8779 N.3     1  UNL1       -0.2653
     21 C          -6.2253  -17.5712   22.7740 C.3     1  UNL1        0.0900
     22 C          -4.4465  -19.3385   22.0939 C.3     1  UNL1        0.1184
     23 C           0.5012  -16.8728   19.7613 C.3     1  UNL1        0.0326
     24 C          -0.7357  -17.4893   20.3445 C.ar    1  UNL1       -0.0030
     25 C          -1.2399  -17.0366   21.6827 C.ar    1  UNL1        0.0942
     26 N          -2.4768  -17.6530   22.2658 N.ar    1  UNL1       -0.2474
     27 C          -3.2096  -18.7221   21.5107 C.ar    1  UNL1        0.0712
     28 C          -2.7054  -19.1747   20.1725 C.ar    1  UNL1       -0.0072
     29 C          -3.4381  -20.2438   19.4174 C.3     1  UNL1        0.0323
     30 C          -1.4685  -18.5583   19.5894 C.ar    1  UNL1       -0.0058
@<TRIPOS>BOND
     1    23    24    1
     2    24    25   ar
     3    25    26   ar
     4    26    27   ar
     5    27    22    1
     6    22    20    1
     7    20    21    1
     8    20    19    1
     9     1    19    1
    10     1     2    1
    11     2     3    1
    12     3     4   ar
    13     4     5   ar
    14     5     6   ar
    15     6     7   ar
    16     7     8   ar
    17     8    12    1
    18    12    13    1
    19    13    14    1
    20    14    15    1
    21    15    16    1
    22    16    17    1
    23     4     9    1
    24     9    10    1
    25    27    28   ar
    26    28    29    1
    27    28    30   ar
    28    30    24   ar
    29    10     1    1
    30     8     3   ar
    31    17    12    1
    32    15    18    1
    33    10    11    1
@<TRIPOS>MOLECULE
*****
 30 33 0 0 0
SMALL
GASTEIGER

@<TRIPOS>ATOM
      1 C           4.0087   -1.6917   24.0617 C.3     1  UNL1        0.0749
      2 C           3.4959   -1.2321   22.7291 C.3     1  UNL1        0.0444
      3 C           3.8831   -1.9695   21.4816 C.ar    1  UNL1       -0.0101
      4 C           4.7830   -3.1665   21.5667 C.ar    1  UNL1       -0.0091
      5 C           5.1702   -3.9040   20.3191 C.ar    1  UNL1       -0.0032
      6 C           4.6574   -3.4444   18.9865 C.ar    1  UNL1        0.0010
      7 C           3.7574   -2.2474   18.9015 C.ar    1  UNL1        0.0142
      8 C           3.3702   -1.5100   20.1490 C.ar    1  UNL1        0.0436
      9 C           5.2958   -3.6261   22.8992 C.3     1  UNL1        0.0954
     10 N           4.9087   -2.8887   24.1467 N.3     1  UNL1       -0.2934
     11 H           5.7751   -2.5751   24.5843 H       1  UNL1        0.1236
     12 N           2.4703   -0.3130   20.0639 N.pl3   1  UNL1       -0.3049
     13 C           0.9975   -0.4633   20.3057 C.3     1  UNL1        0.1079
     14 C           0.0975    0.7337   20.2206 C.3     1  UNL1        0.0903
     15 N           0.6703    2.0810   19.8937 N.3     1  UNL1       -0.2946
     16 C           2.1430    2.2313   19.6520 C.3     1  UNL1        0.0903
     17 C           3.0430    1.0343   19.7370 C.3     1  UNL1        0.1079
     18 H           0.4352    2.6975   20.6716 H       1  UNL1        0.1233
     19 C           3.6216   -0.9542   25.3092 C.3     1  UNL1        0.0886
     20 N           4.2502    0.3710   25.6227 N.3     1  UNL1       -0.2653
     21 C           5.6385    0.6750   25.1426 C.3     1  UNL1        0.0900
     22 C           3.4907    1.3925   26.4164 C.3     1  UNL1        0.1184
     23 C          -1.6611   -0.1155   29.0969 C.3     1  UNL1        0.0326
     24 C          -0.3731    0.2615   28.4267 C.ar    1  UNL1       -0.0030
     25 C           0.9363   -0.1388   29.0394 C.ar    1  UNL1        0.0942
     26 N           2.2242    0.2382   28.3692 N.ar    1  UNL1       -0.2474
     27 C           2.2027    1.0155   27.0865 C.ar    1  UNL1        0.0712
     28 C           0.8934    1.4157   26.4739 C.ar    1  UNL1       -0.0072
     29 C           0.8719    2.1929   25.1911 C.3     1  UNL1        0.0323
     30 C          -0.3945    1.0387   27.1440 C.ar    1  UNL1       -0.0058
@<TRIPOS>BOND
     1    23    24    1
     2    24    25   ar
     3    25    26   ar
     4    26    27   ar
     5    27    22    1
     6    22    20    1
     7    20    21    1
     8    20    19    1
     9     1    19    1
    10     1     2    1
    11     2     3    1
    12     3     4   ar
    13     4     5   ar
    14     5     6   ar
    15     6     7   ar
    16     7     8   ar
    17     8    12    1
    18    12    13    1
    19    13    14    1
    20    14    15    1
    21    15    16    1
    22    16    17    1
    23     4     9    1
    24     9    10    1
    25    27    28   ar
    26    28    29    1
    27    28    30   ar
    28    30    24   ar
    29    10     1    1
    30     8     3   ar
    31    17    12    1
    32    15    18    1
    33    10    11    1
