@<TRIPOS>MOLECULE
*****
 22 24 0 0 0
SMALL
GASTEIGER

@<TRIPOS>ATOM
      1 C          -6.7227  -19.0999   20.6742 C.ar    1  UNL1        0.0295
      2 C          -7.4373  -19.7653   19.5355 C.ar    1  UNL1        0.0070
      3 C          -8.9122  -19.6523   19.7844 C.ar    1  UNL1        0.0070
      4 C          -9.1092  -18.9171   21.0769 C.ar    1  UNL1        0.0296
      5 S          -7.7560  -18.5757   21.6268 S.2     1  UNL1       -0.0869
      6 C          -2.0461  -18.1083   18.6380 C.3     1  UNL1        0.0342
      7 C          -2.8976  -18.4840   19.8143 C.ar    1  UNL1        0.0119
      8 C          -4.3844  -18.6041   19.6561 C.ar    1  UNL1       -0.0008
      9 C          -5.2359  -18.9797   20.8324 C.ar    1  UNL1        0.0059
     10 C          -4.6007  -19.2352   22.1670 C.ar    1  UNL1        0.0036
     11 C          -3.1139  -19.1151   22.3253 C.ar    1  UNL1        0.0363
     12 C          -2.2624  -18.7395   21.1489 C.ar    1  UNL1        0.1296
     13 O          -0.7756  -18.6193   21.3072 O.3     1  UNL1       -0.5058
     14 H          -0.3788  -18.7789   22.1409 H       1  UNL1        0.2922
     15 C         -10.4278  -18.5821   21.7086 C.ar    1  UNL1        0.0090
     16 C         -11.5127  -17.9489   20.8890 C.ar    1  UNL1        0.0007
     17 C         -12.8313  -17.6140   21.5207 C.ar    1  UNL1        0.0031
     18 C         -13.0650  -17.9122   22.9721 C.ar    1  UNL1        0.0366
     19 C         -11.9800  -18.5454   23.7917 C.ar    1  UNL1        0.1337
     20 O         -12.2136  -18.8437   25.2431 O.3     1  UNL1       -0.5055
     21 C         -10.6614  -18.8804   23.1600 C.ar    1  UNL1        0.0371
     22 H         -13.0373  -18.6344   25.6377 H       1  UNL1        0.2922
@<TRIPOS>BOND
     1     6     7    1
     2     7     8   ar
     3     8     9   ar
     4     9     1    1
     5     1     2   ar
     6     2     3   ar
     7     3     4   ar
     8     4    15    1
     9    15    16   ar
    10    16    17   ar
    11    17    18   ar
    12    18    19   ar
    13    19    20    1
    14    19    21   ar
    15     4     5   ar
    16     9    10   ar
    17    10    11   ar
    18    11    12   ar
    19    12    13    1
    20    12     7   ar
    21     5     1   ar
    22    21    15   ar
    23    20    22    1
    24    13    14    1
@<TRIPOS>MOLECULE
*****
 22 24 0 0 0
SMALL
GASTEIGER

@<TRIPOS>ATOM
      1 C          -8.0161  -19.1816   21.5983 C.ar    1  UNL1        0.0295
      2 C          -8.0463  -19.5761   20.1515 C.ar    1  UNL1        0.0070
      3 C          -6.6412  -19.5293   19.6288 C.ar    1  UNL1        0.0070
      4 C          -5.7424  -19.1057   20.7526 C.ar    1  UNL1        0.0296
      5 S          -6.5922  -18.8909   21.9698 S.2     1  UNL1       -0.0869
      6 C         -12.6232  -17.1041   22.8061 C.3     1  UNL1        0.0342
      7 C         -11.5051  -18.0545   23.1170 C.ar    1  UNL1        0.0119
      8 C         -10.3197  -18.1429   22.2023 C.ar    1  UNL1       -0.0008
      9 C          -9.2016  -19.0933   22.5132 C.ar    1  UNL1        0.0059
     10 C          -9.2690  -19.9553   23.7388 C.ar    1  UNL1        0.0036
     11 C         -10.4545  -19.8670   24.6535 C.ar    1  UNL1        0.0363
     12 C         -11.5726  -18.9166   24.3426 C.ar    1  UNL1        0.1296
     13 O         -12.7581  -18.8283   25.2575 O.3     1  UNL1       -0.5058
     14 H         -12.8002  -19.3668   26.0231 H       1  UNL1        0.2922
     15 C          -4.2551  -18.9282   20.6731 C.ar    1  UNL1        0.0090
     16 C          -3.4024  -19.1961   21.8777 C.ar    1  UNL1        0.0007
     17 C          -1.9151  -19.0186   21.7982 C.ar    1  UNL1        0.0031
     18 C          -1.2804  -18.5733   20.5141 C.ar    1  UNL1        0.0366
     19 C          -2.1331  -18.3054   19.3095 C.ar    1  UNL1        0.1337
     20 O          -1.4985  -17.8601   18.0253 O.3     1  UNL1       -0.5055
     21 C          -3.6205  -18.4829   19.3890 C.ar    1  UNL1        0.0371
     22 H          -0.5694  -17.7493   17.9757 H       1  UNL1        0.2922
@<TRIPOS>BOND
     1     6     7    1
     2     7     8   ar
     3     8     9   ar
     4     9     1    1
     5     1     2   ar
     6     2     3   ar
     7     3     4   ar
     8     4    15    1
     9    15    16   ar
    10    16    17   ar
    11    17    18   ar
    12    18    19   ar
    13    19    20    1
    14    19    21   ar
    15     4     5   ar
    16     9    10   ar
    17    10    11   ar
    18    11    12   ar
    19    12    13    1
    20    12     7   ar
    21     5     1   ar
    22    21    15   ar
    23    20    22    1
    24    13    14    1
@<TRIPOS>MOLECULE
*****
 22 24 0 0 0
SMALL
GASTEIGER

@<TRIPOS>ATOM
      1 C          -8.3210  -19.1363   21.7073 C.ar    1  UNL1        0.0295
      2 C          -8.3411  -19.5592   20.2683 C.ar    1  UNL1        0.0070
      3 C          -6.9338  -19.5113   19.7514 C.ar    1  UNL1        0.0070
      4 C          -6.0439  -19.0589   20.8710 C.ar    1  UNL1        0.0296
      5 S          -6.9013  -18.8271   22.0798 S.2     1  UNL1       -0.0869
      6 C         -13.0117  -17.1766   22.7827 C.3     1  UNL1        0.0342
      7 C         -11.8570  -18.0597   23.1523 C.ar    1  UNL1        0.0119
      8 C         -10.6664  -18.1565   22.2450 C.ar    1  UNL1       -0.0008
      9 C          -9.5117  -19.0396   22.6146 C.ar    1  UNL1        0.0059
     10 C          -9.5475  -19.8261   23.8913 C.ar    1  UNL1        0.0036
     11 C         -10.7381  -19.7294   24.7986 C.ar    1  UNL1        0.0363
     12 C         -11.8928  -18.8462   24.4290 C.ar    1  UNL1        0.1296
     13 O         -13.0835  -18.7495   25.3363 O.3     1  UNL1       -0.5058
     14 H         -13.1059  -19.2408   26.1339 H       1  UNL1        0.2922
     15 C          -4.5576  -18.8711   20.7951 C.ar    1  UNL1        0.0090
     16 C          -3.8556  -18.9709   19.4733 C.ar    1  UNL1        0.0007
     17 C          -2.3694  -18.7832   19.3974 C.ar    1  UNL1        0.0031
     18 C          -1.5851  -18.4956   20.6433 C.ar    1  UNL1        0.0366
     19 C          -2.2871  -18.3959   21.9651 C.ar    1  UNL1        0.1337
     20 O          -1.5029  -18.1083   23.2110 O.3     1  UNL1       -0.5055
     21 C          -3.7734  -18.5836   22.0410 C.ar    1  UNL1        0.0371
     22 H          -0.5744  -17.9911   23.1636 H       1  UNL1        0.2922
@<TRIPOS>BOND
     1     6     7    1
     2     7     8   ar
     3     8     9   ar
     4     9     1    1
     5     1     2   ar
     6     2     3   ar
     7     3     4   ar
     8     4    15    1
     9    15    16   ar
    10    16    17   ar
    11    17    18   ar
    12    18    19   ar
    13    19    20    1
    14    19    21   ar
    15     4     5   ar
    16     9    10   ar
    17    10    11   ar
    18    11    12   ar
    19    12    13    1
    20    12     7   ar
    21     5     1   ar
    22    21    15   ar
    23    20    22    1
    24    13    14    1
@<TRIPOS>MOLECULE
*****
 22 24 0 0 0
SMALL
GASTEIGER

@<TRIPOS>ATOM
      1 C          -6.9539  -19.3431   21.9511 C.ar    1  UNL1        0.0295
      2 C          -7.6756  -20.3718   22.7703 C.ar    1  UNL1        0.0070
      3 C          -9.1161  -19.9636   22.8625 C.ar    1  UNL1        0.0070
      4 C          -9.2846  -18.6826   22.1004 C.ar    1  UNL1        0.0296
      5 S          -7.9483  -18.2992   21.5371 S.2     1  UNL1       -0.0869
      6 C          -2.0907  -17.7822   22.9063 C.3     1  UNL1        0.0342
      7 C          -3.0625  -18.5756   22.0841 C.ar    1  UNL1        0.0119
      8 C          -4.5222  -18.5627   22.4287 C.ar    1  UNL1       -0.0008
      9 C          -5.4940  -19.3561   21.6065 C.ar    1  UNL1        0.0059
     10 C          -5.0061  -20.1625   20.4396 C.ar    1  UNL1        0.0036
     11 C          -3.5463  -20.1754   20.0950 C.ar    1  UNL1        0.0363
     12 C          -2.5745  -19.3820   20.9173 C.ar    1  UNL1        0.1296
     13 O          -1.1146  -19.3950   20.5726 O.3     1  UNL1       -0.5058
     14 H          -0.8098  -19.8987   19.8437 H       1  UNL1        0.2922
     15 C         -10.5647  -17.9192   21.9312 C.ar    1  UNL1        0.0090
     16 C         -11.5663  -17.8780   23.0470 C.ar    1  UNL1        0.0007
     17 C         -12.8464  -17.1145   22.8779 C.ar    1  UNL1        0.0031
     18 C         -13.1248  -16.3924   21.5929 C.ar    1  UNL1        0.0366
     19 C         -12.1231  -16.4336   20.4772 C.ar    1  UNL1        0.1337
     20 O         -12.4015  -15.7114   19.1923 O.3     1  UNL1       -0.5055
     21 C         -10.8430  -17.1970   20.6463 C.ar    1  UNL1        0.0371
     22 H         -13.2011  -15.2345   19.0866 H       1  UNL1        0.2922
@<TRIPOS>BOND
     1     6     7    1
     2     7     8   ar
     3     8     9   ar
     4     9     1    1
     5     1     2   ar
     6     2     3   ar
     7     3     4   ar
     8     4    15    1
     9    15    16   ar
    10    16    17   ar
    11    17    18   ar
    12    18    19   ar
    13    19    20    1
    14    19    21   ar
    15     4     5   ar
    16     9    10   ar
    17    10    11   ar
    18    11    12   ar
    19    12    13    1
    20    12     7   ar
    21     5     1   ar
    22    21    15   ar
    23    20    22    1
    24    13    14    1
@<TRIPOS>MOLECULE
*****
 22 24 0 0 0
SMALL
GASTEIGER

@<TRIPOS>ATOM
      1 C         -13.9917   -7.4558   18.5825 C.ar    1  UNL1        0.0295
      2 C         -13.8968   -8.7522   17.8340 C.ar    1  UNL1        0.0070
      3 C         -15.2321   -9.4311   17.9118 C.ar    1  UNL1        0.0070
      4 C         -16.1522   -8.5543   18.7085 C.ar    1  UNL1        0.0296
      5 S         -15.3856   -7.3335   19.1230 S.2     1  UNL1       -0.0869
      6 C         -12.4336   -2.5733   19.4393 C.3     1  UNL1        0.0342
      7 C         -12.1076   -4.0157   19.1879 C.ar    1  UNL1        0.0119
      8 C         -13.2126   -5.0145   19.0109 C.ar    1  UNL1       -0.0008
      9 C         -12.8866   -6.4569   18.7596 C.ar    1  UNL1        0.0059
     10 C         -11.4557   -6.9006   18.6852 C.ar    1  UNL1        0.0036
     11 C         -10.3507   -5.9017   18.8622 C.ar    1  UNL1        0.0363
     12 C         -10.6767   -4.4593   19.1136 C.ar    1  UNL1        0.1296
     13 O          -9.5716   -3.4605   19.2906 O.3     1  UNL1       -0.5058
     14 H          -8.6777   -3.7376   19.2442 H       1  UNL1        0.2922
     15 C         -17.5870   -8.8470   19.0336 C.ar    1  UNL1        0.0090
     16 C         -18.3012   -8.0349   20.0730 C.ar    1  UNL1        0.0007
     17 C         -19.7360   -8.3276   20.3981 C.ar    1  UNL1        0.0031
     18 C         -20.4566   -9.4323   19.6837 C.ar    1  UNL1        0.0366
     19 C         -19.7424  -10.2444   18.6443 C.ar    1  UNL1        0.1337
     20 O         -20.4630  -11.3491   17.9299 O.3     1  UNL1       -0.5055
     21 C         -18.3076   -9.9517   18.3192 C.ar    1  UNL1        0.0371
     22 H         -21.3593  -11.5319   18.1329 H       1  UNL1        0.2922
@<TRIPOS>BOND
     1     6     7    1
     2     7     8   ar
     3     8     9   ar
     4     9     1    1
     5     1     2   ar
     6     2     3   ar
     7     3     4   ar
     8     4    15    1
     9    15    16   ar
    10    16    17   ar
    11    17    18   ar
    12    18    19   ar
    13    19    20    1
    14    19    21   ar
    15     4     5   ar
    16     9    10   ar
    17    10    11   ar
    18    11    12   ar
    19    12    13    1
    20    12     7   ar
    21     5     1   ar
    22    21    15   ar
    23    20    22    1
    24    13    14    1
@<TRIPOS>MOLECULE
*****
 22 24 0 0 0
SMALL
GASTEIGER

@<TRIPOS>ATOM
      1 C         -11.7493   -3.2662   18.2905 C.ar    1  UNL1        0.0295
      2 C         -10.9689   -2.0219   17.9861 C.ar    1  UNL1        0.0070
      3 C         -11.8643   -0.8428   18.2268 C.ar    1  UNL1        0.0070
      4 C         -13.1981   -1.3583   18.6799 C.ar    1  UNL1        0.0296
      5 S         -13.1270   -2.8561   18.7193 S.2     1  UNL1       -0.0869
      6 C         -11.8478   -7.9251   15.9916 C.3     1  UNL1        0.0342
      7 C         -11.2906   -7.0031   17.0353 C.ar    1  UNL1        0.0119
      8 C         -11.7985   -5.5957   17.1411 C.ar    1  UNL1       -0.0008
      9 C         -11.2413   -4.6737   18.1847 C.ar    1  UNL1        0.0059
     10 C         -10.1760   -5.1590   19.1226 C.ar    1  UNL1        0.0036
     11 C          -9.6680   -6.5663   19.0168 C.ar    1  UNL1        0.0363
     12 C         -10.2253   -7.4884   17.9731 C.ar    1  UNL1        0.1296
     13 O          -9.7172   -8.8958   17.8673 O.3     1  UNL1       -0.5058
     14 H          -9.0518   -9.1990   18.4532 H       1  UNL1        0.2922
     15 C         -14.3931   -0.5228   19.0318 C.ar    1  UNL1        0.0090
     16 C         -14.4065    0.9414   18.7063 C.ar    1  UNL1        0.0007
     17 C         -15.6015    1.7770   19.0582 C.ar    1  UNL1        0.0031
     18 C         -16.7830    1.1483   19.7355 C.ar    1  UNL1        0.0366
     19 C         -16.7696   -0.3159   20.0610 C.ar    1  UNL1        0.1337
     20 O         -17.9511   -0.9445   20.7383 O.3     1  UNL1       -0.5055
     21 C         -15.5746   -1.1514   19.7091 C.ar    1  UNL1        0.0371
     22 H         -18.6976   -0.4226   20.9581 H       1  UNL1        0.2922
@<TRIPOS>BOND
     1     6     7    1
     2     7     8   ar
     3     8     9   ar
     4     9     1    1
     5     1     2   ar
     6     2     3   ar
     7     3     4   ar
     8     4    15    1
     9    15    16   ar
    10    16    17   ar
    11    17    18   ar
    12    18    19   ar
    13    19    20    1
    14    19    21   ar
    15     4     5   ar
    16     9    10   ar
    17    10    11   ar
    18    11    12   ar
    19    12    13    1
    20    12     7   ar
    21     5     1   ar
    22    21    15   ar
    23    20    22    1
    24    13    14    1
@<TRIPOS>MOLECULE
*****
 22 24 0 0 0
SMALL
GASTEIGER

@<TRIPOS>ATOM
      1 C         -13.9580   -6.7409   18.7753 C.ar    1  UNL1        0.0295
      2 C         -12.4868   -6.8629   19.0411 C.ar    1  UNL1        0.0070
      3 C         -11.8882   -5.4891   18.9745 C.ar    1  UNL1        0.0070
      4 C         -12.9895   -4.5180   18.6676 C.ar    1  UNL1        0.0296
      5 S         -14.2687   -5.2917   18.5445 S.2     1  UNL1       -0.0869
      6 C         -18.5993   -8.6948   20.0559 C.3     1  UNL1        0.0342
      7 C         -17.2659   -8.8468   19.3859 C.ar    1  UNL1        0.0119
      8 C         -16.2787   -7.7179   19.4156 C.ar    1  UNL1       -0.0008
      9 C         -14.9452   -7.8699   18.7456 C.ar    1  UNL1        0.0059
     10 C         -14.5990   -9.1507   18.0460 C.ar    1  UNL1        0.0036
     11 C         -15.5863  -10.2796   18.0163 C.ar    1  UNL1        0.0363
     12 C         -16.9197  -10.1276   18.6863 C.ar    1  UNL1        0.1296
     13 O         -17.9070  -11.2566   18.6566 O.3     1  UNL1       -0.5058
     14 H         -17.6907  -12.0567   18.2195 H       1  UNL1        0.2922
     15 C         -12.8382   -3.0339   18.5112 C.ar    1  UNL1        0.0090
     16 C         -13.9873   -2.1249   18.8323 C.ar    1  UNL1        0.0007
     17 C         -13.8360   -0.6408   18.6760 C.ar    1  UNL1        0.0031
     18 C         -12.5355   -0.0657   18.1985 C.ar    1  UNL1        0.0366
     19 C         -11.3863   -0.9747   17.8773 C.ar    1  UNL1        0.1337
     20 O         -10.0858   -0.3996   17.3998 O.3     1  UNL1       -0.5055
     21 C         -11.5377   -2.4588   18.0337 C.ar    1  UNL1        0.0371
     22 H          -9.9913    0.5275   17.3021 H       1  UNL1        0.2922
@<TRIPOS>BOND
     1     6     7    1
     2     7     8   ar
     3     8     9   ar
     4     9     1    1
     5     1     2   ar
     6     2     3   ar
     7     3     4   ar
     8     4    15    1
     9    15    16   ar
    10    16    17   ar
    11    17    18   ar
    12    18    19   ar
    13    19    20    1
    14    19    21   ar
    15     4     5   ar
    16     9    10   ar
    17    10    11   ar
    18    11    12   ar
    19    12    13    1
    20    12     7   ar
    21     5     1   ar
    22    21    15   ar
    23    20    22    1
    24    13    14    1
@<TRIPOS>MOLECULE
*****
 22 24 0 0 0
SMALL
GASTEIGER

@<TRIPOS>ATOM
      1 C          -7.0410  -19.4802   21.2377 C.ar    1  UNL1        0.0295
      2 C          -6.4318  -20.7126   20.6376 C.ar    1  UNL1        0.0070
      3 C          -4.9656  -20.4593   20.4475 C.ar    1  UNL1        0.0070
      4 C          -4.6687  -19.0704   20.9301 C.ar    1  UNL1        0.0296
      5 S          -5.9514  -18.4654   21.4185 S.2     1  UNL1       -0.0869
      6 C         -10.7771  -19.1043   24.8295 C.3     1  UNL1        0.0342
      7 C         -10.3542  -19.1072   23.3903 C.ar    1  UNL1        0.0119
      8 C          -8.9091  -19.2923   23.0335 C.ar    1  UNL1       -0.0008
      9 C          -8.4863  -19.2952   21.5944 C.ar    1  UNL1        0.0059
     10 C          -9.5086  -19.1131   20.5120 C.ar    1  UNL1        0.0036
     11 C         -10.9537  -18.9281   20.8687 C.ar    1  UNL1        0.0363
     12 C         -11.3765  -18.9252   22.3079 C.ar    1  UNL1        0.1296
     13 O         -12.8218  -18.7401   22.6646 O.3     1  UNL1       -0.5058
     14 H         -13.4604  -18.6264   21.9884 H       1  UNL1        0.2922
     15 C          -3.3250  -18.4038   20.9252 C.ar    1  UNL1        0.0090
     16 C          -3.1451  -17.0741   21.5957 C.ar    1  UNL1        0.0007
     17 C          -1.8014  -16.4074   21.5908 C.ar    1  UNL1        0.0031
     18 C          -0.6376  -17.0704   20.9155 C.ar    1  UNL1        0.0366
     19 C          -0.8175  -18.4002   20.2451 C.ar    1  UNL1        0.1337
     20 O           0.3463  -19.0632   19.5697 O.3     1  UNL1       -0.5055
     21 C          -2.1612  -19.0668   20.2499 C.ar    1  UNL1        0.0371
     22 H           1.1856  -18.6467   19.5667 H       1  UNL1        0.2922
@<TRIPOS>BOND
     1     6     7    1
     2     7     8   ar
     3     8     9   ar
     4     9     1    1
     5     1     2   ar
     6     2     3   ar
     7     3     4   ar
     8     4    15    1
     9    15    16   ar
    10    16    17   ar
    11    17    18   ar
    12    18    19   ar
    13    19    20    1
    14    19    21   ar
    15     4     5   ar
    16     9    10   ar
    17    10    11   ar
    18    11    12   ar
    19    12    13    1
    20    12     7   ar
    21     5     1   ar
    22    21    15   ar
    23    20    22    1
    24    13    14    1
@<TRIPOS>MOLECULE
*****
 22 24 0 0 0
SMALL
GASTEIGER

@<TRIPOS>ATOM
      1 C         -15.4565   -6.1846   19.3602 C.ar    1  UNL1        0.0295
      2 C         -15.4401   -4.8718   20.0855 C.ar    1  UNL1        0.0070
      3 C         -14.1346   -4.1950   19.7896 C.ar    1  UNL1        0.0070
      4 C         -13.3441   -5.0895   18.8814 C.ar    1  UNL1        0.0296
      5 S         -14.1611   -6.3192   18.6160 S.2     1  UNL1       -0.0869
      6 C         -17.1304  -11.0652   18.7458 C.3     1  UNL1        0.0342
      7 C         -17.4093   -9.6273   19.0690 C.ar    1  UNL1        0.0119
      8 C         -16.2935   -8.6249   19.0530 C.ar    1  UNL1       -0.0008
      9 C         -16.5724   -7.1869   19.3762 C.ar    1  UNL1        0.0059
     10 C         -17.9670   -6.7513   19.7154 C.ar    1  UNL1        0.0036
     11 C         -19.0828   -7.7536   19.7314 C.ar    1  UNL1        0.0363
     12 C         -18.8040   -9.1916   19.4082 C.ar    1  UNL1        0.1296
     13 O         -19.9198  -10.1939   19.4242 O.3     1  UNL1       -0.5058
     14 H         -20.7911   -9.9218   19.6361 H       1  UNL1        0.2922
     15 C         -11.9767   -4.8045   18.3345 C.ar    1  UNL1        0.0090
     16 C         -10.9415   -5.8895   18.3002 C.ar    1  UNL1        0.0007
     17 C          -9.5742   -5.6044   17.7534 C.ar    1  UNL1        0.0031
     18 C          -9.2420   -4.2343   17.2409 C.ar    1  UNL1        0.0366
     19 C         -10.2772   -3.1494   17.2752 C.ar    1  UNL1        0.1337
     20 O          -9.9450   -1.7793   16.7627 O.3     1  UNL1       -0.5055
     21 C         -11.6445   -3.4344   17.8220 C.ar    1  UNL1        0.0371
     22 H          -9.0908   -1.6012   16.4211 H       1  UNL1        0.2922
@<TRIPOS>BOND
     1     6     7    1
     2     7     8   ar
     3     8     9   ar
     4     9     1    1
     5     1     2   ar
     6     2     3   ar
     7     3     4   ar
     8     4    15    1
     9    15    16   ar
    10    16    17   ar
    11    17    18   ar
    12    18    19   ar
    13    19    20    1
    14    19    21   ar
    15     4     5   ar
    16     9    10   ar
    17    10    11   ar
    18    11    12   ar
    19    12    13    1
    20    12     7   ar
    21     5     1   ar
    22    21    15   ar
    23    20    22    1
    24    13    14    1
