@<TRIPOS>MOLECULE
*****
 30 34 0 0 0
SMALL
GASTEIGER

@<TRIPOS>ATOM
      1 C          -8.4014  -15.9180   23.6160 C.3     1  UNL1        0.0718
      2 C          -7.6499  -16.7978   22.6613 C.3     1  UNL1        0.0368
      3 C          -6.1806  -17.0305   22.8538 C.3     1  UNL1        0.0741
      4 N          -5.4628  -16.3834   24.0010 N.3     1  UNL1       -0.2688
      5 C          -6.2142  -15.5036   24.9556 C.3     1  UNL1        0.0741
      6 C          -7.6835  -15.2709   24.7631 C.3     1  UNL1        0.0368
      7 N          -9.8706  -15.6853   23.4234 N.pl3   1  UNL1       -0.3337
      8 H         -10.3586  -15.0874   24.0347 H       1  UNL1        0.1468
      9 O         -12.4824  -15.4124   18.9397 O.2     1  UNL1       -0.2444
     10 C         -11.9024  -16.2271   20.0577 C.ar    1  UNL1        0.3472
     11 C         -11.1765  -15.5489   21.1816 C.ar    1  UNL1        0.0966
     12 C         -10.5964  -16.3635   22.2995 C.ar    1  UNL1        0.0541
     13 C         -10.7422  -17.8564   22.2936 C.ar    1  UNL1        0.0488
     14 C         -10.1621  -18.6711   23.4116 C.ar    1  UNL1        0.0157
     15 C         -10.3079  -20.1639   23.4056 C.ar    1  UNL1        0.0579
     16 CL         -9.7278  -20.9787   24.5236 Cl      1  UNL1       -0.0822
     17 C         -11.0337  -20.8422   22.2817 C.ar    1  UNL1        0.0145
     18 C         -11.6138  -20.0275   21.1637 C.ar    1  UNL1        0.0385
     19 C         -11.4680  -18.5347   21.1697 C.ar    1  UNL1        0.1499
     20 O         -12.0481  -17.7200   20.0517 O.2     1  UNL1       -0.4210
     21 C          -3.9935  -16.6161   24.1935 C.3     1  UNL1        0.0992
     22 C          -3.1939  -17.2912   23.1188 C.ar    1  UNL1       -0.0029
     23 C          -3.2770  -18.7787   22.9445 C.ar    1  UNL1        0.0004
     24 C          -2.4774  -19.4537   21.8698 C.ar    1  UNL1        0.0399
     25 C          -1.5948  -18.6413   20.9694 C.ar    1  UNL1        0.1764
     26 C          -1.5116  -17.1537   21.1437 C.ar    1  UNL1        0.1762
     27 C          -2.3112  -16.4787   22.2184 C.ar    1  UNL1        0.0373
     28 O          -0.5622  -16.6186   20.1131 O.3     1  UNL1       -0.4346
     29 C          -0.0585  -17.7754   19.3018 C.3     1  UNL1        0.4294
     30 O          -0.6967  -19.0254   19.8311 O.3     1  UNL1       -0.4346
@<TRIPOS>BOND
     1     9    10    2
     2    10    11   ar
     3    11    12   ar
     4    12     7    1
     5     7     1    1
     6     1     2    1
     7     2     3    1
     8     3     4    1
     9     4    21    1
    10    21    22    1
    11    22    23   ar
    12    23    24   ar
    13    24    25   ar
    14    25    26   ar
    15    26    27   ar
    16    26    28    1
    17    28    29    1
    18    29    30    1
    19     4     5    1
    20     5     6    1
    21    12    13   ar
    22    13    14   ar
    23    14    15   ar
    24    15    16    1
    25    15    17   ar
    26    17    18   ar
    27    18    19   ar
    28    19    20   ar
    29    20    10   ar
    30     6     1    1
    31    19    13   ar
    32    27    22   ar
    33    30    25    1
    34     7     8    1
@<TRIPOS>MOLECULE
*****
 30 34 0 0 0
SMALL
GASTEIGER

@<TRIPOS>ATOM
      1 C           4.9658   -3.1497   22.6326 C.3     1  UNL1        0.0718
      2 C           6.2170   -3.9762   22.6697 C.3     1  UNL1        0.0368
      3 C           7.1481   -3.8753   23.8414 C.3     1  UNL1        0.0741
      4 N           6.8280   -2.9477   24.9760 N.3     1  UNL1       -0.2688
      5 C           5.5769   -2.1212   24.9389 C.3     1  UNL1        0.0741
      6 C           4.6457   -2.2221   23.7672 C.3     1  UNL1        0.0368
      7 N           4.0347   -3.2506   21.4609 N.pl3   1  UNL1       -0.3337
      8 H           3.2239   -3.8057   21.5229 H       1  UNL1        0.1468
      9 O           7.1483   -2.3709   17.3950 O.2     1  UNL1       -0.2444
     10 C           5.8957   -2.0661   18.1619 C.ar    1  UNL1        0.3472
     11 C           5.5915   -2.8108   19.4280 C.ar    1  UNL1        0.0966
     12 C           4.3389   -2.5060   20.1948 C.ar    1  UNL1        0.0541
     13 C           3.3904   -1.4566   19.6956 C.ar    1  UNL1        0.0488
     14 C           2.1378   -1.1518   20.4625 C.ar    1  UNL1        0.0157
     15 C           1.1894   -0.1024   19.9633 C.ar    1  UNL1        0.0579
     16 CL         -0.0632    0.2024   20.7301 Cl      1  UNL1       -0.0822
     17 C           1.4936    0.6422   18.6972 C.ar    1  UNL1        0.0145
     18 C           2.7462    0.3375   17.9303 C.ar    1  UNL1        0.0385
     19 C           3.6946   -0.7119   18.4295 C.ar    1  UNL1        0.1499
     20 O           4.9473   -1.0167   17.6627 O.2     1  UNL1       -0.4210
     21 C           7.7591   -2.8467   26.1476 C.3     1  UNL1        0.0992
     22 C           7.5309   -3.6966   27.3625 C.ar    1  UNL1       -0.0029
     23 C           7.6038   -5.1911   27.2568 C.ar    1  UNL1        0.0004
     24 C           7.3756   -6.0409   28.4715 C.ar    1  UNL1        0.0399
     25 C           7.0744   -5.3962   29.7920 C.ar    1  UNL1        0.1764
     26 C           7.0014   -3.9017   29.8976 C.ar    1  UNL1        0.1762
     27 C           7.2296   -3.0519   28.6829 C.ar    1  UNL1        0.0373
     28 O           6.6881   -3.5526   31.3224 O.3     1  UNL1       -0.4346
     29 C           6.5674   -4.8313   32.0973 C.3     1  UNL1        0.4294
     30 O           6.8062   -5.9707   31.1514 O.3     1  UNL1       -0.4346
@<TRIPOS>BOND
     1     9    10    2
     2    10    11   ar
     3    11    12   ar
     4    12     7    1
     5     7     1    1
     6     1     2    1
     7     2     3    1
     8     3     4    1
     9     4    21    1
    10    21    22    1
    11    22    23   ar
    12    23    24   ar
    13    24    25   ar
    14    25    26   ar
    15    26    27   ar
    16    26    28    1
    17    28    29    1
    18    29    30    1
    19     4     5    1
    20     5     6    1
    21    12    13   ar
    22    13    14   ar
    23    14    15   ar
    24    15    16    1
    25    15    17   ar
    26    17    18   ar
    27    18    19   ar
    28    19    20   ar
    29    20    10   ar
    30     6     1    1
    31    19    13   ar
    32    27    22   ar
    33    30    25    1
    34     7     8    1
@<TRIPOS>MOLECULE
*****
 30 34 0 0 0
SMALL
GASTEIGER

@<TRIPOS>ATOM
      1 C           4.3575   -0.4860   25.9347 C.3     1  UNL1        0.0718
      2 C           5.4940   -1.4609   26.0251 C.3     1  UNL1        0.0368
      3 C           5.6971   -2.4785   24.9420 C.3     1  UNL1        0.0741
      4 N           4.7638   -2.5214   23.7686 N.3     1  UNL1       -0.2688
      5 C           3.6274   -1.5466   23.6781 C.3     1  UNL1        0.0741
      6 C           3.4242   -0.5288   24.7612 C.3     1  UNL1        0.0368
      7 N           4.1544    0.5317   27.0177 N.pl3   1  UNL1       -0.3337
      8 H           4.6248    1.3956   26.9759 H       1  UNL1        0.1468
      9 O           3.3928   -1.3329   31.8076 O.2     1  UNL1       -0.2444
     10 C           2.8539   -0.6991   30.5594 C.ar    1  UNL1        0.3472
     11 C           3.7736   -0.4006   29.4127 C.ar    1  UNL1        0.0966
     12 C           3.2348    0.2332   28.1645 C.ar    1  UNL1        0.0541
     13 C           1.7762    0.5685   28.0630 C.ar    1  UNL1        0.0488
     14 C           1.2374    1.2023   26.8149 C.ar    1  UNL1        0.0157
     15 C          -0.2211    1.5376   26.7135 C.ar    1  UNL1        0.0579
     16 CL         -0.7600    2.1714   25.4652 Cl      1  UNL1       -0.0822
     17 C          -1.1408    1.2391   27.8602 C.ar    1  UNL1        0.0145
     18 C          -0.6020    0.6053   29.1084 C.ar    1  UNL1        0.0385
     19 C           0.8565    0.2700   29.2098 C.ar    1  UNL1        0.1499
     20 O           1.3954   -0.3638   30.4580 O.2     1  UNL1       -0.4210
     21 C           4.9669   -3.5391   22.6855 C.3     1  UNL1        0.0992
     22 C           4.8754   -3.1300   21.2452 C.ar    1  UNL1       -0.0029
     23 C           4.2133   -4.0352   20.2491 C.ar    1  UNL1        0.0004
     24 C           4.1218   -3.6262   18.8089 C.ar    1  UNL1        0.0399
     25 C           4.6924   -2.3120   18.3648 C.ar    1  UNL1        0.1764
     26 C           5.3545   -1.4068   19.3609 C.ar    1  UNL1        0.1762
     27 C           5.4460   -1.8158   20.8011 C.ar    1  UNL1        0.0373
     28 O           5.8222   -0.1809   18.6340 O.3     1  UNL1       -0.4346
     29 C           5.4491   -0.3284   17.1886 C.3     1  UNL1        0.4294
     30 O           4.7509   -1.6455   17.0222 O.3     1  UNL1       -0.4346
@<TRIPOS>BOND
     1     9    10    2
     2    10    11   ar
     3    11    12   ar
     4    12     7    1
     5     7     1    1
     6     1     2    1
     7     2     3    1
     8     3     4    1
     9     4    21    1
    10    21    22    1
    11    22    23   ar
    12    23    24   ar
    13    24    25   ar
    14    25    26   ar
    15    26    27   ar
    16    26    28    1
    17    28    29    1
    18    29    30    1
    19     4     5    1
    20     5     6    1
    21    12    13   ar
    22    13    14   ar
    23    14    15   ar
    24    15    16    1
    25    15    17   ar
    26    17    18   ar
    27    18    19   ar
    28    19    20   ar
    29    20    10   ar
    30     6     1    1
    31    19    13   ar
    32    27    22   ar
    33    30    25    1
    34     7     8    1
@<TRIPOS>MOLECULE
*****
 30 34 0 0 0
SMALL
GASTEIGER

@<TRIPOS>ATOM
      1 C           1.3709    0.5294   20.9401 C.3     1  UNL1        0.0718
      2 C           0.2944    1.5678   21.0539 C.3     1  UNL1        0.0368
      3 C           0.0775    2.2839   22.3539 C.3     1  UNL1        0.0741
      4 N           0.9370    1.9616   23.5402 N.3     1  UNL1       -0.2688
      5 C           2.0135    0.9233   23.4265 C.3     1  UNL1        0.0741
      6 C           2.2304    0.2071   22.1264 C.3     1  UNL1        0.0368
      7 N           1.5878   -0.1867   19.6401 N.pl3   1  UNL1       -0.3337
      8 H           0.8373   -0.6489   19.2015 H       1  UNL1        0.1468
      9 O           5.5050    2.3394   17.3434 O.2     1  UNL1       -0.2444
     10 C           4.9068    1.0644   17.8599 C.ar    1  UNL1        0.3472
     11 C           3.5464    1.0763   18.4918 C.ar    1  UNL1        0.0966
     12 C           2.9482   -0.1986   19.0083 C.ar    1  UNL1        0.0541
     13 C           3.7104   -1.4854   18.8929 C.ar    1  UNL1        0.0488
     14 C           3.1122   -2.7603   19.4094 C.ar    1  UNL1        0.0157
     15 C           3.8743   -4.0470   19.2940 C.ar    1  UNL1        0.0579
     16 CL          3.2761   -5.3220   19.8105 Cl      1  UNL1       -0.0822
     17 C           5.2347   -4.0589   18.6622 C.ar    1  UNL1        0.0145
     18 C           5.8329   -2.7840   18.1457 C.ar    1  UNL1        0.0385
     19 C           5.0707   -1.4973   18.2611 C.ar    1  UNL1        0.1499
     20 O           5.6690   -0.2223   17.7446 O.2     1  UNL1       -0.4210
     21 C           0.7201    2.6777   24.8402 C.3     1  UNL1        0.0992
     22 C           0.6866    1.9052   26.1256 C.ar    1  UNL1       -0.0029
     23 C          -0.6244    1.4418   26.6882 C.ar    1  UNL1        0.0004
     24 C          -0.6579    0.6693   27.9735 C.ar    1  UNL1        0.0399
     25 C           0.6196    0.3601   28.6962 C.ar    1  UNL1        0.1764
     26 C           1.9306    0.8235   28.1336 C.ar    1  UNL1        0.1762
     27 C           1.9642    1.5960   26.8483 C.ar    1  UNL1        0.0373
     28 O           3.0189    0.3727   29.0623 O.3     1  UNL1       -0.4346
     29 C           2.3804   -0.3693   30.1990 C.3     1  UNL1        0.4294
     30 O           0.8976   -0.3770   29.9727 O.3     1  UNL1       -0.4346
@<TRIPOS>BOND
     1     9    10    2
     2    10    11   ar
     3    11    12   ar
     4    12     7    1
     5     7     1    1
     6     1     2    1
     7     2     3    1
     8     3     4    1
     9     4    21    1
    10    21    22    1
    11    22    23   ar
    12    23    24   ar
    13    24    25   ar
    14    25    26   ar
    15    26    27   ar
    16    26    28    1
    17    28    29    1
    18    29    30    1
    19     4     5    1
    20     5     6    1
    21    12    13   ar
    22    13    14   ar
    23    14    15   ar
    24    15    16    1
    25    15    17   ar
    26    17    18   ar
    27    18    19   ar
    28    19    20   ar
    29    20    10   ar
    30     6     1    1
    31    19    13   ar
    32    27    22   ar
    33    30    25    1
    34     7     8    1
@<TRIPOS>MOLECULE
*****
 30 34 0 0 0
SMALL
GASTEIGER

@<TRIPOS>ATOM
      1 C           2.1107    1.9735   20.5747 C.3     1  UNL1        0.0718
      2 C           1.9416    3.4443   20.3332 C.3     1  UNL1        0.0368
      3 C           0.5703    4.0523   20.3377 C.3     1  UNL1        0.0741
      4 N          -0.6318    3.1895   20.5838 N.3     1  UNL1       -0.2688
      5 C          -0.4627    1.7188   20.8252 C.3     1  UNL1        0.0741
      6 C           0.9086    1.1108   20.8207 C.3     1  UNL1        0.0368
      7 N           3.4820    1.3656   20.5701 N.pl3   1  UNL1       -0.3337
      8 H           4.2166    1.8045   21.0569 H       1  UNL1        0.1468
      9 O           3.8157   -1.2332   16.0829 O.2     1  UNL1       -0.2444
     10 C           3.9008   -1.2104   17.5803 C.ar    1  UNL1        0.3472
     11 C           3.6489    0.0662   18.3265 C.ar    1  UNL1        0.0966
     12 C           3.7339    0.0890   19.8239 C.ar    1  UNL1        0.0541
     13 C           4.0709   -1.1649   20.5752 C.ar    1  UNL1        0.0488
     14 C           4.1560   -1.1421   22.0726 C.ar    1  UNL1        0.0157
     15 C           4.4930   -2.3959   22.8238 C.ar    1  UNL1        0.0579
     16 CL          4.5780   -2.3731   24.3212 Cl      1  UNL1       -0.0822
     17 C           4.7449   -3.6725   22.0776 C.ar    1  UNL1        0.0145
     18 C           4.6599   -3.6953   20.5802 C.ar    1  UNL1        0.0385
     19 C           4.3229   -2.4415   19.8290 C.ar    1  UNL1        0.1499
     20 O           4.2378   -2.4642   18.3315 O.2     1  UNL1       -0.4210
     21 C          -2.0030    3.7975   20.5883 C.3     1  UNL1        0.0992
     22 C          -2.8589    3.7084   21.8171 C.ar    1  UNL1       -0.0029
     23 C          -4.3010    3.3130   21.6995 C.ar    1  UNL1        0.0004
     24 C          -5.1568    3.2239   22.9281 C.ar    1  UNL1        0.0399
     25 C          -4.5705    3.5304   24.2743 C.ar    1  UNL1        0.1764
     26 C          -3.1284    3.9258   24.3919 C.ar    1  UNL1        0.1762
     27 C          -2.2725    4.0149   23.1633 C.ar    1  UNL1        0.0373
     28 O          -2.8307    4.1674   25.8421 O.3     1  UNL1       -0.4346
     29 C          -4.0889    3.9212   26.6208 C.3     1  UNL1        0.4294
     30 O          -5.1641    3.5275   25.6519 O.3     1  UNL1       -0.4346
@<TRIPOS>BOND
     1     9    10    2
     2    10    11   ar
     3    11    12   ar
     4    12     7    1
     5     7     1    1
     6     1     2    1
     7     2     3    1
     8     3     4    1
     9     4    21    1
    10    21    22    1
    11    22    23   ar
    12    23    24   ar
    13    24    25   ar
    14    25    26   ar
    15    26    27   ar
    16    26    28    1
    17    28    29    1
    18    29    30    1
    19     4     5    1
    20     5     6    1
    21    12    13   ar
    22    13    14   ar
    23    14    15   ar
    24    15    16    1
    25    15    17   ar
    26    17    18   ar
    27    18    19   ar
    28    19    20   ar
    29    20    10   ar
    30     6     1    1
    31    19    13   ar
    32    27    22   ar
    33    30    25    1
    34     7     8    1
@<TRIPOS>MOLECULE
*****
 30 34 0 0 0
SMALL
GASTEIGER

@<TRIPOS>ATOM
      1 C           8.5958   -8.1265   26.8526 C.3     1  UNL1        0.0718
      2 C           7.1391   -8.4586   26.7189 C.3     1  UNL1        0.0368
      3 C           6.6210   -9.7747   27.2183 C.3     1  UNL1        0.0741
      4 N           7.5596  -10.7588   27.8513 N.3     1  UNL1       -0.2688
      5 C           9.0162  -10.4268   27.9851 C.3     1  UNL1        0.0741
      6 C           9.5344   -9.1106   27.4857 C.3     1  UNL1        0.0368
      7 N           9.1139   -6.8104   26.3533 N.pl3   1  UNL1       -0.3337
      8 H          10.0840   -6.6498   26.3045 H       1  UNL1        0.1468
      9 O           6.4150   -4.4104   22.6175 O.2     1  UNL1       -0.2444
     10 C           6.8046   -4.5390   24.0604 C.ar    1  UNL1        0.3472
     11 C           7.7645   -5.6104   24.4854 C.ar    1  UNL1        0.0966
     12 C           8.1540   -5.7390   25.9282 C.ar    1  UNL1        0.0541
     13 C           7.5837   -4.7962   26.9460 C.ar    1  UNL1        0.0488
     14 C           7.9732   -4.9248   28.3888 C.ar    1  UNL1        0.0157
     15 C           7.4029   -3.9820   29.4065 C.ar    1  UNL1        0.0579
     16 CL          7.7924   -4.1106   30.8494 Cl      1  UNL1       -0.0822
     17 C           6.4430   -2.9106   28.9815 C.ar    1  UNL1        0.0145
     18 C           6.0534   -2.7820   27.5387 C.ar    1  UNL1        0.0385
     19 C           6.6238   -3.7248   26.5210 C.ar    1  UNL1        0.1499
     20 O           6.2342   -3.5962   25.0781 O.2     1  UNL1       -0.4210
     21 C           7.0415  -12.0749   28.3507 C.3     1  UNL1        0.0992
     22 C           5.6280  -12.4839   28.0592 C.ar    1  UNL1       -0.0029
     23 C           5.2846  -13.1068   26.7386 C.ar    1  UNL1        0.0004
     24 C           3.8712  -13.5157   26.4471 C.ar    1  UNL1        0.0399
     25 C           2.8012  -13.3018   27.4762 C.ar    1  UNL1        0.1764
     26 C           3.1445  -12.6789   28.7969 C.ar    1  UNL1        0.1762
     27 C           4.5579  -12.2699   29.0884 C.ar    1  UNL1        0.0373
     28 O           1.8869  -12.5935   29.6100 O.3     1  UNL1       -0.4346
     29 C           0.7664  -13.1636   28.7919 C.3     1  UNL1        0.4294
     30 O           1.3314  -13.6014   27.4732 O.3     1  UNL1       -0.4346
@<TRIPOS>BOND
     1     9    10    2
     2    10    11   ar
     3    11    12   ar
     4    12     7    1
     5     7     1    1
     6     1     2    1
     7     2     3    1
     8     3     4    1
     9     4    21    1
    10    21    22    1
    11    22    23   ar
    12    23    24   ar
    13    24    25   ar
    14    25    26   ar
    15    26    27   ar
    16    26    28    1
    17    28    29    1
    18    29    30    1
    19     4     5    1
    20     5     6    1
    21    12    13   ar
    22    13    14   ar
    23    14    15   ar
    24    15    16    1
    25    15    17   ar
    26    17    18   ar
    27    18    19   ar
    28    19    20   ar
    29    20    10   ar
    30     6     1    1
    31    19    13   ar
    32    27    22   ar
    33    30    25    1
    34     7     8    1
@<TRIPOS>MOLECULE
*****
 30 34 0 0 0
SMALL
GASTEIGER

@<TRIPOS>ATOM
      1 C           6.3200   -2.3843   23.0590 C.3     1  UNL1        0.0718
      2 C           4.9164   -1.9908   23.4128 C.3     1  UNL1        0.0368
      3 C           3.8689   -1.9058   22.3426 C.3     1  UNL1        0.0741
      4 N           4.2249   -2.2143   20.9185 N.3     1  UNL1       -0.2688
      5 C           5.6284   -2.6078   20.5646 C.3     1  UNL1        0.0741
      6 C           6.6760   -2.6928   21.6349 C.3     1  UNL1        0.0368
      7 N           7.3676   -2.4693   24.1292 N.pl3   1  UNL1       -0.3337
      8 H           8.2219   -1.9921   24.0208 H       1  UNL1        0.1468
      9 O           5.7595   -2.7760   29.0607 O.2     1  UNL1       -0.2444
     10 C           6.3095   -3.4346   27.8303 C.ar    1  UNL1        0.3472
     11 C           6.5635   -2.6227   26.5949 C.ar    1  UNL1        0.0966
     12 C           7.1135   -3.2812   25.3646 C.ar    1  UNL1        0.0541
     13 C           7.4094   -4.7518   25.3696 C.ar    1  UNL1        0.0488
     14 C           7.9594   -5.4103   24.1392 C.ar    1  UNL1        0.0157
     15 C           8.2552   -6.8808   24.1442 C.ar    1  UNL1        0.0579
     16 CL          8.8052   -7.5394   22.9138 Cl      1  UNL1       -0.0822
     17 C           8.0012   -7.6928   25.3796 C.ar    1  UNL1        0.0145
     18 C           7.4512   -7.0342   26.6100 C.ar    1  UNL1        0.0385
     19 C           7.1553   -5.5637   26.6050 C.ar    1  UNL1        0.1499
     20 O           6.6054   -4.9051   27.8354 O.2     1  UNL1       -0.4210
     21 C           3.1773   -2.1293   19.8483 C.3     1  UNL1        0.0992
     22 C           2.4721   -0.8307   19.5905 C.ar    1  UNL1       -0.0029
     23 C           3.0039    0.1196   18.5589 C.ar    1  UNL1        0.0004
     24 C           2.2987    1.4181   18.3010 C.ar    1  UNL1        0.0399
     25 C           1.0618    1.7664   19.0748 C.ar    1  UNL1        0.1764
     26 C           0.5301    0.8161   20.1064 C.ar    1  UNL1        0.1762
     27 C           1.2352   -0.4825   20.3642 C.ar    1  UNL1        0.0373
     28 O          -0.7006    1.4267   20.7084 O.3     1  UNL1       -0.4346
     29 C          -0.9295    2.7544   20.0490 C.3     1  UNL1        0.4294
     30 O           0.1598    2.9643   19.0393 O.3     1  UNL1       -0.4346
@<TRIPOS>BOND
     1     9    10    2
     2    10    11   ar
     3    11    12   ar
     4    12     7    1
     5     7     1    1
     6     1     2    1
     7     2     3    1
     8     3     4    1
     9     4    21    1
    10    21    22    1
    11    22    23   ar
    12    23    24   ar
    13    24    25   ar
    14    25    26   ar
    15    26    27   ar
    16    26    28    1
    17    28    29    1
    18    29    30    1
    19     4     5    1
    20     5     6    1
    21    12    13   ar
    22    13    14   ar
    23    14    15   ar
    24    15    16    1
    25    15    17   ar
    26    17    18   ar
    27    18    19   ar
    28    19    20   ar
    29    20    10   ar
    30     6     1    1
    31    19    13   ar
    32    27    22   ar
    33    30    25    1
    34     7     8    1
@<TRIPOS>MOLECULE
*****
 30 34 0 0 0
SMALL
GASTEIGER

@<TRIPOS>ATOM
      1 C           1.5134    1.7632   24.8894 C.3     1  UNL1        0.0718
      2 C           2.3416    0.6722   24.2778 C.3     1  UNL1        0.0368
      3 C           2.0661    0.2182   22.8751 C.3     1  UNL1        0.0741
      4 N           0.9624    0.8550   22.0837 N.3     1  UNL1       -0.2688
      5 C           0.1341    1.9459   22.6952 C.3     1  UNL1        0.0741
      6 C           0.4096    2.4000   24.0981 C.3     1  UNL1        0.0368
      7 N           1.7889    2.2173   26.2922 N.pl3   1  UNL1       -0.3337
      8 H           2.2571    3.0686   26.4510 H       1  UNL1        0.1468
      9 O          -2.0091    0.0833   29.1245 O.2     1  UNL1       -0.2444
     10 C          -0.5480    0.3073   28.8692 C.ar    1  UNL1        0.3472
     11 C          -0.1101    1.1503   27.7084 C.ar    1  UNL1        0.0966
     12 C           1.3510    1.3742   27.4530 C.ar    1  UNL1        0.0541
     13 C           2.3741    0.7552   28.3586 C.ar    1  UNL1        0.0488
     14 C           3.8352    0.9791   28.1032 C.ar    1  UNL1        0.0157
     15 C           4.8582    0.3601   29.0087 C.ar    1  UNL1        0.0579
     16 CL          6.3194    0.5840   28.7534 Cl      1  UNL1       -0.0822
     17 C           4.4203   -0.4829   30.1696 C.ar    1  UNL1        0.0145
     18 C           2.9593   -0.7069   30.4249 C.ar    1  UNL1        0.0385
     19 C           1.9362   -0.0878   29.5194 C.ar    1  UNL1        0.1499
     20 O           0.4751   -0.3118   29.7747 O.2     1  UNL1       -0.4210
     21 C           0.6868    0.4010   20.6809 C.3     1  UNL1        0.0992
     22 C           1.8058   -0.1174   19.8270 C.ar    1  UNL1       -0.0029
     23 C           2.2999    0.6926   18.6652 C.ar    1  UNL1        0.0004
     24 C           3.4189    0.1743   17.8113 C.ar    1  UNL1        0.0399
     25 C           4.0437   -1.1542   18.1191 C.ar    1  UNL1        0.1764
     26 C           3.5496   -1.9643   19.2808 C.ar    1  UNL1        0.1762
     27 C           2.4307   -1.4459   20.1348 C.ar    1  UNL1        0.0373
     28 O           4.3544   -3.2287   19.3399 O.3     1  UNL1       -0.4346
     29 C           5.3459   -3.2001   18.2147 C.3     1  UNL1        0.4294
     30 O           5.1539   -1.9180   17.4602 O.3     1  UNL1       -0.4346
@<TRIPOS>BOND
     1     9    10    2
     2    10    11   ar
     3    11    12   ar
     4    12     7    1
     5     7     1    1
     6     1     2    1
     7     2     3    1
     8     3     4    1
     9     4    21    1
    10    21    22    1
    11    22    23   ar
    12    23    24   ar
    13    24    25   ar
    14    25    26   ar
    15    26    27   ar
    16    26    28    1
    17    28    29    1
    18    29    30    1
    19     4     5    1
    20     5     6    1
    21    12    13   ar
    22    13    14   ar
    23    14    15   ar
    24    15    16    1
    25    15    17   ar
    26    17    18   ar
    27    18    19   ar
    28    19    20   ar
    29    20    10   ar
    30     6     1    1
    31    19    13   ar
    32    27    22   ar
    33    30    25    1
    34     7     8    1
@<TRIPOS>MOLECULE
*****
 30 34 0 0 0
SMALL
GASTEIGER

@<TRIPOS>ATOM
      1 C           0.2538    2.8640   20.2235 C.3     1  UNL1        0.0718
      2 C           0.0435    1.4182   20.5636 C.3     1  UNL1        0.0368
      3 C           0.9515    0.3724   19.9876 C.3     1  UNL1        0.0741
      4 N           2.0699    0.7723   19.0715 N.3     1  UNL1       -0.2688
      5 C           2.2803    2.2180   18.7314 C.3     1  UNL1        0.0741
      6 C           1.3723    3.2639   19.3074 C.3     1  UNL1        0.0368
      7 N          -0.6542    3.9098   20.7995 N.pl3   1  UNL1       -0.3337
      8 H          -0.2739    4.6911   21.2622 H       1  UNL1        0.1468
      9 O          -4.9042    3.6002   17.8260 O.2     1  UNL1       -0.2444
     10 C          -4.2666    3.6103   19.1838 C.ar    1  UNL1        0.3472
     11 C          -2.7792    3.7550   19.3128 C.ar    1  UNL1        0.0966
     12 C          -2.1416    3.7651   20.6705 C.ar    1  UNL1        0.0541
     13 C          -2.9914    3.6305   21.8992 C.ar    1  UNL1        0.0488
     14 C          -2.3538    3.6407   23.2569 C.ar    1  UNL1        0.0157
     15 C          -3.2036    3.5061   24.4856 C.ar    1  UNL1        0.0579
     16 CL         -2.5660    3.5162   25.8433 Cl      1  UNL1       -0.0822
     17 C          -4.6911    3.3615   24.3566 C.ar    1  UNL1        0.0145
     18 C          -5.3287    3.3513   22.9989 C.ar    1  UNL1        0.0385
     19 C          -4.4788    3.4859   21.7702 C.ar    1  UNL1        0.1499
     20 O          -5.1164    3.4758   20.4125 O.2     1  UNL1       -0.4210
     21 C           2.9779   -0.2734   18.4955 C.3     1  UNL1        0.0992
     22 C           3.5619   -1.3315   19.3840 C.ar    1  UNL1       -0.0029
     23 C           3.3619   -2.7813   19.0552 C.ar    1  UNL1        0.0004
     24 C           3.9458   -3.8394   19.9436 C.ar    1  UNL1        0.0399
     25 C           4.7298   -3.4477   21.1609 C.ar    1  UNL1        0.1764
     26 C           4.9299   -1.9979   21.4898 C.ar    1  UNL1        0.1762
     27 C           4.3459   -0.9398   20.6013 C.ar    1  UNL1        0.0373
     28 O           5.7429   -1.9158   22.7477 O.3     1  UNL1       -0.4346
     29 C           6.0453   -3.3149   23.1963 C.3     1  UNL1        0.4294
     30 O           5.4192   -4.2616   22.2156 O.3     1  UNL1       -0.4346
@<TRIPOS>BOND
     1     9    10    2
     2    10    11   ar
     3    11    12   ar
     4    12     7    1
     5     7     1    1
     6     1     2    1
     7     2     3    1
     8     3     4    1
     9     4    21    1
    10    21    22    1
    11    22    23   ar
    12    23    24   ar
    13    24    25   ar
    14    25    26   ar
    15    26    27   ar
    16    26    28    1
    17    28    29    1
    18    29    30    1
    19     4     5    1
    20     5     6    1
    21    12    13   ar
    22    13    14   ar
    23    14    15   ar
    24    15    16    1
    25    15    17   ar
    26    17    18   ar
    27    18    19   ar
    28    19    20   ar
    29    20    10   ar
    30     6     1    1
    31    19    13   ar
    32    27    22   ar
    33    30    25    1
    34     7     8    1
