@<TRIPOS>MOLECULE
*****
 21 22 0 0 0
SMALL
GASTEIGER

@<TRIPOS>ATOM
      1 C         -12.1476  -17.3248   22.0734 C.2     1  UNL1        0.4049
      2 O         -12.1640  -15.9988   21.3723 O.2     1  UNL1       -0.2262
      3 N         -10.8685  -18.1009   22.1802 N.am    1  UNL1       -0.2454
      4 C         -10.8521  -19.4269   22.8812 C.3     1  UNL1        0.1011
      5 C          -9.5730  -20.2031   22.9881 C.3     1  UNL1        0.0443
      6 C          -8.3102  -19.6532   22.3939 C.2     1  UNL1       -0.0326
      7 C          -7.0311  -20.4294   22.5008 C.2     1  UNL1        0.0412
      8 C          -8.3266  -18.3273   21.6929 C.3     1  UNL1        0.0443
      9 C          -9.6057  -17.5511   21.5860 C.3     1  UNL1        0.1011
     10 C          -5.7683  -19.8796   21.9066 C.1     1  UNL1       -0.0598
     11 C          -4.5055  -19.3297   21.3123 C.1     1  UNL1       -0.0597
     12 C          -3.2428  -18.7799   20.7182 C.ar    1  UNL1        0.0428
     13 C          -2.0227  -18.6107   21.5743 C.ar    1  UNL1        0.0083
     14 C          -0.7599  -18.0608   20.9801 C.ar    1  UNL1        0.0015
     15 C          -0.7172  -17.6802   19.5298 C.ar    1  UNL1        0.0114
     16 C          -1.9372  -17.8495   18.6737 C.ar    1  UNL1        0.0583
     17 CL         -1.8944  -17.4689   17.2234 Cl      1  UNL1       -0.0822
     18 C          -3.2000  -18.3993   19.2679 C.ar    1  UNL1        0.0196
     19 O         -13.4104  -17.8746   22.6675 O.3     1  UNL1       -0.4345
     20 C         -14.8428  -18.4396   24.7602 C.3     1  UNL1        0.0513
     21 C         -13.6586  -17.7570   24.1422 C.3     1  UNL1        0.2102
@<TRIPOS>BOND
     1    20    21    1
     2    21    19    1
     3    19     1    1
     4     1     2    2
     5     1     3   am
     6     3     4    1
     7     4     5    1
     8     5     6    1
     9     6     7    2
    10     7    10    1
    11    10    11    3
    12    11    12    1
    13    12    13   ar
    14    13    14   ar
    15    14    15   ar
    16    15    16   ar
    17    16    17    1
    18    16    18   ar
    19     6     8    1
    20     8     9    1
    21     9     3    1
    22    18    12   ar
@<TRIPOS>MOLECULE
*****
 21 22 0 0 0
SMALL
GASTEIGER

@<TRIPOS>ATOM
      1 C          -2.0675  -18.4886   21.9269 C.2     1  UNL1        0.4049
      2 O          -1.9667  -17.6049   23.1346 O.2     1  UNL1       -0.2262
      3 N          -3.4139  -18.8930   21.4037 N.am    1  UNL1       -0.2454
      4 C          -3.5147  -19.7768   20.1959 C.3     1  UNL1        0.1011
      5 C          -4.8610  -20.1812   19.6727 C.3     1  UNL1        0.0443
      6 C          -6.1066  -19.7018   20.3573 C.2     1  UNL1       -0.0326
      7 C          -7.4530  -20.1062   19.8341 C.2     1  UNL1        0.0412
      8 C          -6.0058  -18.8181   21.5650 C.3     1  UNL1        0.0443
      9 C          -4.6595  -18.4137   22.0882 C.3     1  UNL1        0.1011
     10 C          -8.6986  -19.6269   20.5186 C.1     1  UNL1       -0.0598
     11 C          -9.9442  -19.1475   21.2033 C.1     1  UNL1       -0.0597
     12 C         -11.1898  -18.6681   21.8879 C.ar    1  UNL1        0.0428
     13 C         -12.2128  -17.8838   21.1208 C.ar    1  UNL1        0.0083
     14 C         -13.4583  -17.4044   21.8053 C.ar    1  UNL1        0.0015
     15 C         -13.6810  -17.7094   23.2570 C.ar    1  UNL1        0.0114
     16 C         -12.6582  -18.4937   24.0241 C.ar    1  UNL1        0.0583
     17 CL        -12.8809  -18.7987   25.4758 Cl      1  UNL1       -0.0822
     18 C         -11.4125  -18.9731   23.3396 C.ar    1  UNL1        0.0196
     19 O          -0.8219  -18.9680   21.2423 O.3     1  UNL1       -0.4345
     20 C          -1.0131  -17.6349   19.0205 C.3     1  UNL1        0.0513
     21 C          -0.1874  -18.1337   20.1692 C.3     1  UNL1        0.2102
@<TRIPOS>BOND
     1    20    21    1
     2    21    19    1
     3    19     1    1
     4     1     2    2
     5     1     3   am
     6     3     4    1
     7     4     5    1
     8     5     6    1
     9     6     7    2
    10     7    10    1
    11    10    11    3
    12    11    12    1
    13    12    13   ar
    14    13    14   ar
    15    14    15   ar
    16    15    16   ar
    17    16    17    1
    18    16    18   ar
    19     6     8    1
    20     8     9    1
    21     9     3    1
    22    18    12   ar
@<TRIPOS>MOLECULE
*****
 21 22 0 0 0
SMALL
GASTEIGER

@<TRIPOS>ATOM
      1 C          -2.3336  -17.9418   18.7357 C.2     1  UNL1        0.4049
      2 O          -2.7239  -16.8000   17.8447 O.2     1  UNL1       -0.2262
      3 N          -3.3488  -18.5604   19.6503 N.am    1  UNL1       -0.2454
      4 C          -2.9585  -19.7022   20.5413 C.3     1  UNL1        0.1011
      5 C          -3.9738  -20.3209   21.4559 C.3     1  UNL1        0.0443
      6 C          -5.3793  -19.7978   21.4795 C.2     1  UNL1       -0.0326
      7 C          -6.3946  -20.4164   22.3941 C.2     1  UNL1        0.0412
      8 C          -5.7697  -18.6560   20.5885 C.3     1  UNL1        0.0443
      9 C          -4.7544  -18.0373   19.6739 C.3     1  UNL1        0.1011
     10 C          -7.8002  -19.8933   22.4178 C.1     1  UNL1       -0.0598
     11 C          -9.2059  -19.3702   22.4414 C.1     1  UNL1       -0.0597
     12 C         -10.6115  -18.8470   22.4651 C.ar    1  UNL1        0.0428
     13 C         -11.2219  -18.2802   21.2176 C.ar    1  UNL1        0.0083
     14 C         -12.6274  -17.7571   21.2412 C.ar    1  UNL1        0.0015
     15 C         -13.4227  -17.8007   22.5123 C.ar    1  UNL1        0.0114
     16 C         -12.8124  -18.3675   23.7597 C.ar    1  UNL1        0.0583
     17 CL        -13.6076  -18.4112   25.0308 Cl      1  UNL1       -0.0822
     18 C         -11.4067  -18.8907   23.7361 C.ar    1  UNL1        0.0196
     19 O          -0.9280  -18.4649   18.7121 O.3     1  UNL1       -0.4345
     20 C          -0.2082  -16.7045   20.4821 C.3     1  UNL1        0.0513
     21 C           0.0817  -17.9468   19.6929 C.3     1  UNL1        0.2102
@<TRIPOS>BOND
     1    20    21    1
     2    21    19    1
     3    19     1    1
     4     1     2    2
     5     1     3   am
     6     3     4    1
     7     4     5    1
     8     5     6    1
     9     6     7    2
    10     7    10    1
    11    10    11    3
    12    11    12    1
    13    12    13   ar
    14    13    14   ar
    15    14    15   ar
    16    15    16   ar
    17    16    17    1
    18    16    18   ar
    19     6     8    1
    20     8     9    1
    21     9     3    1
    22    18    12   ar
@<TRIPOS>MOLECULE
*****
 21 22 0 0 0
SMALL
GASTEIGER

@<TRIPOS>ATOM
      1 C           2.6676  -13.9999   28.1934 C.2     1  UNL1        0.4049
      2 O           1.4482  -13.5910   27.4215 O.2     1  UNL1       -0.2262
      3 N           3.9001  -13.1458   28.1562 N.am    1  UNL1       -0.2454
      4 C           5.1195  -13.5546   28.9281 C.3     1  UNL1        0.1011
      5 C           6.3520  -12.7005   28.8909 C.3     1  UNL1        0.0443
      6 C           6.3651  -11.4375   28.0819 C.2     1  UNL1       -0.0326
      7 C           7.5976  -10.5834   28.0447 C.2     1  UNL1        0.0412
      8 C           5.1457  -11.0286   27.3100 C.3     1  UNL1        0.0443
      9 C           3.9132  -11.8828   27.3472 C.3     1  UNL1        0.1011
     10 C           7.6107   -9.3204   27.2357 C.1     1  UNL1       -0.0598
     11 C           7.6238   -8.0573   26.4266 C.1     1  UNL1       -0.0597
     12 C           7.6369   -6.7943   25.6175 C.ar    1  UNL1        0.0428
     13 C           7.0374   -5.5385   26.1777 C.ar    1  UNL1        0.0083
     14 C           7.0505   -4.2755   25.3686 C.ar    1  UNL1        0.0015
     15 C           7.6631   -4.2682   23.9994 C.ar    1  UNL1        0.0114
     16 C           8.2627   -5.5239   23.4393 C.ar    1  UNL1        0.0583
     17 CL          8.8753   -5.5166   22.0701 Cl      1  UNL1       -0.0822
     18 C           8.2496   -6.7870   24.2484 C.ar    1  UNL1        0.0196
     19 O           2.6545  -15.2629   29.0024 O.3     1  UNL1       -0.4345
     20 C           1.9372  -17.7544   29.1706 C.3     1  UNL1        0.0513
     21 C           1.6987  -16.3658   28.6558 C.3     1  UNL1        0.2102
@<TRIPOS>BOND
     1    20    21    1
     2    21    19    1
     3    19     1    1
     4     1     2    2
     5     1     3   am
     6     3     4    1
     7     4     5    1
     8     5     6    1
     9     6     7    2
    10     7    10    1
    11    10    11    3
    12    11    12    1
    13    12    13   ar
    14    13    14   ar
    15    14    15   ar
    16    15    16   ar
    17    16    17    1
    18    16    18   ar
    19     6     8    1
    20     8     9    1
    21     9     3    1
    22    18    12   ar
@<TRIPOS>MOLECULE
*****
 21 22 0 0 0
SMALL
GASTEIGER

@<TRIPOS>ATOM
      1 C           2.3932   -0.0956   30.5770 C.2     1  UNL1        0.4049
      2 O           0.9772    0.2931   30.2710 O.2     1  UNL1       -0.2262
      3 N           3.2793   -0.6205   29.4864 N.am    1  UNL1       -0.2454
      4 C           4.6953   -1.0092   29.7924 C.3     1  UNL1        0.1011
      5 C           5.5814   -1.5341   28.7018 C.3     1  UNL1        0.0443
      6 C           5.0513   -1.6704   27.3052 C.2     1  UNL1       -0.0326
      7 C           5.9374   -2.1953   26.2147 C.2     1  UNL1        0.0412
      8 C           3.6353   -1.2818   26.9993 C.3     1  UNL1        0.0443
      9 C           2.7492   -0.7568   28.0898 C.3     1  UNL1        0.1011
     10 C           5.4074   -2.3316   24.8181 C.1     1  UNL1       -0.0598
     11 C           4.8773   -2.4680   23.4215 C.1     1  UNL1       -0.0597
     12 C           4.3473   -2.6043   22.0249 C.ar    1  UNL1        0.0428
     13 C           3.4376   -1.5527   21.4620 C.ar    1  UNL1        0.0083
     14 C           2.9075   -1.6890   20.0654 C.ar    1  UNL1        0.0015
     15 C           3.2872   -2.8768   19.2317 C.ar    1  UNL1        0.0114
     16 C           4.1968   -3.9283   19.7945 C.ar    1  UNL1        0.0583
     17 CL          4.5764   -5.1161   18.9608 Cl      1  UNL1       -0.0822
     18 C           4.7269   -3.7920   21.1912 C.ar    1  UNL1        0.0196
     19 O           2.9232    0.0407   31.9736 O.3     1  UNL1       -0.4345
     20 C           1.9434    2.1147   33.1936 C.3     1  UNL1        0.0513
     21 C           3.1096    1.4019   32.5755 C.3     1  UNL1        0.2102
@<TRIPOS>BOND
     1    20    21    1
     2    21    19    1
     3    19     1    1
     4     1     2    2
     5     1     3   am
     6     3     4    1
     7     4     5    1
     8     5     6    1
     9     6     7    2
    10     7    10    1
    11    10    11    3
    12    11    12    1
    13    12    13   ar
    14    13    14   ar
    15    14    15   ar
    16    15    16   ar
    17    16    17    1
    18    16    18   ar
    19     6     8    1
    20     8     9    1
    21     9     3    1
    22    18    12   ar
@<TRIPOS>MOLECULE
*****
 21 22 0 0 0
SMALL
GASTEIGER

@<TRIPOS>ATOM
      1 C           0.9172    0.2150   19.4853 C.2     1  UNL1        0.4049
      2 O          -0.0515    0.1777   20.6299 O.2     1  UNL1       -0.2262
      3 N           2.2343   -0.4946   19.5940 N.am    1  UNL1       -0.2454
      4 C           3.2030   -0.4573   18.4494 C.3     1  UNL1        0.1011
      5 C           4.5200   -1.1670   18.5580 C.3     1  UNL1        0.0443
      6 C           4.8683   -1.9139   19.8112 C.2     1  UNL1       -0.0326
      7 C           6.1854   -2.6236   19.9199 C.2     1  UNL1        0.0412
      8 C           3.8996   -1.9512   20.9558 C.3     1  UNL1        0.0443
      9 C           2.5826   -1.2416   20.8472 C.3     1  UNL1        0.1011
     10 C           6.5337   -3.3706   21.1731 C.1     1  UNL1       -0.0598
     11 C           6.8820   -4.1175   22.4265 C.1     1  UNL1       -0.0597
     12 C           7.2303   -4.8645   23.6797 C.ar    1  UNL1        0.0428
     13 C           8.1001   -6.0846   23.6084 C.ar    1  UNL1        0.0083
     14 C           8.4484   -6.8316   24.8617 C.ar    1  UNL1        0.0015
     15 C           7.9271   -6.3585   26.1862 C.ar    1  UNL1        0.0114
     16 C           7.0574   -5.1385   26.2575 C.ar    1  UNL1        0.0583
     17 CL          6.5360   -4.6654   27.5821 Cl      1  UNL1       -0.0822
     18 C           6.7090   -4.3914   25.0042 C.ar    1  UNL1        0.0196
     19 O           0.5689    0.9620   18.2321 O.3     1  UNL1       -0.4345
     20 C           1.7628    3.2389   18.6065 C.3     1  UNL1        0.0513
     21 C           0.5340    2.4616   18.2379 C.3     1  UNL1        0.2102
@<TRIPOS>BOND
     1    20    21    1
     2    21    19    1
     3    19     1    1
     4     1     2    2
     5     1     3   am
     6     3     4    1
     7     4     5    1
     8     5     6    1
     9     6     7    2
    10     7    10    1
    11    10    11    3
    12    11    12    1
    13    12    13   ar
    14    13    14   ar
    15    14    15   ar
    16    15    16   ar
    17    16    17    1
    18    16    18   ar
    19     6     8    1
    20     8     9    1
    21     9     3    1
    22    18    12   ar
@<TRIPOS>MOLECULE
*****
 21 22 0 0 0
SMALL
GASTEIGER

@<TRIPOS>ATOM
      1 C           4.0327   -1.2758   17.8566 C.2     1  UNL1        0.4049
      2 O           3.9097   -1.1599   16.3662 O.2     1  UNL1       -0.2262
      3 N           3.0617   -0.5590   18.7474 N.am    1  UNL1       -0.2454
      4 C           3.1848   -0.6750   20.2378 C.3     1  UNL1        0.1011
      5 C           2.2138    0.0418   21.1285 C.3     1  UNL1        0.0443
      6 C           1.1198    0.8745   20.5289 C.2     1  UNL1       -0.0326
      7 C           0.1488    1.5913   21.4196 C.2     1  UNL1        0.0412
      8 C           0.9967    0.9904   19.0385 C.3     1  UNL1        0.0443
      9 C           1.9677    0.2737   18.1477 C.3     1  UNL1        0.1011
     10 C          -0.9452    2.4240   20.8200 C.1     1  UNL1       -0.0598
     11 C          -2.0394    3.2567   20.2203 C.1     1  UNL1       -0.0597
     12 C          -3.1334    4.0894   19.6207 C.ar    1  UNL1        0.0428
     13 C          -2.8436    5.4854   19.1544 C.ar    1  UNL1        0.0083
     14 C          -3.9376    6.3181   18.5547 C.ar    1  UNL1        0.0015
     15 C          -5.3215    5.7549   18.4213 C.ar    1  UNL1        0.0114
     16 C          -5.6113    4.3590   18.8876 C.ar    1  UNL1        0.0583
     17 CL         -6.9951    3.7959   18.7542 Cl      1  UNL1       -0.0822
     18 C          -4.5172    3.5263   19.4873 C.ar    1  UNL1        0.0196
     19 O           5.1267   -2.1085   18.4563 O.3     1  UNL1       -0.4345
     20 C           3.6987   -4.1858   19.0853 C.3     1  UNL1        0.0513
     21 C           4.9705   -3.5974   18.5499 C.3     1  UNL1        0.2102
@<TRIPOS>BOND
     1    20    21    1
     2    21    19    1
     3    19     1    1
     4     1     2    2
     5     1     3   am
     6     3     4    1
     7     4     5    1
     8     5     6    1
     9     6     7    2
    10     7    10    1
    11    10    11    3
    12    11    12    1
    13    12    13   ar
    14    13    14   ar
    15    14    15   ar
    16    15    16   ar
    17    16    17    1
    18    16    18   ar
    19     6     8    1
    20     8     9    1
    21     9     3    1
    22    18    12   ar
@<TRIPOS>MOLECULE
*****
 21 22 0 0 0
SMALL
GASTEIGER

@<TRIPOS>ATOM
      1 C           1.7870    1.2946   28.2230 C.2     1  UNL1        0.4049
      2 O           2.9851    0.6278   28.8312 O.2     1  UNL1       -0.2262
      3 N           1.5496    1.2067   26.7445 N.am    1  UNL1       -0.2454
      4 C           0.3515    1.8734   26.1363 C.3     1  UNL1        0.1011
      5 C           0.1142    1.7856   24.6578 C.3     1  UNL1        0.0443
      6 C           1.0749    1.0309   23.7875 C.2     1  UNL1       -0.0326
      7 C           0.8375    0.9431   22.3090 C.2     1  UNL1        0.0412
      8 C           2.2730    0.3642   24.3957 C.3     1  UNL1        0.0443
      9 C           2.5104    0.4521   25.8742 C.3     1  UNL1        0.1011
     10 C           1.7982    0.1884   21.4387 C.1     1  UNL1       -0.0598
     11 C           2.7590   -0.5663   20.5684 C.1     1  UNL1       -0.0597
     12 C           3.7197   -1.3209   19.6980 C.ar    1  UNL1        0.0428
     13 C           4.7286   -0.5770   18.8740 C.ar    1  UNL1        0.0083
     14 C           5.6893   -1.3316   18.0037 C.ar    1  UNL1        0.0015
     15 C           5.6412   -2.8301   17.9573 C.ar    1  UNL1        0.0114
     16 C           4.6325   -3.5740   18.7813 C.ar    1  UNL1        0.0583
     17 CL          4.5844   -5.0725   18.7349 Cl      1  UNL1       -0.0822
     18 C           3.6717   -2.8194   19.6517 C.ar    1  UNL1        0.0196
     19 O           0.8263    2.0492   29.0933 O.3     1  UNL1       -0.4345
     20 C          -1.1350    0.3457   29.1324 C.3     1  UNL1        0.0513
     21 C          -0.2390    1.3119   29.8492 C.3     1  UNL1        0.2102
@<TRIPOS>BOND
     1    20    21    1
     2    21    19    1
     3    19     1    1
     4     1     2    2
     5     1     3   am
     6     3     4    1
     7     4     5    1
     8     5     6    1
     9     6     7    2
    10     7    10    1
    11    10    11    3
    12    11    12    1
    13    12    13   ar
    14    13    14   ar
    15    14    15   ar
    16    15    16   ar
    17    16    17    1
    18    16    18   ar
    19     6     8    1
    20     8     9    1
    21     9     3    1
    22    18    12   ar
@<TRIPOS>MOLECULE
*****
 21 22 0 0 0
SMALL
GASTEIGER

@<TRIPOS>ATOM
      1 C         -18.3793    1.2228   20.6176 C.2     1  UNL1        0.4049
      2 O         -19.2053    0.1328   21.2337 O.2     1  UNL1       -0.2262
      3 N         -17.0268    0.9090   20.0498 N.am    1  UNL1       -0.2454
      4 C         -16.2008    1.9990   19.4336 C.3     1  UNL1        0.1011
      5 C         -14.8484    1.6853   18.8658 C.3     1  UNL1        0.0443
      6 C         -14.3219    0.2816   18.9142 C.2     1  UNL1       -0.0326
      7 C         -12.9694   -0.0321   18.3464 C.2     1  UNL1        0.0412
      8 C         -15.1478   -0.8084   19.5303 C.3     1  UNL1        0.0443
      9 C         -16.5003   -0.4946   20.0981 C.3     1  UNL1        0.1011
     10 C         -12.4429   -1.4358   18.3947 C.1     1  UNL1       -0.0598
     11 C         -11.9164   -2.8396   18.4431 C.1     1  UNL1       -0.0597
     12 C         -11.3899   -4.2433   18.4914 C.ar    1  UNL1        0.0428
     13 C          -9.9998   -4.5062   18.9900 C.ar    1  UNL1        0.0083
     14 C          -9.4732   -5.9099   19.0383 C.ar    1  UNL1        0.0015
     15 C         -10.3368   -7.0507   18.5881 C.ar    1  UNL1        0.0114
     16 C         -11.7269   -6.7879   18.0895 C.ar    1  UNL1        0.0583
     17 CL        -12.5904   -7.9288   17.6393 Cl      1  UNL1       -0.0822
     18 C         -12.2534   -5.3841   18.0412 C.ar    1  UNL1        0.0196
     19 O         -18.9058    2.6265   20.5692 O.3     1  UNL1       -0.4345
     20 C         -17.6267    3.2936   22.7300 C.3     1  UNL1        0.0513
     21 C         -18.7419    3.5302   21.7551 C.3     1  UNL1        0.2102
@<TRIPOS>BOND
     1    20    21    1
     2    21    19    1
     3    19     1    1
     4     1     2    2
     5     1     3   am
     6     3     4    1
     7     4     5    1
     8     5     6    1
     9     6     7    2
    10     7    10    1
    11    10    11    3
    12    11    12    1
    13    12    13   ar
    14    13    14   ar
    15    14    15   ar
    16    15    16   ar
    17    16    17    1
    18    16    18   ar
    19     6     8    1
    20     8     9    1
    21     9     3    1
    22    18    12   ar
