@<TRIPOS>MOLECULE
*****
 37 40 0 0 0
SMALL
GASTEIGER

@<TRIPOS>ATOM
      1 C           1.1181    2.1924   20.7745 C.3     1  UNL1        0.1174
      2 C          -0.2904    2.6829   20.9340 C.ar    1  UNL1        0.0961
      3 N          -1.4089    2.8624   21.9172 N.ar    1  UNL1       -0.1681
      4 N          -2.5694    3.4766   21.1920 N.ar    1  UNL1       -0.2287
      5 C          -2.1682    3.6766   19.7606 C.ar    1  UNL1        0.0990
      6 C          -0.7597    3.1861   19.6011 C.ar    1  UNL1        0.0337
      7 C           0.3587    3.0065   18.6178 C.3     1  UNL1        0.1235
      8 N           1.5194    2.3924   19.3430 N.pl3   1  UNL1       -0.2703
      9 C          -3.8980    3.8288   21.7928 C.ar    1  UNL1        0.0841
     10 C          -5.1384    3.7801   20.9508 C.ar    1  UNL1        0.0190
     11 C          -6.4669    4.1324   21.5517 C.ar    1  UNL1        0.0010
     12 C          -6.5550    4.5334   22.9944 C.ar    1  UNL1        0.0242
     13 C          -5.3146    4.5821   23.8363 C.ar    1  UNL1        0.1056
     14 C          -3.9860    4.2298   23.2355 C.ar    1  UNL1        0.0372
     15 S          -5.4026    4.9831   25.2790 S.O2    1  UNL1        0.0103
     16 C          -5.4906    5.3842   26.7217 C.3     1  UNL1        0.1816
     17 O          -5.4222    6.4280   24.8762 O.2     1  UNL1       -0.1686
     18 O          -5.3830    3.5384   25.6819 O.2     1  UNL1       -0.1686
     19 C          -7.8836    4.8857   23.5951 C.3     1  UNL1        0.1649
     20 O          -8.9464    3.8362   23.7327 O.3     1  UNL1       -0.3772
     21 H          -9.2367    3.5526   22.8517 H       1  UNL1        0.2109
     22 C           2.8478    2.0402   18.7423 C.ar    1  UNL1        0.2206
     23 N           3.7981    3.1266   18.3338 N.ar    1  UNL1       -0.2123
     24 C           5.1265    2.7744   17.7331 C.ar    1  UNL1        0.1014
     25 C           5.5049    1.3356   17.5407 C.ar    1  UNL1        0.0479
     26 C           4.5547    0.2491   17.9491 C.ar    1  UNL1        0.1553
     27 N           3.2262    0.6015   18.5499 N.ar    1  UNL1       -0.2099
     28 C           4.9331   -1.1895   17.7567 C.3     1  UNL1        0.4348
     29 F           5.3115   -2.6282   17.5644 F       1  UNL1       -0.1644
     30 F           5.6832   -1.1658   19.0555 F       1  UNL1       -0.1644
     31 F           4.1830   -1.2131   16.4579 F       1  UNL1       -0.1644
     32 C           6.8335    0.9833   16.9399 C.3     1  UNL1        0.1666
     33 O           8.0241    0.7682   17.8265 O.3     1  UNL1       -0.3771
     34 H           8.2587    1.6030   18.2610 H       1  UNL1        0.2109
     35 C           2.6718    2.5054   22.8331 C.3     1  UNL1        0.0021
     36 C           1.9750    1.6050   21.8564 C.3     1  UNL1        0.0241
     37 C           2.1352    0.1173   21.9618 C.3     1  UNL1        0.0021
@<TRIPOS>BOND
     1    35    36    1
     2    36    37    1
     3     1    36    1
     4     1     2    1
     5     2     3   ar
     6     3     4   ar
     7     4     9    1
     8     9    10   ar
     9    10    11   ar
    10    11    12   ar
    11    12    19    1
    12    19    20    1
    13    12    13   ar
    14    13    15    1
    15    15    16    1
    16    15    17    2
    17    15    18    2
    18    13    14   ar
    19     4     5   ar
    20     5     6   ar
    21     6     7    1
    22     7     8    1
    23     8    22    1
    24    22    23   ar
    25    23    24   ar
    26    24    25   ar
    27    25    32    1
    28    32    33    1
    29    25    26   ar
    30    26    28    1
    31    28    29    1
    32    28    30    1
    33    28    31    1
    34    26    27   ar
    35     8     1    1
    36    27    22   ar
    37     6     2   ar
    38    14     9   ar
    39    20    21    1
    40    33    34    1
@<TRIPOS>MOLECULE
*****
 37 40 0 0 0
SMALL
GASTEIGER

@<TRIPOS>ATOM
      1 C           7.6221   -5.5024   25.1558 C.3     1  UNL1        0.1174
      2 C           7.1726   -4.5734   24.0673 C.ar    1  UNL1        0.0961
      3 N           6.8612   -4.4805   22.6029 N.ar    1  UNL1       -0.1681
      4 N           6.4452   -3.0703   22.3061 N.ar    1  UNL1       -0.2287
      5 C           6.4995   -2.2915   23.5870 C.ar    1  UNL1        0.0990
      6 C           6.9490   -3.2206   24.6755 C.ar    1  UNL1        0.0337
      7 C           7.2604   -3.3134   26.1399 C.3     1  UNL1        0.1235
      8 N           7.6764   -4.7237   26.4368 N.pl3   1  UNL1       -0.2703
      9 C           6.0451   -2.5330   20.9640 C.ar    1  UNL1        0.0841
     10 C           6.6999   -3.0575   19.7206 C.ar    1  UNL1        0.0190
     11 C           6.2998   -2.5201   18.3785 C.ar    1  UNL1        0.0010
     12 C           5.2449   -1.4583   18.2797 C.ar    1  UNL1        0.0242
     13 C           4.5901   -0.9338   19.5232 C.ar    1  UNL1        0.1056
     14 C           4.9902   -1.4712   20.8653 C.ar    1  UNL1        0.0372
     15 S           3.5351    0.1279   19.4245 S.O2    1  UNL1        0.0103
     16 C           2.4803    1.1898   19.3259 C.3     1  UNL1        0.1816
     17 O           4.5880    1.1870   19.5657 O.2     1  UNL1       -0.1686
     18 O           2.4823   -0.9311   19.2834 O.2     1  UNL1       -0.1686
     19 C           4.8448   -0.9211   16.9376 C.3     1  UNL1        0.1649
     20 O           3.5493   -1.3489   16.3143 O.3     1  UNL1       -0.3772
     21 H           3.5880   -2.2953   16.1053 H       1  UNL1        0.2109
     22 C           8.0765   -5.2610   27.7788 C.ar    1  UNL1        0.2206
     23 N           9.1358   -6.3184   27.8781 N.ar    1  UNL1       -0.2123
     24 C           9.5359   -6.8556   29.2201 C.ar    1  UNL1        0.1014
     25 C           8.8766   -6.3355   30.4632 C.ar    1  UNL1        0.0479
     26 C           7.8173   -5.2781   30.3640 C.ar    1  UNL1        0.1553
     27 N           7.4172   -4.7409   29.0218 N.ar    1  UNL1       -0.2099
     28 C           7.1580   -4.7580   31.6069 C.3     1  UNL1        0.4348
     29 F           6.4987   -4.2381   32.8498 F       1  UNL1       -0.1644
     30 F           6.1788   -5.8935   31.5625 F       1  UNL1       -0.1644
     31 F           8.1372   -3.6227   31.6512 F       1  UNL1       -0.1644
     32 C           9.2767   -6.8727   31.8053 C.3     1  UNL1        0.1666
     33 O           8.2694   -7.5848   32.6587 O.3     1  UNL1       -0.3771
     34 H           7.5791   -6.9608   32.9329 H       1  UNL1        0.2109
     35 C           7.2506   -7.9865   25.8199 C.3     1  UNL1        0.0021
     36 C           7.9584   -6.9550   24.9922 C.3     1  UNL1        0.0241
     37 C           9.0024   -7.3762   24.0009 C.3     1  UNL1        0.0021
@<TRIPOS>BOND
     1    35    36    1
     2    36    37    1
     3     1    36    1
     4     1     2    1
     5     2     3   ar
     6     3     4   ar
     7     4     9    1
     8     9    10   ar
     9    10    11   ar
    10    11    12   ar
    11    12    19    1
    12    19    20    1
    13    12    13   ar
    14    13    15    1
    15    15    16    1
    16    15    17    2
    17    15    18    2
    18    13    14   ar
    19     4     5   ar
    20     5     6   ar
    21     6     7    1
    22     7     8    1
    23     8    22    1
    24    22    23   ar
    25    23    24   ar
    26    24    25   ar
    27    25    32    1
    28    32    33    1
    29    25    26   ar
    30    26    28    1
    31    28    29    1
    32    28    30    1
    33    28    31    1
    34    26    27   ar
    35     8     1    1
    36    27    22   ar
    37     6     2   ar
    38    14     9   ar
    39    20    21    1
    40    33    34    1
@<TRIPOS>MOLECULE
*****
 37 40 0 0 0
SMALL
GASTEIGER

@<TRIPOS>ATOM
      1 C           1.4421    1.5916   21.0265 C.3     1  UNL1        0.1174
      2 C           0.6289    2.1115   22.1747 C.ar    1  UNL1        0.0961
      3 N          -0.3895    3.1378   22.5740 N.ar    1  UNL1       -0.1681
      4 N          -0.6869    2.9526   24.0325 N.ar    1  UNL1       -0.2287
      5 C           0.1478    1.8119   24.5346 C.ar    1  UNL1        0.0990
      6 C           0.9610    1.2920   23.3864 C.ar    1  UNL1        0.0337
      7 C           1.9794    0.2657   22.9871 C.3     1  UNL1        0.1235
      8 N           2.2768    0.4508   21.5285 N.pl3   1  UNL1       -0.2703
      9 C          -1.6498    3.7655   24.8461 C.ar    1  UNL1        0.0841
     10 C          -1.2218    4.3355   26.1659 C.ar    1  UNL1        0.0190
     11 C          -2.1849    5.1484   26.9795 C.ar    1  UNL1        0.0010
     12 C          -3.5758    5.3912   26.4733 C.ar    1  UNL1        0.0242
     13 C          -4.0038    4.8213   25.1535 C.ar    1  UNL1        0.1056
     14 C          -3.0408    4.0084   24.3399 C.ar    1  UNL1        0.0372
     15 S          -5.3947    5.0641   24.6472 S.O2    1  UNL1        0.0103
     16 C          -6.7856    5.3070   24.1409 C.3     1  UNL1        0.1816
     17 O          -4.9195    6.2941   23.9320 O.2     1  UNL1       -0.1686
     18 O          -5.8699    3.8342   25.3624 O.2     1  UNL1       -0.1686
     19 C          -4.5388    6.2041   27.2869 C.3     1  UNL1        0.1649
     20 O          -5.6863    5.5332   27.9818 O.3     1  UNL1       -0.3772
     21 H          -6.2973    5.1711   27.3212 H       1  UNL1        0.2109
     22 C           3.2397   -0.3620   20.7150 C.ar    1  UNL1        0.2206
     23 N           4.3424    0.3175   19.9583 N.ar    1  UNL1       -0.2123
     24 C           5.3053   -0.4954   19.1448 C.ar    1  UNL1        0.1014
     25 C           5.1656   -1.9879   19.0878 C.ar    1  UNL1        0.0479
     26 C           4.0630   -2.6674   19.8444 C.ar    1  UNL1        0.1553
     27 N           3.1001   -1.8544   20.6580 N.ar    1  UNL1       -0.2099
     28 C           3.9234   -4.1598   19.7874 C.3     1  UNL1        0.4348
     29 F           3.7838   -5.6521   19.7305 F       1  UNL1       -0.1644
     30 F           4.8399   -4.2905   20.9676 F       1  UNL1       -0.1644
     31 F           3.0069   -4.0289   18.6072 F       1  UNL1       -0.1644
     32 C           6.1286   -2.8007   18.2742 C.3     1  UNL1        0.1666
     33 O           6.9157   -2.1517   17.1746 O.3     1  UNL1       -0.3771
     34 H           6.3124   -1.8635   16.4718 H       1  UNL1        0.2109
     35 C           0.8768    1.2748   18.5106 C.3     1  UNL1        0.0021
     36 C           1.4239    2.1197   19.6227 C.3     1  UNL1        0.0241
     37 C           1.9529    3.4927   19.3309 C.3     1  UNL1        0.0021
@<TRIPOS>BOND
     1    35    36    1
     2    36    37    1
     3     1    36    1
     4     1     2    1
     5     2     3   ar
     6     3     4   ar
     7     4     9    1
     8     9    10   ar
     9    10    11   ar
    10    11    12   ar
    11    12    19    1
    12    19    20    1
    13    12    13   ar
    14    13    15    1
    15    15    16    1
    16    15    17    2
    17    15    18    2
    18    13    14   ar
    19     4     5   ar
    20     5     6   ar
    21     6     7    1
    22     7     8    1
    23     8    22    1
    24    22    23   ar
    25    23    24   ar
    26    24    25   ar
    27    25    32    1
    28    32    33    1
    29    25    26   ar
    30    26    28    1
    31    28    29    1
    32    28    30    1
    33    28    31    1
    34    26    27   ar
    35     8     1    1
    36    27    22   ar
    37     6     2   ar
    38    14     9   ar
    39    20    21    1
    40    33    34    1
@<TRIPOS>MOLECULE
*****
 37 40 0 0 0
SMALL
GASTEIGER

@<TRIPOS>ATOM
      1 C           4.8567   -1.1929   24.2784 C.3     1  UNL1        0.1174
      2 C           4.3031   -0.6773   25.5737 C.ar    1  UNL1        0.0961
      3 N           4.5458   -0.5998   27.0519 N.ar    1  UNL1       -0.1681
      4 N           3.4073    0.1568   27.6694 N.ar    1  UNL1       -0.2287
      5 C           2.4610    0.5470   26.5729 C.ar    1  UNL1        0.0990
      6 C           3.0146    0.0314   25.2776 C.ar    1  UNL1        0.0337
      7 C           2.7719   -0.0461   23.7994 C.3     1  UNL1        0.1235
      8 N           3.9104   -0.8028   23.1818 N.pl3   1  UNL1       -0.2703
      9 C           3.2438    0.4687   29.1275 C.ar    1  UNL1        0.0841
     10 C           2.2747    1.5271   29.5641 C.ar    1  UNL1        0.0190
     11 C           2.1113    1.8389   31.0222 C.ar    1  UNL1        0.0010
     12 C           2.9168    1.0922   32.0438 C.ar    1  UNL1        0.0242
     13 C           3.8859    0.0338   31.6072 C.ar    1  UNL1        0.1056
     14 C           4.0493   -0.2780   30.1491 C.ar    1  UNL1        0.0372
     15 S           4.6915   -0.7129   32.6287 S.O2    1  UNL1        0.0103
     16 C           5.4970   -1.4597   33.6502 C.3     1  UNL1        0.1816
     17 O           3.6475   -1.7895   32.6650 O.2     1  UNL1       -0.1686
     18 O           5.7354    0.3636   32.5924 O.2     1  UNL1       -0.1686
     19 C           2.7533    1.4041   33.5019 C.3     1  UNL1        0.1649
     20 O           1.5068    2.0816   33.9888 O.3     1  UNL1       -0.3772
     21 H           1.4637    2.9797   33.6249 H       1  UNL1        0.2109
     22 C           4.0739   -1.1146   21.7238 C.ar    1  UNL1        0.2206
     23 N           4.1680    0.0001   20.7244 N.ar    1  UNL1       -0.2123
     24 C           4.3315   -0.3117   19.2664 C.ar    1  UNL1        0.1014
     25 C           4.4009   -1.7382   18.8076 C.ar    1  UNL1        0.0479
     26 C           4.3067   -2.8529   19.8069 C.ar    1  UNL1        0.1553
     27 N           4.1432   -2.5410   21.2650 N.ar    1  UNL1       -0.2099
     28 C           4.3761   -4.2793   19.3481 C.3     1  UNL1        0.4348
     29 F           4.4453   -5.7057   18.8894 F       1  UNL1       -0.1644
     30 F           2.9048   -4.2569   19.0566 F       1  UNL1       -0.1644
     31 F           5.8473   -4.3016   19.6397 F       1  UNL1       -0.1644
     32 C           4.5643   -2.0500   17.3495 C.3     1  UNL1        0.1666
     33 O           3.7558   -1.3062   16.3282 O.3     1  UNL1       -0.3771
     34 H           2.8171   -1.5254   16.4368 H       1  UNL1        0.2109
     35 C           6.1241   -3.4598   24.2110 C.3     1  UNL1        0.0021
     36 C           6.1326   -1.9633   24.1093 C.3     1  UNL1        0.0241
     37 C           7.4169   -1.2372   23.8386 C.3     1  UNL1        0.0021
@<TRIPOS>BOND
     1    35    36    1
     2    36    37    1
     3     1    36    1
     4     1     2    1
     5     2     3   ar
     6     3     4   ar
     7     4     9    1
     8     9    10   ar
     9    10    11   ar
    10    11    12   ar
    11    12    19    1
    12    19    20    1
    13    12    13   ar
    14    13    15    1
    15    15    16    1
    16    15    17    2
    17    15    18    2
    18    13    14   ar
    19     4     5   ar
    20     5     6   ar
    21     6     7    1
    22     7     8    1
    23     8    22    1
    24    22    23   ar
    25    23    24   ar
    26    24    25   ar
    27    25    32    1
    28    32    33    1
    29    25    26   ar
    30    26    28    1
    31    28    29    1
    32    28    30    1
    33    28    31    1
    34    26    27   ar
    35     8     1    1
    36    27    22   ar
    37     6     2   ar
    38    14     9   ar
    39    20    21    1
    40    33    34    1
@<TRIPOS>MOLECULE
*****
 37 40 0 0 0
SMALL
GASTEIGER

@<TRIPOS>ATOM
      1 C           1.6822    1.2908   21.9329 C.3     1  UNL1        0.1174
      2 C           0.4834    2.1787   22.0899 C.ar    1  UNL1        0.0961
      3 N          -0.2621    3.0515   23.0556 N.ar    1  UNL1       -0.1681
      4 N          -1.4561    3.6154   22.3440 N.ar    1  UNL1       -0.2287
      5 C          -1.4486    3.0911   20.9386 C.ar    1  UNL1        0.0990
      6 C          -0.2499    2.2032   20.7816 C.ar    1  UNL1        0.0337
      7 C           0.4956    1.3304   19.8160 C.3     1  UNL1        0.1235
      8 N           1.6898    0.7665   20.5275 N.pl3   1  UNL1       -0.2703
      9 C          -2.4783    4.5410   22.9342 C.ar    1  UNL1        0.0841
     10 C          -2.0491    5.8452   23.5382 C.ar    1  UNL1        0.0190
     11 C          -3.0714    6.7708   24.1284 C.ar    1  UNL1        0.0010
     12 C          -4.5228    6.3923   24.1146 C.ar    1  UNL1        0.0242
     13 C          -4.9519    5.0881   23.5106 C.ar    1  UNL1        0.1056
     14 C          -3.9297    4.1625   22.9204 C.ar    1  UNL1        0.0372
     15 S          -6.4033    4.7094   23.4968 S.O2    1  UNL1        0.0103
     16 C          -7.8546    4.3307   23.4831 C.3     1  UNL1        0.1816
     17 O          -6.2797    4.1850   24.8968 O.2     1  UNL1       -0.1686
     18 O          -6.5268    5.2338   22.0969 O.2     1  UNL1       -0.1686
     19 C          -5.5449    7.3179   24.7048 C.3     1  UNL1        0.1649
     20 O          -6.1014    7.0476   26.0712 O.3     1  UNL1       -0.3772
     21 H          -6.6172    6.2262   26.0536 H       1  UNL1        0.2109
     22 C           2.7119   -0.1591   19.9373 C.ar    1  UNL1        0.2206
     23 N           3.8079    0.3878   19.0715 N.ar    1  UNL1       -0.2123
     24 C           4.8300   -0.5378   18.4813 C.ar    1  UNL1        0.1014
     25 C           4.7562   -2.0105   18.7569 C.ar    1  UNL1        0.0479
     26 C           3.6602   -2.5575   19.6227 C.ar    1  UNL1        0.1553
     27 N           2.6380   -1.6317   20.2129 N.ar    1  UNL1       -0.2099
     28 C           3.5864   -4.0301   19.8982 C.3     1  UNL1        0.4348
     29 F           3.5125   -5.5027   20.1737 F       1  UNL1       -0.1644
     30 F           2.7489   -4.2182   18.6680 F       1  UNL1       -0.1644
     31 F           4.4239   -3.8419   21.1283 F       1  UNL1       -0.1644
     32 C           5.7784   -2.9361   18.1666 C.3     1  UNL1        0.1666
     33 O           6.9199   -2.3812   17.3672 O.3     1  UNL1       -0.3771
     34 H           6.5787   -1.9766   16.5544 H       1  UNL1        0.2109
     35 C           3.6082    2.0604   23.4974 C.3     1  UNL1        0.0021
     36 C           2.6954    0.9815   22.9948 C.3     1  UNL1        0.0241
     37 C           2.7959   -0.4068   23.5539 C.3     1  UNL1        0.0021
@<TRIPOS>BOND
     1    35    36    1
     2    36    37    1
     3     1    36    1
     4     1     2    1
     5     2     3   ar
     6     3     4   ar
     7     4     9    1
     8     9    10   ar
     9    10    11   ar
    10    11    12   ar
    11    12    19    1
    12    19    20    1
    13    12    13   ar
    14    13    15    1
    15    15    16    1
    16    15    17    2
    17    15    18    2
    18    13    14   ar
    19     4     5   ar
    20     5     6   ar
    21     6     7    1
    22     7     8    1
    23     8    22    1
    24    22    23   ar
    25    23    24   ar
    26    24    25   ar
    27    25    32    1
    28    32    33    1
    29    25    26   ar
    30    26    28    1
    31    28    29    1
    32    28    30    1
    33    28    31    1
    34    26    27   ar
    35     8     1    1
    36    27    22   ar
    37     6     2   ar
    38    14     9   ar
    39    20    21    1
    40    33    34    1
@<TRIPOS>MOLECULE
*****
 37 40 0 0 0
SMALL
GASTEIGER

@<TRIPOS>ATOM
      1 C           2.8234    0.4240   23.7231 C.3     1  UNL1        0.1174
      2 C           2.8942    0.3789   25.2207 C.ar    1  UNL1        0.0961
      3 N           2.4328    1.0541   26.4782 N.ar    1  UNL1       -0.1681
      4 N           3.0086    0.3061   27.6439 N.ar    1  UNL1       -0.2287
      5 C           3.8259   -0.8313   27.1069 C.ar    1  UNL1        0.0990
      6 C           3.7551   -0.7863   25.6092 C.ar    1  UNL1        0.0337
      7 C           4.2165   -1.4615   24.3517 C.3     1  UNL1        0.1235
      8 N           3.6406   -0.7135   23.1859 N.pl3   1  UNL1       -0.2703
      9 C           2.8033    0.6374   29.0924 C.ar    1  UNL1        0.0841
     10 C           1.6774    1.5393   29.5032 C.ar    1  UNL1        0.0190
     11 C           1.4721    1.8705   30.9518 C.ar    1  UNL1        0.0010
     12 C           2.3927    1.2998   31.9894 C.ar    1  UNL1        0.0242
     13 C           3.5186    0.3979   31.5786 C.ar    1  UNL1        0.1056
     14 C           3.7239    0.0667   30.1301 C.ar    1  UNL1        0.0372
     15 S           4.4392   -0.1729   32.6162 S.O2    1  UNL1        0.0103
     16 C           5.3598   -0.7437   33.6538 C.3     1  UNL1        0.1816
     17 O           3.5822   -1.4011   32.7010 O.2     1  UNL1       -0.1686
     18 O           5.2963    1.0552   32.5315 O.2     1  UNL1       -0.1686
     19 C           2.1874    1.6311   33.4379 C.3     1  UNL1        0.1649
     20 O           1.2900    2.7682   33.8273 O.3     1  UNL1       -0.3772
     21 H           1.6767    3.6041   33.5229 H       1  UNL1        0.2109
     22 C           3.8460   -1.0447   21.7375 C.ar    1  UNL1        0.2206
     23 N           3.9442    0.0558   20.7230 N.ar    1  UNL1       -0.2123
     24 C           4.1495   -0.2754   19.2746 C.ar    1  UNL1        0.1014
     25 C           4.2567   -1.7074   18.8405 C.ar    1  UNL1        0.0479
     26 C           4.1584   -2.8079   19.8550 C.ar    1  UNL1        0.1553
     27 N           3.9531   -2.4766   21.3035 N.ar    1  UNL1       -0.2099
     28 C           4.2655   -4.2397   19.4209 C.3     1  UNL1        0.4348
     29 F           4.3727   -5.6715   18.9869 F       1  UNL1       -0.1644
     30 F           5.7354   -4.2202   19.7196 F       1  UNL1       -0.1644
     31 F           2.7957   -4.2592   19.1224 F       1  UNL1       -0.1644
     32 C           4.4620   -2.0386   17.3921 C.3     1  UNL1        0.1666
     33 O           3.7204   -1.2746   16.3355 O.3     1  UNL1       -0.3771
     34 H           2.7708   -1.4575   16.4108 H       1  UNL1        0.2109
     35 C           0.7664    1.0497   22.2646 C.3     1  UNL1        0.0021
     36 C           2.0681    1.4298   22.9059 C.3     1  UNL1        0.0241
     37 C           2.6144    2.8156   22.7300 C.3     1  UNL1        0.0021
@<TRIPOS>BOND
     1    35    36    1
     2    36    37    1
     3     1    36    1
     4     1     2    1
     5     2     3   ar
     6     3     4   ar
     7     4     9    1
     8     9    10   ar
     9    10    11   ar
    10    11    12   ar
    11    12    19    1
    12    19    20    1
    13    12    13   ar
    14    13    15    1
    15    15    16    1
    16    15    17    2
    17    15    18    2
    18    13    14   ar
    19     4     5   ar
    20     5     6   ar
    21     6     7    1
    22     7     8    1
    23     8    22    1
    24    22    23   ar
    25    23    24   ar
    26    24    25   ar
    27    25    32    1
    28    32    33    1
    29    25    26   ar
    30    26    28    1
    31    28    29    1
    32    28    30    1
    33    28    31    1
    34    26    27   ar
    35     8     1    1
    36    27    22   ar
    37     6     2   ar
    38    14     9   ar
    39    20    21    1
    40    33    34    1
@<TRIPOS>MOLECULE
*****
 37 40 0 0 0
SMALL
GASTEIGER

@<TRIPOS>ATOM
      1 C           2.8199    1.0718   28.8547 C.3     1  UNL1        0.1174
      2 C           1.7502    1.4961   27.8926 C.ar    1  UNL1        0.0961
      3 N           1.4747    1.8408   26.4590 N.ar    1  UNL1       -0.1681
      4 N           0.0193    2.1826   26.3359 N.ar    1  UNL1       -0.2287
      5 C          -0.6046    2.0492   27.6934 C.ar    1  UNL1        0.0990
      6 C           0.4651    1.6249   28.6555 C.ar    1  UNL1        0.0337
      7 C           0.7406    1.2802   30.0892 C.3     1  UNL1        0.1235
      8 N           2.1960    0.9383   30.2123 N.pl3   1  UNL1       -0.2703
      9 C          -0.6879    2.5870   25.0764 C.ar    1  UNL1        0.0841
     10 C          -0.0185    2.4000   23.7472 C.ar    1  UNL1        0.0190
     11 C          -0.7258    2.8043   22.4877 C.ar    1  UNL1        0.0010
     12 C          -2.1026    3.3956   22.5575 C.ar    1  UNL1        0.0242
     13 C          -2.7721    3.5826   23.8867 C.ar    1  UNL1        0.1056
     14 C          -2.0647    3.1783   25.1461 C.ar    1  UNL1        0.0372
     15 S          -4.1488    4.1739   23.9565 S.O2    1  UNL1        0.0103
     16 C          -5.5255    4.7653   24.0263 C.3     1  UNL1        0.1816
     17 O          -3.5574    5.5111   24.2917 O.2     1  UNL1       -0.1686
     18 O          -4.7402    2.8367   23.6213 O.2     1  UNL1       -0.1686
     19 C          -2.8099    3.7999   21.2980 C.3     1  UNL1        0.1649
     20 O          -3.6937    2.8190   20.5862 O.3     1  UNL1       -0.3772
     21 H          -3.1555    2.0887   20.2428 H       1  UNL1        0.2109
     22 C           2.9032    0.5341   31.4717 C.ar    1  UNL1        0.2206
     23 N           2.8834    1.4402   32.6670 N.ar    1  UNL1       -0.2123
     24 C           3.5906    1.0359   33.9264 C.ar    1  UNL1        0.1014
     25 C           4.3177   -0.2746   33.9907 C.ar    1  UNL1        0.0479
     26 C           4.3376   -1.1807   32.7955 C.ar    1  UNL1        0.1553
     27 N           3.6303   -0.7763   31.5360 N.ar    1  UNL1       -0.2099
     28 C           5.0647   -2.4911   32.8599 C.3     1  UNL1        0.4348
     29 F           5.7917   -3.8015   32.9242 F       1  UNL1       -0.1644
     30 F           3.9014   -3.1009   33.5844 F       1  UNL1       -0.1644
     31 F           6.2279   -1.8812   32.1353 F       1  UNL1       -0.1644
     32 C           5.0250   -0.6788   35.2503 C.3     1  UNL1        0.1666
     33 O           4.3792   -0.4398   36.5828 O.3     1  UNL1       -0.3771
     34 H           4.3030    0.5146   36.7386 H       1  UNL1        0.2109
     35 C           4.6685   -0.4647   27.8690 C.3     1  UNL1        0.0021
     36 C           4.2606    0.8244   28.5183 C.3     1  UNL1        0.0241
     37 C           5.2935    1.8662   28.8313 C.3     1  UNL1        0.0021
@<TRIPOS>BOND
     1    35    36    1
     2    36    37    1
     3     1    36    1
     4     1     2    1
     5     2     3   ar
     6     3     4   ar
     7     4     9    1
     8     9    10   ar
     9    10    11   ar
    10    11    12   ar
    11    12    19    1
    12    19    20    1
    13    12    13   ar
    14    13    15    1
    15    15    16    1
    16    15    17    2
    17    15    18    2
    18    13    14   ar
    19     4     5   ar
    20     5     6   ar
    21     6     7    1
    22     7     8    1
    23     8    22    1
    24    22    23   ar
    25    23    24   ar
    26    24    25   ar
    27    25    32    1
    28    32    33    1
    29    25    26   ar
    30    26    28    1
    31    28    29    1
    32    28    30    1
    33    28    31    1
    34    26    27   ar
    35     8     1    1
    36    27    22   ar
    37     6     2   ar
    38    14     9   ar
    39    20    21    1
    40    33    34    1
@<TRIPOS>MOLECULE
*****
 37 40 0 0 0
SMALL
GASTEIGER

@<TRIPOS>ATOM
      1 C           2.7342    1.9162   29.1986 C.3     1  UNL1        0.1174
      2 C           1.7220    2.0211   28.0965 C.ar    1  UNL1        0.0961
      3 N           1.4086    2.7024   26.7975 N.ar    1  UNL1       -0.1681
      4 N           0.0843    2.1907   26.3134 N.ar    1  UNL1       -0.2287
      5 C          -0.4208    1.1931   27.3133 C.ar    1  UNL1        0.0990
      6 C           0.5914    1.0882   28.4153 C.ar    1  UNL1        0.0337
      7 C           0.9048    0.4069   29.7143 C.3     1  UNL1        0.1235
      8 N           2.2292    0.9186   30.1985 N.pl3   1  UNL1       -0.2703
      9 C          -0.6126    2.6040   25.0511 C.ar    1  UNL1        0.0841
     10 C          -2.0093    3.1480   25.1091 C.ar    1  UNL1        0.0190
     11 C          -2.7062    3.5613   23.8467 C.ar    1  UNL1        0.0010
     12 C          -2.0065    3.4306   22.5264 C.ar    1  UNL1        0.0242
     13 C          -0.6098    2.8866   22.4684 C.ar    1  UNL1        0.1056
     14 C           0.0871    2.4733   23.7308 C.ar    1  UNL1        0.0372
     15 S           0.0900    2.7559   21.1481 S.O2    1  UNL1        0.0103
     16 C           0.7898    2.6251   19.8278 C.3     1  UNL1        0.1816
     17 O          -0.5733    1.4285   20.9281 O.2     1  UNL1       -0.1686
     18 O           0.7532    4.0832   21.3681 O.2     1  UNL1       -0.1686
     19 C          -2.7034    3.8439   21.2640 C.3     1  UNL1        0.1649
     20 O          -3.4106    2.8191   20.4277 O.3     1  UNL1       -0.3772
     21 H          -2.7620    2.1989   20.0594 H       1  UNL1        0.2109
     22 C           2.9261    0.5053   31.4607 C.ar    1  UNL1        0.2206
     23 N           2.8749    1.3910   32.6703 N.ar    1  UNL1       -0.2123
     24 C           3.5718    0.9777   33.9326 C.ar    1  UNL1        0.1014
     25 C           4.3199   -0.3214   33.9854 C.ar    1  UNL1        0.0479
     26 C           4.3711   -1.2071   32.7759 C.ar    1  UNL1        0.1553
     27 N           3.6742   -0.7937   31.5136 N.ar    1  UNL1       -0.2099
     28 C           5.1192   -2.5062   32.8288 C.3     1  UNL1        0.4348
     29 F           5.8673   -3.8052   32.8817 F       1  UNL1       -0.1644
     30 F           3.9488   -3.1524   33.5090 F       1  UNL1       -0.1644
     31 F           6.2895   -1.8599   32.1487 F       1  UNL1       -0.1644
     32 C           5.0168   -0.7347   35.2478 C.3     1  UNL1        0.1666
     33 O           4.4166   -0.3981   36.5806 O.3     1  UNL1       -0.3771
     34 H           4.4180    0.5643   36.7020 H       1  UNL1        0.2109
     35 C           4.1443    3.8476   30.2141 C.3     1  UNL1        0.0021
     36 C           4.0248    2.6756   29.2855 C.3     1  UNL1        0.0241
     37 C           5.1959    2.2632   28.4439 C.3     1  UNL1        0.0021
@<TRIPOS>BOND
     1    35    36    1
     2    36    37    1
     3     1    36    1
     4     1     2    1
     5     2     3   ar
     6     3     4   ar
     7     4     9    1
     8     9    10   ar
     9    10    11   ar
    10    11    12   ar
    11    12    19    1
    12    19    20    1
    13    12    13   ar
    14    13    15    1
    15    15    16    1
    16    15    17    2
    17    15    18    2
    18    13    14   ar
    19     4     5   ar
    20     5     6   ar
    21     6     7    1
    22     7     8    1
    23     8    22    1
    24    22    23   ar
    25    23    24   ar
    26    24    25   ar
    27    25    32    1
    28    32    33    1
    29    25    26   ar
    30    26    28    1
    31    28    29    1
    32    28    30    1
    33    28    31    1
    34    26    27   ar
    35     8     1    1
    36    27    22   ar
    37     6     2   ar
    38    14     9   ar
    39    20    21    1
    40    33    34    1
@<TRIPOS>MOLECULE
*****
 37 40 0 0 0
SMALL
GASTEIGER

@<TRIPOS>ATOM
      1 C           4.3282   -2.4384   20.5171 C.3     1  UNL1        0.1174
      2 C           3.4027   -1.2595   20.4566 C.ar    1  UNL1        0.0961
      3 N           2.3590   -0.5776   19.6225 N.ar    1  UNL1       -0.1681
      4 N           1.9053    0.6479   20.3587 N.ar    1  UNL1       -0.2287
      5 C           2.6685    0.7235   21.6478 C.ar    1  UNL1        0.0990
      6 C           3.5940   -0.4554   21.7083 C.ar    1  UNL1        0.0337
      7 C           4.6377   -1.1372   22.5424 C.3     1  UNL1        0.1235
      8 N           5.0915   -2.3629   21.8062 N.pl3   1  UNL1       -0.2703
      9 C           0.8700    1.6263   19.8884 C.ar    1  UNL1        0.0841
     10 C           0.8697    2.0901   18.4619 C.ar    1  UNL1        0.0190
     11 C          -0.1656    3.0684   17.9916 C.ar    1  UNL1        0.0010
     12 C          -1.2005    3.5829   18.9478 C.ar    1  UNL1        0.0242
     13 C          -1.2002    3.1191   20.3743 C.ar    1  UNL1        0.1056
     14 C          -0.1648    2.1407   20.8445 C.ar    1  UNL1        0.0372
     15 S          -2.2350    3.6335   21.3305 S.O2    1  UNL1        0.0103
     16 C          -3.2698    4.1480   22.2868 C.3     1  UNL1        0.1816
     17 O          -1.2466    4.6269   21.8656 O.2     1  UNL1       -0.1686
     18 O          -3.2234    2.6401   20.7955 O.2     1  UNL1       -0.1686
     19 C          -2.2358    4.5612   18.4775 C.3     1  UNL1        0.1649
     20 O          -3.5962    4.0766   18.0719 O.3     1  UNL1       -0.3772
     21 H          -3.5196    3.5265   17.2767 H       1  UNL1        0.2109
     22 C           6.1267   -3.3412   22.2765 C.ar    1  UNL1        0.2206
     23 N           6.9633   -4.0857   21.2786 N.ar    1  UNL1       -0.2123
     24 C           7.9985   -5.0639   21.7489 C.ar    1  UNL1        0.1014
     25 C           8.1972   -5.2977   23.2172 C.ar    1  UNL1        0.0479
     26 C           7.3606   -4.5533   24.2152 C.ar    1  UNL1        0.1553
     27 N           6.3254   -3.5750   23.7448 N.ar    1  UNL1       -0.2099
     28 C           7.5593   -4.7871   25.6834 C.3     1  UNL1        0.4348
     29 F           7.7581   -5.0209   27.1517 F       1  UNL1       -0.1644
     30 F           8.5383   -3.6515   25.7317 F       1  UNL1       -0.1644
     31 F           6.5804   -5.9226   25.6351 F       1  UNL1       -0.1644
     32 C           9.2325   -6.2760   23.6875 C.3     1  UNL1        0.1666
     33 O           9.4458   -7.5593   22.9407 O.3     1  UNL1       -0.3771
     34 H           8.6530   -8.1130   23.0163 H       1  UNL1        0.2109
     35 C           5.3091   -3.2597   18.2559 C.3     1  UNL1        0.0021
     36 C           4.4662   -3.5056   19.4720 C.3     1  UNL1        0.0241
     37 C           3.7614   -4.8186   19.6431 C.3     1  UNL1        0.0021
@<TRIPOS>BOND
     1    35    36    1
     2    36    37    1
     3     1    36    1
     4     1     2    1
     5     2     3   ar
     6     3     4   ar
     7     4     9    1
     8     9    10   ar
     9    10    11   ar
    10    11    12   ar
    11    12    19    1
    12    19    20    1
    13    12    13   ar
    14    13    15    1
    15    15    16    1
    16    15    17    2
    17    15    18    2
    18    13    14   ar
    19     4     5   ar
    20     5     6   ar
    21     6     7    1
    22     7     8    1
    23     8    22    1
    24    22    23   ar
    25    23    24   ar
    26    24    25   ar
    27    25    32    1
    28    32    33    1
    29    25    26   ar
    30    26    28    1
    31    28    29    1
    32    28    30    1
    33    28    31    1
    34    26    27   ar
    35     8     1    1
    36    27    22   ar
    37     6     2   ar
    38    14     9   ar
    39    20    21    1
    40    33    34    1
