@<TRIPOS>MOLECULE
*****
 45 48 0 0 0
SMALL
GASTEIGER

@<TRIPOS>ATOM
      1 N           5.9767   -2.6404   19.7642 N.am    1  UNL1       -0.2724
      2 C           6.0168   -3.4317   21.0378 C.2     1  UNL1        0.2491
      3 O           4.8416   -4.2756   21.4338 O.2     1  UNL1       -0.2727
      4 C           7.1520   -1.7965   19.3682 C.3     1  UNL1        0.1111
      5 C           7.1996   -0.3481   19.7552 C.3     1  UNL1        0.0939
      6 N           6.9819    0.7130   18.7176 N.3     1  UNL1       -0.2712
      7 C           7.3928    1.3642   16.2363 C.3     1  UNL1        0.0188
      8 C           6.9821    0.3500   17.2621 C.3     1  UNL1        0.0722
      9 C           6.7639    2.1370   19.1353 C.3     1  UNL1        0.0722
     10 C           5.4480    2.8047   18.8657 C.3     1  UNL1        0.0188
     11 C           4.7615   -2.6929   18.8865 C.3     1  UNL1        0.1202
     12 C           3.7144   -1.6239   18.9905 C.ar    1  UNL1       -0.0023
     13 C           3.7019   -0.4884   18.0104 C.ar    1  UNL1       -0.0026
     14 C           2.6548    0.5806   18.1145 C.ar    1  UNL1       -0.0003
     15 C           1.6202    0.5141   19.1985 C.ar    1  UNL1       -0.0000
     16 C           1.6327   -0.6214   20.1786 C.ar    1  UNL1       -0.0003
     17 C           2.6798   -1.6904   20.0745 C.ar    1  UNL1       -0.0026
     18 C           0.5731    1.5831   19.3025 C.ar    1  UNL1       -0.0000
     19 C           0.3632    2.5404   18.1670 C.ar    1  UNL1       -0.0001
     20 C          -0.6839    3.6095   18.2710 C.ar    1  UNL1        0.0039
     21 C          -1.5211    3.7212   19.5106 C.ar    1  UNL1        0.0714
     22 C          -1.3112    2.7638   20.6462 C.ar    1  UNL1        0.0039
     23 C          -0.2641    1.6948   20.5421 C.ar    1  UNL1       -0.0001
     24 C          -2.5682    4.7902   19.6146 C.3     1  UNL1        0.4186
     25 F          -3.6152    5.8591   19.7186 F       1  UNL1       -0.1659
     26 F          -3.0363    4.2051   20.9140 F       1  UNL1       -0.1659
     27 F          -2.1000    5.3752   18.3152 F       1  UNL1       -0.1659
     28 C           7.2321   -3.3791   21.9156 C.3     1  UNL1        0.1934
     29 N           7.2583   -4.1420   23.2068 N.ar    1  UNL1       -0.2979
     30 C           7.8768   -5.5076   23.2587 C.ar    1  UNL1        0.0782
     31 C           7.9029   -6.2706   24.5499 C.ar    1  UNL1        0.0532
     32 C           8.5214   -7.6361   24.6018 C.3     1  UNL1        0.0377
     33 C           7.3106   -5.6679   25.7893 C.ar    1  UNL1        0.2783
     34 O           7.3367   -6.4308   27.0805 O.2     1  UNL1       -0.2654
     35 N           6.6921   -4.3023   25.7373 N.ar    1  UNL1       -0.1847
     36 C           6.6659   -3.5394   24.4461 C.ar    1  UNL1        0.1750
     37 S           6.0475   -2.1739   24.3942 S.3     1  UNL1       -0.0724
     38 C           4.5766   -2.0258   24.1393 C.3     1  UNL1        0.0913
     39 C           4.0406   -0.7507   23.5592 C.ar    1  UNL1       -0.0108
     40 C           2.6989   -0.2366   23.9900 C.ar    1  UNL1       -0.0011
     41 C           2.1628    1.0386   23.4099 C.ar    1  UNL1        0.0293
     42 C           2.9684    1.7997   22.3991 C.ar    1  UNL1        0.1401
     43 F           2.4323    3.0749   21.8190 F       1  UNL1       -0.2042
     44 C           4.3101    1.2855   21.9683 C.ar    1  UNL1        0.0293
     45 C           4.8462    0.0104   22.5484 C.ar    1  UNL1       -0.0011
@<TRIPOS>BOND
     1     7     8    1
     2     8     6    1
     3     6     9    1
     4     9    10    1
     5     6     5    1
     6     5     4    1
     7     4     1    1
     8     1    11    1
     9    11    12    1
    10    12    13   ar
    11    13    14   ar
    12    14    15   ar
    13    15    18    1
    14    18    19   ar
    15    19    20   ar
    16    20    21   ar
    17    21    24    1
    18    24    25    1
    19    24    26    1
    20    24    27    1
    21    21    22   ar
    22    22    23   ar
    23    15    16   ar
    24    16    17   ar
    25     1     2   am
    26     2     3    2
    27     2    28    1
    28    28    29    1
    29    29    30   ar
    30    30    31   ar
    31    31    32    1
    32    31    33   ar
    33    33    34    2
    34    33    35   ar
    35    35    36   ar
    36    36    37    1
    37    37    38    1
    38    38    39    1
    39    39    40   ar
    40    40    41   ar
    41    41    42   ar
    42    42    43    1
    43    42    44   ar
    44    44    45   ar
    45    17    12   ar
    46    36    29   ar
    47    45    39   ar
    48    23    18   ar
@<TRIPOS>MOLECULE
*****
 45 48 0 0 0
SMALL
GASTEIGER

@<TRIPOS>ATOM
      1 N           2.8645    1.3854   29.8032 N.am    1  UNL1       -0.2724
      2 C           3.6512    0.4989   30.7226 C.2     1  UNL1        0.2491
      3 O           5.0863    0.1871   30.4177 O.2     1  UNL1       -0.2727
      4 C           1.4293    1.6972   30.1082 C.3     1  UNL1        0.1111
      5 C           0.5370    2.2475   29.0354 C.3     1  UNL1        0.0939
      6 N          -0.0044    1.3394   27.9713 N.3     1  UNL1       -0.2712
      7 C           0.1199    1.1440   25.3835 C.3     1  UNL1        0.0188
      8 C          -0.3226    1.8846   26.6106 C.3     1  UNL1        0.0722
      9 C          -0.2275   -0.1140   28.2679 C.3     1  UNL1        0.0722
     10 C          -1.5104   -0.5613   28.9038 C.3     1  UNL1        0.0188
     11 C           3.5130    1.9600   28.5788 C.3     1  UNL1        0.1202
     12 C           3.6161    1.1375   27.3285 C.ar    1  UNL1       -0.0023
     13 C           3.5576   -0.3592   27.4085 C.ar    1  UNL1       -0.0026
     14 C           3.6607   -1.1816   26.1583 C.ar    1  UNL1       -0.0003
     15 C           3.8223   -0.5073   24.8282 C.ar    1  UNL1       -0.0000
     16 C           3.8807    0.9894   24.7482 C.ar    1  UNL1       -0.0003
     17 C           3.7777    1.8118   25.9984 C.ar    1  UNL1       -0.0026
     18 C           3.9254   -1.3298   23.5780 C.ar    1  UNL1       -0.0000
     19 C           3.2967   -0.8431   22.3061 C.ar    1  UNL1       -0.0001
     20 C           3.3997   -1.6655   21.0558 C.ar    1  UNL1        0.0039
     21 C           4.1316   -2.9747   21.0776 C.ar    1  UNL1        0.0714
     22 C           4.7603   -3.4614   22.3496 C.ar    1  UNL1        0.0039
     23 C           4.6572   -2.6390   23.5997 C.ar    1  UNL1       -0.0001
     24 C           4.2347   -3.7972   19.8275 C.3     1  UNL1        0.4186
     25 F           4.3378   -4.6197   18.5774 F       1  UNL1       -0.1659
     26 F           2.8561   -3.3620   19.4274 F       1  UNL1       -0.1659
     27 F           5.6132   -4.2324   20.2275 F       1  UNL1       -0.1659
     28 C           3.0026   -0.0757   31.9471 C.3     1  UNL1        0.1934
     29 N           3.5537    0.2401   33.3060 N.ar    1  UNL1       -0.2979
     30 C           3.1738    1.5196   33.9906 C.ar    1  UNL1        0.0782
     31 C           3.7250    1.8353   35.3495 C.ar    1  UNL1        0.0532
     32 C           3.3452    3.1147   36.0342 C.3     1  UNL1        0.0377
     33 C           4.6560    0.8716   36.0237 C.ar    1  UNL1        0.2783
     34 O           5.2072    1.1873   37.3826 O.2     1  UNL1       -0.2654
     35 N           5.0358   -0.4078   35.3391 N.ar    1  UNL1       -0.1847
     36 C           4.4847   -0.7236   33.9802 C.ar    1  UNL1        0.1750
     37 S           4.8645   -2.0030   33.2955 S.3     1  UNL1       -0.0724
     38 C           6.2209   -2.1455   32.6711 C.3     1  UNL1        0.0913
     39 C           6.4699   -3.2210   31.6556 C.ar    1  UNL1       -0.0108
     40 C           6.7730   -4.6199   32.1038 C.ar    1  UNL1       -0.0011
     41 C           7.0220   -5.6955   31.0883 C.ar    1  UNL1        0.0293
     42 C           6.9678   -5.3720   29.6246 C.ar    1  UNL1        0.1401
     43 F           7.2167   -6.4475   28.6091 F       1  UNL1       -0.2042
     44 C           6.6646   -3.9730   29.1764 C.ar    1  UNL1        0.0293
     45 C           6.4157   -2.8975   30.1919 C.ar    1  UNL1       -0.0011
@<TRIPOS>BOND
     1     7     8    1
     2     8     6    1
     3     6     9    1
     4     9    10    1
     5     6     5    1
     6     5     4    1
     7     4     1    1
     8     1    11    1
     9    11    12    1
    10    12    13   ar
    11    13    14   ar
    12    14    15   ar
    13    15    18    1
    14    18    19   ar
    15    19    20   ar
    16    20    21   ar
    17    21    24    1
    18    24    25    1
    19    24    26    1
    20    24    27    1
    21    21    22   ar
    22    22    23   ar
    23    15    16   ar
    24    16    17   ar
    25     1     2   am
    26     2     3    2
    27     2    28    1
    28    28    29    1
    29    29    30   ar
    30    30    31   ar
    31    31    32    1
    32    31    33   ar
    33    33    34    2
    34    33    35   ar
    35    35    36   ar
    36    36    37    1
    37    37    38    1
    38    38    39    1
    39    39    40   ar
    40    40    41   ar
    41    41    42   ar
    42    42    43    1
    43    42    44   ar
    44    44    45   ar
    45    17    12   ar
    46    36    29   ar
    47    45    39   ar
    48    23    18   ar
@<TRIPOS>MOLECULE
*****
 45 48 0 0 0
SMALL
GASTEIGER

@<TRIPOS>ATOM
      1 N           3.4300    0.2820   26.7905 N.am    1  UNL1       -0.2724
      2 C           4.4055   -0.2557   25.7859 C.2     1  UNL1        0.2491
      3 O           5.0244    0.6636   24.7750 O.2     1  UNL1       -0.2727
      4 C           2.8112   -0.6374   27.8014 C.3     1  UNL1        0.1111
      5 C           2.4890   -0.1322   29.1765 C.3     1  UNL1        0.0939
      6 N           1.1133    0.3808   29.4837 N.3     1  UNL1       -0.2712
      7 C          -1.3714    0.5161   28.7368 C.3     1  UNL1        0.0188
      8 C          -0.0839   -0.2473   28.8338 C.3     1  UNL1        0.0722
      9 C           0.9348    1.5218   30.4409 C.3     1  UNL1        0.0722
     10 C           2.1242    2.0996   31.1493 C.3     1  UNL1        0.0188
     11 C           3.0733    1.7389   26.7843 C.3     1  UNL1        0.1202
     12 C           1.6684    2.1658   26.4776 C.ar    1  UNL1       -0.0023
     13 C           1.0304    3.2695   27.2680 C.ar    1  UNL1       -0.0026
     14 C          -0.3745    3.6963   26.9613 C.ar    1  UNL1       -0.0003
     15 C          -1.1414    3.0194   25.8642 C.ar    1  UNL1       -0.0000
     16 C          -0.5034    1.9158   25.0737 C.ar    1  UNL1       -0.0003
     17 C           0.9014    1.4889   25.3804 C.ar    1  UNL1       -0.0026
     18 C          -2.5463    3.4463   25.5575 C.ar    1  UNL1       -0.0000
     19 C          -3.0801    3.3220   24.1613 C.ar    1  UNL1       -0.0001
     20 C          -4.4850    3.7489   23.8546 C.ar    1  UNL1        0.0039
     21 C          -5.3561    4.3001   24.9442 C.ar    1  UNL1        0.0714
     22 C          -4.8223    4.4245   26.3405 C.ar    1  UNL1        0.0039
     23 C          -3.4174    3.9976   26.6471 C.ar    1  UNL1       -0.0001
     24 C          -6.7610    4.7270   24.6376 C.3     1  UNL1        0.4186
     25 F          -8.1659    5.1539   24.3310 F       1  UNL1       -0.1659
     26 F          -6.8179    5.4733   25.9375 F       1  UNL1       -0.1659
     27 F          -6.7040    3.9808   23.3377 F       1  UNL1       -0.1659
     28 C           4.7623   -1.7127   25.7922 C.3     1  UNL1        0.1934
     29 N           5.1515   -2.3950   24.5143 N.ar    1  UNL1       -0.2979
     30 C           4.3534   -2.1612   23.2659 C.ar    1  UNL1        0.0782
     31 C           4.7426   -2.8435   21.9881 C.ar    1  UNL1        0.0532
     32 C           3.9446   -2.6097   20.7397 C.3     1  UNL1        0.0377
     33 C           5.9300   -3.7597   21.9586 C.ar    1  UNL1        0.2783
     34 O           6.3192   -4.4421   20.6808 O.2     1  UNL1       -0.2654
     35 N           6.7280   -3.9935   23.2069 N.ar    1  UNL1       -0.1847
     36 C           6.3388   -3.3112   24.4848 C.ar    1  UNL1        0.1750
     37 S           7.1368   -3.5450   25.7331 S.3     1  UNL1       -0.0724
     38 C           6.8128   -4.7079   26.6237 C.3     1  UNL1        0.0913
     39 C           6.7814   -4.5265   28.1123 C.ar    1  UNL1       -0.0108
     40 C           7.0254   -5.6987   29.0159 C.ar    1  UNL1       -0.0011
     41 C           6.9940   -5.5174   30.5046 C.ar    1  UNL1        0.0293
     42 C           6.7185   -4.1640   31.0897 C.ar    1  UNL1        0.1401
     43 F           6.6870   -3.9826   32.5783 F       1  UNL1       -0.2042
     44 C           6.4744   -2.9918   30.1860 C.ar    1  UNL1        0.0293
     45 C           6.5059   -3.1731   28.6974 C.ar    1  UNL1       -0.0011
@<TRIPOS>BOND
     1     7     8    1
     2     8     6    1
     3     6     9    1
     4     9    10    1
     5     6     5    1
     6     5     4    1
     7     4     1    1
     8     1    11    1
     9    11    12    1
    10    12    13   ar
    11    13    14   ar
    12    14    15   ar
    13    15    18    1
    14    18    19   ar
    15    19    20   ar
    16    20    21   ar
    17    21    24    1
    18    24    25    1
    19    24    26    1
    20    24    27    1
    21    21    22   ar
    22    22    23   ar
    23    15    16   ar
    24    16    17   ar
    25     1     2   am
    26     2     3    2
    27     2    28    1
    28    28    29    1
    29    29    30   ar
    30    30    31   ar
    31    31    32    1
    32    31    33   ar
    33    33    34    2
    34    33    35   ar
    35    35    36   ar
    36    36    37    1
    37    37    38    1
    38    38    39    1
    39    39    40   ar
    40    40    41   ar
    41    41    42   ar
    42    42    43    1
    43    42    44   ar
    44    44    45   ar
    45    17    12   ar
    46    36    29   ar
    47    45    39   ar
    48    23    18   ar
@<TRIPOS>MOLECULE
*****
 45 48 0 0 0
SMALL
GASTEIGER

@<TRIPOS>ATOM
      1 N           2.8833    1.6102   28.8904 N.am    1  UNL1       -0.2724
      2 C           3.3955    0.8486   30.0769 C.2     1  UNL1        0.2491
      3 O           4.8317    0.4191   30.1295 O.2     1  UNL1       -0.2727
      4 C           1.4470    2.0396   28.8379 C.3     1  UNL1        0.1111
      5 C           0.6044    1.6952   27.6457 C.3     1  UNL1        0.0939
      6 N          -0.8916    1.7184   27.7529 N.3     1  UNL1       -0.2712
      7 C          -1.2121   -0.6579   28.7532 C.3     1  UNL1        0.0188
      8 C          -1.5898    0.7929   28.7048 C.3     1  UNL1        0.0722
      9 C          -1.6894    2.6670   26.9081 C.3     1  UNL1        0.0722
     10 C          -1.4251    2.7630   25.4346 C.3     1  UNL1        0.0188
     11 C           3.8074    1.9424   27.7566 C.3     1  UNL1        0.1202
     12 C           3.8829    1.0392   26.5613 C.ar    1  UNL1       -0.0023
     13 C           3.9536    1.6247   25.1821 C.ar    1  UNL1       -0.0026
     14 C           4.0291    0.7216   23.9869 C.ar    1  UNL1       -0.0003
     15 C           4.0339   -0.7671   24.1709 C.ar    1  UNL1       -0.0000
     16 C           3.9632   -1.3526   25.5500 C.ar    1  UNL1       -0.0003
     17 C           3.8877   -0.4495   26.7452 C.ar    1  UNL1       -0.0026
     18 C           4.1094   -1.6703   22.9756 C.ar    1  UNL1       -0.0000
     19 C           3.6026   -1.1977   21.6453 C.ar    1  UNL1       -0.0001
     20 C           3.6781   -2.1008   20.4499 C.ar    1  UNL1        0.0039
     21 C           4.2603   -3.4766   20.5851 C.ar    1  UNL1        0.0714
     22 C           4.7671   -3.9492   21.9155 C.ar    1  UNL1        0.0039
     23 C           4.6916   -3.0460   23.1107 C.ar    1  UNL1       -0.0001
     24 C           4.3359   -4.3797   19.3898 C.3     1  UNL1        0.4186
     25 F           4.4114   -5.2829   18.1946 F       1  UNL1       -0.1659
     26 F           2.8724   -4.1686   19.1379 F       1  UNL1       -0.1659
     27 F           5.7994   -4.5909   19.6418 F       1  UNL1       -0.1659
     28 C           2.4713    0.5164   31.2108 C.3     1  UNL1        0.1934
     29 N           2.4997    1.3366   32.4663 N.ar    1  UNL1       -0.2979
     30 C           1.7033    2.6049   32.5518 C.ar    1  UNL1        0.0782
     31 C           1.7317    3.4251   33.8074 C.ar    1  UNL1        0.0532
     32 C           0.9353    4.6933   33.8929 C.3     1  UNL1        0.0377
     33 C           2.5564    2.9770   34.9775 C.ar    1  UNL1        0.2783
     34 O           2.5848    3.7972   36.2331 O.2     1  UNL1       -0.2654
     35 N           3.3527    1.7087   34.8920 N.ar    1  UNL1       -0.1847
     36 C           3.3244    0.8885   33.6364 C.ar    1  UNL1        0.1750
     37 S           4.1207   -0.3797   33.5509 S.3     1  UNL1       -0.0724
     38 C           5.6181   -0.3317   33.6261 C.3     1  UNL1        0.0913
     39 C           6.4345   -1.4468   33.0432 C.ar    1  UNL1       -0.0108
     40 C           7.9303   -1.3416   33.0071 C.ar    1  UNL1       -0.0011
     41 C           8.7468   -2.4568   32.4241 C.ar    1  UNL1        0.0293
     42 C           8.0674   -3.6772   31.8773 C.ar    1  UNL1        0.1401
     43 F           8.8838   -4.7924   31.2944 F       1  UNL1       -0.2042
     44 C           6.5715   -3.7824   31.9134 C.ar    1  UNL1        0.0293
     45 C           5.7551   -2.6672   32.4964 C.ar    1  UNL1       -0.0011
@<TRIPOS>BOND
     1     7     8    1
     2     8     6    1
     3     6     9    1
     4     9    10    1
     5     6     5    1
     6     5     4    1
     7     4     1    1
     8     1    11    1
     9    11    12    1
    10    12    13   ar
    11    13    14   ar
    12    14    15   ar
    13    15    18    1
    14    18    19   ar
    15    19    20   ar
    16    20    21   ar
    17    21    24    1
    18    24    25    1
    19    24    26    1
    20    24    27    1
    21    21    22   ar
    22    22    23   ar
    23    15    16   ar
    24    16    17   ar
    25     1     2   am
    26     2     3    2
    27     2    28    1
    28    28    29    1
    29    29    30   ar
    30    30    31   ar
    31    31    32    1
    32    31    33   ar
    33    33    34    2
    34    33    35   ar
    35    35    36   ar
    36    36    37    1
    37    37    38    1
    38    38    39    1
    39    39    40   ar
    40    40    41   ar
    41    41    42   ar
    42    42    43    1
    43    42    44   ar
    44    44    45   ar
    45    17    12   ar
    46    36    29   ar
    47    45    39   ar
    48    23    18   ar
@<TRIPOS>MOLECULE
*****
 45 48 0 0 0
SMALL
GASTEIGER

@<TRIPOS>ATOM
      1 N           7.5839   -3.1419   29.2139 N.am    1  UNL1       -0.2724
      2 C           6.7578   -4.0746   28.3787 C.2     1  UNL1        0.2491
      3 O           6.1575   -5.3024   28.9967 O.2     1  UNL1       -0.2727
      4 C           8.1842   -1.9140   28.5959 C.3     1  UNL1        0.1111
      5 C           7.4716   -0.5980   28.6979 C.3     1  UNL1        0.0939
      6 N           6.0338   -0.4897   28.2845 N.3     1  UNL1       -0.2712
      7 C           4.7905    0.3497   30.4058 C.3     1  UNL1        0.0188
      8 C           4.9457   -0.6559   29.3037 C.3     1  UNL1        0.0722
      9 C           5.6839   -0.2153   26.8519 C.3     1  UNL1        0.0722
     10 C           4.2563    0.0305   26.4624 C.3     1  UNL1        0.0188
     11 C           7.8097   -3.4370   30.6671 C.3     1  UNL1        0.1202
     12 C           7.1273   -2.6092   31.7155 C.ar    1  UNL1       -0.0023
     13 C           7.8443   -1.4484   32.3388 C.ar    1  UNL1       -0.0026
     14 C           7.1618   -0.6206   33.3871 C.ar    1  UNL1       -0.0003
     15 C           5.7624   -0.9536   33.8121 C.ar    1  UNL1       -0.0000
     16 C           5.0454   -2.1143   33.1889 C.ar    1  UNL1       -0.0003
     17 C           5.7278   -2.9421   32.1406 C.ar    1  UNL1       -0.0026
     18 C           5.0800   -0.1257   34.8605 C.ar    1  UNL1       -0.0000
     19 C           5.4437   -0.2969   36.3056 C.ar    1  UNL1       -0.0001
     20 C           4.7613    0.5310   37.3540 C.ar    1  UNL1        0.0039
     21 C           3.7151    1.5300   36.9572 C.ar    1  UNL1        0.0714
     22 C           3.3513    1.7011   35.5120 C.ar    1  UNL1        0.0039
     23 C           4.0338    0.8733   34.4637 C.ar    1  UNL1       -0.0001
     24 C           3.0327    2.3578   38.0054 C.3     1  UNL1        0.4186
     25 F           2.3503    3.1857   39.0537 F       1  UNL1       -0.1659
     26 F           3.9327    1.7730   39.0532 F       1  UNL1       -0.1659
     27 F           2.1326    2.9426   36.9577 F       1  UNL1       -0.1659
     28 C           6.5319   -3.7794   26.9255 C.3     1  UNL1        0.1934
     29 N           7.0888   -4.6977   25.8783 N.ar    1  UNL1       -0.2979
     30 C           7.9219   -5.8780   26.2820 C.ar    1  UNL1        0.0782
     31 C           8.4787   -6.7963   25.2348 C.ar    1  UNL1        0.0532
     32 C           9.3117   -7.9766   25.6385 C.3     1  UNL1        0.0377
     33 C           8.2026   -6.5343   23.7839 C.ar    1  UNL1        0.2783
     34 O           8.7595   -7.4526   22.7367 O.2     1  UNL1       -0.2654
     35 N           7.3697   -5.3540   23.3802 N.ar    1  UNL1       -0.1847
     36 C           6.8128   -4.4357   24.4274 C.ar    1  UNL1        0.1750
     37 S           5.9798   -3.2554   24.0237 S.3     1  UNL1       -0.0724
     38 C           6.0649   -2.7206   22.6248 C.3     1  UNL1        0.0913
     39 C           4.8289   -2.2238   21.9353 C.ar    1  UNL1       -0.0108
     40 C           3.9230   -1.2503   22.6292 C.ar    1  UNL1       -0.0011
     41 C           2.6869   -0.7534   21.9397 C.ar    1  UNL1        0.0293
     42 C           2.3568   -1.2301   20.5563 C.ar    1  UNL1        0.1401
     43 F           1.1209   -0.7333   19.8668 F       1  UNL1       -0.2042
     44 C           3.2628   -2.2037   19.8624 C.ar    1  UNL1        0.0293
     45 C           4.4988   -2.7005   20.5519 C.ar    1  UNL1       -0.0011
@<TRIPOS>BOND
     1     7     8    1
     2     8     6    1
     3     6     9    1
     4     9    10    1
     5     6     5    1
     6     5     4    1
     7     4     1    1
     8     1    11    1
     9    11    12    1
    10    12    13   ar
    11    13    14   ar
    12    14    15   ar
    13    15    18    1
    14    18    19   ar
    15    19    20   ar
    16    20    21   ar
    17    21    24    1
    18    24    25    1
    19    24    26    1
    20    24    27    1
    21    21    22   ar
    22    22    23   ar
    23    15    16   ar
    24    16    17   ar
    25     1     2   am
    26     2     3    2
    27     2    28    1
    28    28    29    1
    29    29    30   ar
    30    30    31   ar
    31    31    32    1
    32    31    33   ar
    33    33    34    2
    34    33    35   ar
    35    35    36   ar
    36    36    37    1
    37    37    38    1
    38    38    39    1
    39    39    40   ar
    40    40    41   ar
    41    41    42   ar
    42    42    43    1
    43    42    44   ar
    44    44    45   ar
    45    17    12   ar
    46    36    29   ar
    47    45    39   ar
    48    23    18   ar
@<TRIPOS>MOLECULE
*****
 45 48 0 0 0
SMALL
GASTEIGER

@<TRIPOS>ATOM
      1 N           4.0024   -0.0554   29.4642 N.am    1  UNL1       -0.2724
      2 C           4.2792   -0.9831   28.3184 C.2     1  UNL1        0.2491
      3 O           3.1471   -1.6966   27.6407 O.2     1  UNL1       -0.2727
      4 C           5.1345    0.6581   30.1418 C.3     1  UNL1        0.1111
      5 C           5.7854    0.0540   31.3507 C.3     1  UNL1        0.0939
      6 N           5.1852   -1.1584   31.9985 N.3     1  UNL1       -0.2712
      7 C           4.7023   -0.9290   34.5410 C.3     1  UNL1        0.0188
      8 C           4.2088   -1.0003   33.1263 C.3     1  UNL1        0.0722
      9 C           5.5612   -2.5289   31.5186 C.3     1  UNL1        0.0722
     10 C           6.4903   -3.3799   32.3327 C.3     1  UNL1        0.0188
     11 C           2.5935    0.1587   29.9323 C.3     1  UNL1        0.1202
     12 C           1.5911    0.8053   29.0228 C.ar    1  UNL1       -0.0023
     13 C           1.9286    2.0910   28.3278 C.ar    1  UNL1       -0.0026
     14 C           0.9262    2.7376   27.4184 C.ar    1  UNL1       -0.0003
     15 C          -0.4138    2.0984   27.2039 C.ar    1  UNL1       -0.0000
     16 C          -0.7513    0.8127   27.8989 C.ar    1  UNL1       -0.0003
     17 C           0.2511    0.1661   28.8083 C.ar    1  UNL1       -0.0026
     18 C          -1.4162    2.7450   26.2944 C.ar    1  UNL1       -0.0000
     19 C          -1.1214    2.8825   24.8302 C.ar    1  UNL1       -0.0001
     20 C          -2.1238    3.5291   23.9207 C.ar    1  UNL1        0.0039
     21 C          -3.4211    4.0382   24.4756 C.ar    1  UNL1        0.0714
     22 C          -3.7159    3.9007   25.9399 C.ar    1  UNL1        0.0039
     23 C          -2.7135    3.2541   26.8493 C.ar    1  UNL1       -0.0001
     24 C          -4.4235    4.6847   23.5662 C.3     1  UNL1        0.4186
     25 F          -5.4259    5.3313   22.6568 F       1  UNL1       -0.1659
     26 F          -3.6717    5.9794   23.6579 F       1  UNL1       -0.1659
     27 F          -5.1754    3.3900   23.4744 F       1  UNL1       -0.1659
     28 C           5.6882   -1.1972   27.8503 C.3     1  UNL1        0.1934
     29 N           6.1219   -2.5510   27.3719 N.ar    1  UNL1       -0.2979
     30 C           6.5104   -3.6078   28.3631 C.ar    1  UNL1        0.0782
     31 C           6.9442   -4.9617   27.8847 C.ar    1  UNL1        0.0532
     32 C           7.3326   -6.0184   28.8759 C.3     1  UNL1        0.0377
     33 C           6.9895   -5.2588   26.4151 C.ar    1  UNL1        0.2783
     34 O           7.4233   -6.6127   25.9367 O.2     1  UNL1       -0.2654
     35 N           6.6011   -4.2021   25.4239 N.ar    1  UNL1       -0.1847
     36 C           6.1673   -2.8482   25.9023 C.ar    1  UNL1        0.1750
     37 S           5.7789   -1.7915   24.9112 S.3     1  UNL1       -0.0724
     38 C           4.3947   -1.7776   24.3334 C.3     1  UNL1        0.0913
     39 C           4.1747   -2.1744   22.9037 C.ar    1  UNL1       -0.0108
     40 C           4.6714   -3.5002   22.4084 C.ar    1  UNL1       -0.0011
     41 C           4.4515   -3.8971   20.9787 C.ar    1  UNL1        0.0293
     42 C           3.7348   -2.9680   20.0442 C.ar    1  UNL1        0.1401
     43 F           3.5148   -3.3648   18.6145 F       1  UNL1       -0.2042
     44 C           3.2381   -1.6421   20.5395 C.ar    1  UNL1        0.0293
     45 C           3.4580   -1.2453   21.9692 C.ar    1  UNL1       -0.0011
@<TRIPOS>BOND
     1     7     8    1
     2     8     6    1
     3     6     9    1
     4     9    10    1
     5     6     5    1
     6     5     4    1
     7     4     1    1
     8     1    11    1
     9    11    12    1
    10    12    13   ar
    11    13    14   ar
    12    14    15   ar
    13    15    18    1
    14    18    19   ar
    15    19    20   ar
    16    20    21   ar
    17    21    24    1
    18    24    25    1
    19    24    26    1
    20    24    27    1
    21    21    22   ar
    22    22    23   ar
    23    15    16   ar
    24    16    17   ar
    25     1     2   am
    26     2     3    2
    27     2    28    1
    28    28    29    1
    29    29    30   ar
    30    30    31   ar
    31    31    32    1
    32    31    33   ar
    33    33    34    2
    34    33    35   ar
    35    35    36   ar
    36    36    37    1
    37    37    38    1
    38    38    39    1
    39    39    40   ar
    40    40    41   ar
    41    41    42   ar
    42    42    43    1
    43    42    44   ar
    44    44    45   ar
    45    17    12   ar
    46    36    29   ar
    47    45    39   ar
    48    23    18   ar
@<TRIPOS>MOLECULE
*****
 45 48 0 0 0
SMALL
GASTEIGER

@<TRIPOS>ATOM
      1 N           0.2967    2.8912   19.0907 N.am    1  UNL1       -0.2724
      2 C          -0.4833    2.7126   20.3594 C.2     1  UNL1        0.2491
      3 O          -0.8800    1.3376   20.8088 O.2     1  UNL1       -0.2727
      4 C           0.6933    4.2663   18.6413 C.3     1  UNL1        0.1111
      5 C           2.0668    4.5077   18.0889 C.3     1  UNL1        0.0939
      6 N           3.1959    4.8573   19.0124 N.3     1  UNL1       -0.2712
      7 C           3.0789    6.7564   20.7815 C.3     1  UNL1        0.0188
      8 C           2.9064    5.3130   20.4120 C.3     1  UNL1        0.0722
      9 C           4.6144    4.7513   18.5365 C.3     1  UNL1        0.0722
     10 C           5.5278    3.7175   19.1255 C.3     1  UNL1        0.0188
     11 C           0.6800    1.6947   18.2713 C.3     1  UNL1        0.1202
     12 C           1.7662    0.7762   18.7475 C.ar    1  UNL1       -0.0023
     13 C           3.1788    0.9834   18.2876 C.ar    1  UNL1       -0.0026
     14 C           4.2648    0.0649   18.7638 C.ar    1  UNL1       -0.0003
     15 C           3.9384   -1.0606   19.7000 C.ar    1  UNL1       -0.0000
     16 C           2.5258   -1.2678   20.1600 C.ar    1  UNL1       -0.0003
     17 C           1.4397   -0.3493   19.6838 C.ar    1  UNL1       -0.0026
     18 C           5.0245   -1.9791   20.1763 C.ar    1  UNL1       -0.0000
     19 C           6.3104   -2.0802   19.4107 C.ar    1  UNL1       -0.0001
     20 C           7.3966   -2.9987   19.8869 C.ar    1  UNL1        0.0039
     21 C           7.1968   -3.8159   21.1288 C.ar    1  UNL1        0.0714
     22 C           5.9108   -3.7147   21.8944 C.ar    1  UNL1        0.0039
     23 C           4.8247   -2.7963   21.4181 C.ar    1  UNL1       -0.0001
     24 C           8.2829   -4.7343   21.6050 C.3     1  UNL1        0.4186
     25 F           9.3690   -5.6527   22.0813 F       1  UNL1       -0.1659
     26 F           7.4978   -5.0163   22.8516 F       1  UNL1       -0.1659
     27 F           9.0680   -4.4524   20.3584 F       1  UNL1       -0.1659
     28 C          -0.8666    3.9092   21.1788 C.3     1  UNL1        0.1934
     29 N          -1.9179    3.7849   22.2415 N.ar    1  UNL1       -0.2979
     30 C          -3.3586    4.0312   21.9038 C.ar    1  UNL1        0.0782
     31 C          -4.4099    3.9069   22.9665 C.ar    1  UNL1        0.0532
     32 C          -5.8504    4.1531   22.6288 C.3     1  UNL1        0.0377
     33 C          -4.0205    3.5363   24.3669 C.ar    1  UNL1        0.2783
     34 O          -5.0718    3.4120   25.4297 O.2     1  UNL1       -0.2654
     35 N          -2.5799    3.2900   24.7046 N.ar    1  UNL1       -0.1847
     36 C          -1.5287    3.4143   23.6419 C.ar    1  UNL1        0.1750
     37 S          -0.0881    3.1681   23.9796 S.3     1  UNL1       -0.0724
     38 C           0.4340    1.7641   24.0600 C.3     1  UNL1        0.0913
     39 C           1.8159    1.4486   23.5694 C.ar    1  UNL1       -0.0108
     40 C           2.5896    0.3191   24.1821 C.ar    1  UNL1       -0.0011
     41 C           3.9716    0.0035   23.6914 C.ar    1  UNL1        0.0293
     42 C           4.5798    0.8175   22.5881 C.ar    1  UNL1        0.1401
     43 F           5.9617    0.5020   22.0974 F       1  UNL1       -0.2042
     44 C           3.8060    1.9471   21.9753 C.ar    1  UNL1        0.0293
     45 C           2.4241    2.2626   22.4660 C.ar    1  UNL1       -0.0011
@<TRIPOS>BOND
     1     7     8    1
     2     8     6    1
     3     6     9    1
     4     9    10    1
     5     6     5    1
     6     5     4    1
     7     4     1    1
     8     1    11    1
     9    11    12    1
    10    12    13   ar
    11    13    14   ar
    12    14    15   ar
    13    15    18    1
    14    18    19   ar
    15    19    20   ar
    16    20    21   ar
    17    21    24    1
    18    24    25    1
    19    24    26    1
    20    24    27    1
    21    21    22   ar
    22    22    23   ar
    23    15    16   ar
    24    16    17   ar
    25     1     2   am
    26     2     3    2
    27     2    28    1
    28    28    29    1
    29    29    30   ar
    30    30    31   ar
    31    31    32    1
    32    31    33   ar
    33    33    34    2
    34    33    35   ar
    35    35    36   ar
    36    36    37    1
    37    37    38    1
    38    38    39    1
    39    39    40   ar
    40    40    41   ar
    41    41    42   ar
    42    42    43    1
    43    42    44   ar
    44    44    45   ar
    45    17    12   ar
    46    36    29   ar
    47    45    39   ar
    48    23    18   ar
@<TRIPOS>MOLECULE
*****
 45 48 0 0 0
SMALL
GASTEIGER

@<TRIPOS>ATOM
      1 N          -0.9644    2.5650   25.0019 N.am    1  UNL1       -0.2724
      2 C          -1.4366    3.6576   24.0890 C.2     1  UNL1        0.2491
      3 O          -2.4574    4.6467   24.5683 O.2     1  UNL1       -0.2727
      4 C           0.0563    1.5759   24.5224 C.3     1  UNL1        0.1111
      5 C           1.5178    1.8535   24.7148 C.3     1  UNL1        0.0939
      6 N           2.4434    0.7473   25.1264 N.3     1  UNL1       -0.2712
      7 C           3.3178   -0.6084   27.1630 C.3     1  UNL1        0.0188
      8 C           2.9910    0.7079   26.5224 C.3     1  UNL1        0.0722
      9 C           2.8215   -0.3195   24.1421 C.3     1  UNL1        0.0722
     10 C           3.6749    0.0221   22.9567 C.3     1  UNL1        0.0188
     11 C          -1.5130    2.4616   26.3941 C.3     1  UNL1        0.1202
     12 C          -0.6223    2.0291   27.5209 C.ar    1  UNL1       -0.0023
     13 C           0.3039    3.0168   28.1663 C.ar    1  UNL1       -0.0026
     14 C           1.1945    2.5843   29.2931 C.ar    1  UNL1       -0.0003
     15 C           1.1590    1.1641   29.7745 C.ar    1  UNL1       -0.0000
     16 C           0.2328    0.1764   29.1291 C.ar    1  UNL1       -0.0003
     17 C          -0.6578    0.6089   28.0024 C.ar    1  UNL1       -0.0026
     18 C           2.0497    0.7316   30.9014 C.ar    1  UNL1       -0.0000
     19 C           2.1993    1.6004   32.1149 C.ar    1  UNL1       -0.0001
     20 C           3.0900    1.1680   33.2418 C.ar    1  UNL1        0.0039
     21 C           3.8310   -0.1333   33.1550 C.ar    1  UNL1        0.0714
     22 C           3.6813   -1.0022   31.9414 C.ar    1  UNL1        0.0039
     23 C           2.7906   -0.5697   30.8146 C.ar    1  UNL1       -0.0001
     24 C           4.7216   -0.5658   34.2818 C.3     1  UNL1        0.4186
     25 F           5.6123   -0.9983   35.4085 F       1  UNL1       -0.1659
     26 F           4.7239    0.8351   34.8177 F       1  UNL1       -0.1659
     27 F           4.7194   -1.9668   33.7458 F       1  UNL1       -0.1659
     28 C          -0.8880    3.7611   22.6967 C.3     1  UNL1        0.1934
     29 N          -1.8205    3.7674   21.5217 N.ar    1  UNL1       -0.2979
     30 C          -3.3019    3.8554   21.7404 C.ar    1  UNL1        0.0782
     31 C          -4.2344    3.8617   20.5654 C.ar    1  UNL1        0.0532
     32 C          -5.7157    3.9498   20.7840 C.3     1  UNL1        0.0377
     33 C          -3.6854    3.7800   19.1718 C.ar    1  UNL1        0.2783
     34 O          -4.6179    3.7863   17.9969 O.2     1  UNL1       -0.2654
     35 N          -2.2041    3.6919   18.9532 N.ar    1  UNL1       -0.1847
     36 C          -1.2716    3.6856   20.1282 C.ar    1  UNL1        0.1750
     37 S           0.2097    3.5976   19.9096 S.3     1  UNL1       -0.0724
     38 C           0.7536    2.7737   18.7802 C.3     1  UNL1        0.0913
     39 C           1.3648    1.4321   19.0570 C.ar    1  UNL1       -0.0108
     40 C           2.6519    1.0429   18.3924 C.ar    1  UNL1       -0.0011
     41 C           3.2632   -0.2987   18.6692 C.ar    1  UNL1        0.0293
     42 C           2.5873   -1.2510   19.6106 C.ar    1  UNL1        0.1401
     43 F           3.1985   -2.5925   19.8874 F       1  UNL1       -0.2042
     44 C           1.3001   -0.8617   20.2753 C.ar    1  UNL1        0.0293
     45 C           0.6889    0.4799   19.9985 C.ar    1  UNL1       -0.0011
@<TRIPOS>BOND
     1     7     8    1
     2     8     6    1
     3     6     9    1
     4     9    10    1
     5     6     5    1
     6     5     4    1
     7     4     1    1
     8     1    11    1
     9    11    12    1
    10    12    13   ar
    11    13    14   ar
    12    14    15   ar
    13    15    18    1
    14    18    19   ar
    15    19    20   ar
    16    20    21   ar
    17    21    24    1
    18    24    25    1
    19    24    26    1
    20    24    27    1
    21    21    22   ar
    22    22    23   ar
    23    15    16   ar
    24    16    17   ar
    25     1     2   am
    26     2     3    2
    27     2    28    1
    28    28    29    1
    29    29    30   ar
    30    30    31   ar
    31    31    32    1
    32    31    33   ar
    33    33    34    2
    34    33    35   ar
    35    35    36   ar
    36    36    37    1
    37    37    38    1
    38    38    39    1
    39    39    40   ar
    40    40    41   ar
    41    41    42   ar
    42    42    43    1
    43    42    44   ar
    44    44    45   ar
    45    17    12   ar
    46    36    29   ar
    47    45    39   ar
    48    23    18   ar
@<TRIPOS>MOLECULE
*****
 45 48 0 0 0
SMALL
GASTEIGER

@<TRIPOS>ATOM
      1 N           7.1725   -3.5990   29.5099 N.am    1  UNL1       -0.2724
      2 C           7.0787   -2.5615   28.4305 C.2     1  UNL1        0.2491
      3 O           7.6354   -1.1878   28.6603 O.2     1  UNL1       -0.2727
      4 C           6.6159   -4.9728   29.2800 C.3     1  UNL1        0.1111
      5 C           7.5330   -6.1595   29.2572 C.3     1  UNL1        0.0939
      6 N           7.7877   -6.8857   27.9697 N.3     1  UNL1       -0.2712
      7 C           8.4546   -9.3687   27.5950 C.3     1  UNL1        0.0188
      8 C           8.8401   -7.9528   27.9060 C.3     1  UNL1        0.0722
      9 C           6.9902   -6.5449   26.7458 C.3     1  UNL1        0.0722
     10 C           7.6885   -6.2861   25.4437 C.3     1  UNL1        0.0188
     11 C           7.8230   -3.2626   30.8189 C.3     1  UNL1        0.1202
     12 C           7.0823   -2.4466   31.8367 C.ar    1  UNL1       -0.0023
     13 C           5.7128   -2.8662   32.2819 C.ar    1  UNL1       -0.0026
     14 C           4.9723   -2.0502   33.2996 C.ar    1  UNL1       -0.0003
     15 C           5.6012   -0.8146   33.8720 C.ar    1  UNL1       -0.0000
     16 C           6.9708   -0.3950   33.4268 C.ar    1  UNL1       -0.0003
     17 C           7.7113   -1.2110   32.4091 C.ar    1  UNL1       -0.0026
     18 C           4.8606    0.0014   34.8897 C.ar    1  UNL1       -0.0000
     19 C           5.0900   -0.2365   36.3528 C.ar    1  UNL1       -0.0001
     20 C           4.3494    0.5795   37.3706 C.ar    1  UNL1        0.0039
     21 C           3.3794    1.6334   36.9251 C.ar    1  UNL1        0.0714
     22 C           3.1500    1.8713   35.4619 C.ar    1  UNL1        0.0039
     23 C           3.8906    1.0553   34.4442 C.ar    1  UNL1       -0.0001
     24 C           2.6388    2.4494   37.9427 C.3     1  UNL1        0.4186
     25 F           1.8982    3.2654   38.9603 F       1  UNL1       -0.1659
     26 F           3.4989    3.6347   37.6182 F       1  UNL1       -0.1659
     27 F           1.7787    1.2641   38.2671 F       1  UNL1       -0.1659
     28 C           6.4283   -2.8980   27.1214 C.3     1  UNL1        0.1934
     29 N           5.3349   -2.0248   26.5809 N.ar    1  UNL1       -0.2979
     30 C           4.4334   -1.2824   27.5224 C.ar    1  UNL1        0.0782
     31 C           3.3400   -0.4093   26.9820 C.ar    1  UNL1        0.0532
     32 C           2.4386    0.3330   27.9234 C.3     1  UNL1        0.0377
     33 C           3.1481   -0.2784   25.5000 C.ar    1  UNL1        0.2783
     34 O           2.0547    0.5947   24.9596 O.2     1  UNL1       -0.2654
     35 N           4.0496   -1.0208   24.5586 N.ar    1  UNL1       -0.1847
     36 C           5.1429   -1.8939   25.0991 C.ar    1  UNL1        0.1750
     37 S           6.0444   -2.6362   24.1576 S.3     1  UNL1       -0.0724
     38 C           5.4661   -3.6228   23.1868 C.3     1  UNL1        0.0913
     39 C           5.0666   -3.1760   21.8118 C.ar    1  UNL1       -0.0108
     40 C           5.4712   -1.8190   21.3172 C.ar    1  UNL1       -0.0011
     41 C           5.0717   -1.3721   19.9421 C.ar    1  UNL1        0.0293
     42 C           4.2675   -2.2822   19.0618 C.ar    1  UNL1        0.1401
     43 F           3.8680   -1.8354   17.6868 F       1  UNL1       -0.2042
     44 C           3.8629   -3.6393   19.5566 C.ar    1  UNL1        0.0293
     45 C           4.2625   -4.0862   20.9315 C.ar    1  UNL1       -0.0011
@<TRIPOS>BOND
     1     7     8    1
     2     8     6    1
     3     6     9    1
     4     9    10    1
     5     6     5    1
     6     5     4    1
     7     4     1    1
     8     1    11    1
     9    11    12    1
    10    12    13   ar
    11    13    14   ar
    12    14    15   ar
    13    15    18    1
    14    18    19   ar
    15    19    20   ar
    16    20    21   ar
    17    21    24    1
    18    24    25    1
    19    24    26    1
    20    24    27    1
    21    21    22   ar
    22    22    23   ar
    23    15    16   ar
    24    16    17   ar
    25     1     2   am
    26     2     3    2
    27     2    28    1
    28    28    29    1
    29    29    30   ar
    30    30    31   ar
    31    31    32    1
    32    31    33   ar
    33    33    34    2
    34    33    35   ar
    35    35    36   ar
    36    36    37    1
    37    37    38    1
    38    38    39    1
    39    39    40   ar
    40    40    41   ar
    41    41    42   ar
    42    42    43    1
    43    42    44   ar
    44    44    45   ar
    45    17    12   ar
    46    36    29   ar
    47    45    39   ar
    48    23    18   ar
