@<TRIPOS>MOLECULE
*****
 42 45 0 0 0
SMALL
GASTEIGER

@<TRIPOS>ATOM
      1 C           8.3287   -4.8579   26.7825 C.2     1  UNL1        0.2566
      2 O           8.2463   -4.6932   25.2939 O.2     1  UNL1       -0.2721
      3 N           7.5023   -3.9856   27.6805 N.am    1  UNL1       -0.2634
      4 C           7.4795   -4.0342   29.1795 C.3     1  UNL1        0.1207
      5 C           6.5167   -2.9903   29.6625 C.ar    1  UNL1       -0.0030
      6 C           6.0872   -2.5818   31.0404 C.ar    1  UNL1        0.0155
      7 C           5.0854   -1.4796   31.2177 C.ar    1  UNL1        0.1054
      8 C           4.5132   -0.7858   30.0172 C.ar    1  UNL1        0.0181
      9 C           4.9427   -1.1943   28.6393 C.ar    1  UNL1       -0.0011
     10 C           5.9445   -2.2965   28.4620 C.ar    1  UNL1        0.0022
     11 C           6.5536   -2.9117   27.2370 C.3     1  UNL1        0.1751
     12 C           6.2647   -2.5214   25.8178 C.2     1  UNL1        0.2485
     13 O           6.7299   -1.1946   25.2952 O.2     1  UNL1       -0.2726
     14 N           5.5106   -3.4581   24.9210 N.am    1  UNL1       -0.2823
     15 H           5.2053   -4.3289   25.2639 H       1  UNL1        0.1549
     16 C           5.2218   -3.0678   23.5018 C.ar    1  UNL1        0.0503
     17 C           4.1364   -2.0766   23.2025 C.ar    1  UNL1        0.0144
     18 C           3.8476   -1.6863   21.7833 C.ar    1  UNL1       -0.0002
     19 C           4.6441   -2.2873   20.6633 C.ar    1  UNL1        0.0182
     20 C           5.7294   -3.2785   20.9625 C.ar    1  UNL1       -0.0002
     21 C           6.0182   -3.6688   22.3818 C.ar    1  UNL1        0.0144
     22 C           4.3552   -1.8970   19.2440 C.3     1  UNL1        0.2827
     23 O           5.0141   -0.5694   19.4749 O.3     1  UNL1       -0.3692
     24 H           4.9800   -0.0453   18.6594 H       1  UNL1        0.2112
     25 C           4.0664   -1.5069   17.8248 C.3     1  UNL1        0.4311
     26 F           3.7776   -1.1168   16.4055 F       1  UNL1       -0.1669
     27 F           2.9455   -0.6277   18.2945 F       1  UNL1       -0.1669
     28 F           4.7025   -1.9940   17.4472 F       1  UNL1       -0.1669
     29 C           3.6964   -3.2247   19.0132 C.3     1  UNL1        0.4311
     30 F           3.0375   -4.5523   18.7823 F       1  UNL1       -0.1669
     31 F           2.9123   -3.0197   19.3706 F       1  UNL1       -0.1669
     32 F           4.7565   -4.0435   18.3380 F       1  UNL1       -0.1669
     33 S           4.6558   -1.0710   32.5957 S.O2    1  UNL1        0.0086
     34 O           4.0718   -2.4347   32.8180 O.2     1  UNL1       -0.1686
     35 O           5.2397    0.2926   32.3734 O.2     1  UNL1       -0.1686
     36 C           4.2262   -0.6625   33.9735 C.3     1  UNL1        0.1559
     37 C           5.2546   -0.4144   35.0371 C.3     1  UNL1        0.0240
     38 C           6.6843   -0.2003   35.4368 C.3     1  UNL1        0.0018
     39 C           5.6059   -0.1987   36.4793 C.3     1  UNL1        0.0018
     40 C           9.2374   -5.8948   27.3732 C.3     1  UNL1        0.2272
     41 C           7.9786   -8.0426   26.6300 C.3     1  UNL1        0.1748
     42 O           8.7109   -7.2647   27.6830 O.3     1  UNL1       -0.3417
@<TRIPOS>BOND
     1    41    42    1
     2    42    40    1
     3    40     1    1
     4     1     2    2
     5     1     3   am
     6     3     4    1
     7     4     5    1
     8     5     6   ar
     9     6     7   ar
    10     7    33    1
    11    33    34    2
    12    33    35    2
    13    33    36    1
    14    36    37    1
    15    37    38    1
    16    38    39    1
    17     7     8   ar
    18     8     9   ar
    19     9    10   ar
    20    10    11    1
    21    11    12    1
    22    12    13    2
    23    12    14   am
    24    14    16    1
    25    16    17   ar
    26    17    18   ar
    27    18    19   ar
    28    19    22    1
    29    22    23    1
    30    22    25    1
    31    25    26    1
    32    25    27    1
    33    25    28    1
    34    22    29    1
    35    29    30    1
    36    29    31    1
    37    29    32    1
    38    19    20   ar
    39    20    21   ar
    40    11     3    1
    41    21    16   ar
    42    10     5   ar
    43    39    37    1
    44    14    15    1
    45    23    24    1
@<TRIPOS>MOLECULE
*****
 42 45 0 0 0
SMALL
GASTEIGER

@<TRIPOS>ATOM
      1 C          -1.7889    4.6681   18.4192 C.2     1  UNL1        0.2566
      2 O          -2.6595    5.3691   19.4195 O.2     1  UNL1       -0.2721
      3 N          -0.8619    3.5769   18.8662 N.am    1  UNL1       -0.2634
      4 C           0.0633    2.7902   17.9857 C.3     1  UNL1        0.1207
      5 C           0.7998    1.8078   18.8475 C.ar    1  UNL1       -0.0030
      6 C           1.8376    0.7731   18.5280 C.ar    1  UNL1        0.0155
      7 C           2.4054   -0.0822   19.6216 C.ar    1  UNL1        0.1054
      8 C           1.9354    0.0973   21.0347 C.ar    1  UNL1        0.0181
      9 C           0.8975    1.1320   21.3542 C.ar    1  UNL1       -0.0011
     10 C           0.3297    1.9873   20.2606 C.ar    1  UNL1        0.0022
     11 C          -0.6972    3.0806   20.2721 C.3     1  UNL1        0.1751
     12 C          -1.4307    3.5885   21.4780 C.2     1  UNL1        0.2485
     13 O          -0.6662    4.1556   22.6371 O.2     1  UNL1       -0.2726
     14 N          -2.9289    3.5292   21.5246 N.am    1  UNL1       -0.2823
     15 H          -3.4307    3.1570   20.7638 H       1  UNL1        0.1549
     16 C          -3.6624    4.0371   22.7304 C.ar    1  UNL1        0.0503
     17 C          -3.7717    5.5129   22.9753 C.ar    1  UNL1        0.0144
     18 C          -4.5052    6.0208   24.1812 C.ar    1  UNL1       -0.0002
     19 C          -5.1293    5.0528   25.1421 C.ar    1  UNL1        0.0182
     20 C          -5.0200    3.5769   24.8972 C.ar    1  UNL1       -0.0002
     21 C          -4.2865    3.0691   23.6913 C.ar    1  UNL1        0.0144
     22 C          -5.8629    5.5606   26.3480 C.3     1  UNL1        0.2827
     23 O          -4.9509    4.7678   27.2367 O.3     1  UNL1       -0.3692
     24 H          -5.2016    4.9065   28.1634 H       1  UNL1        0.2112
     25 C          -6.5965    6.0684   27.5538 C.3     1  UNL1        0.4311
     26 F          -7.3300    6.5762   28.7596 F       1  UNL1       -0.1669
     27 F          -5.3195    6.6477   28.0866 F       1  UNL1       -0.1669
     28 F          -7.3976    5.7655   27.3283 F       1  UNL1       -0.1669
     29 C          -6.7749    6.3534   25.4592 C.3     1  UNL1        0.4311
     30 F          -7.6868    7.1462   24.5706 F       1  UNL1       -0.1669
     31 F          -6.4784    7.1559   25.6888 F       1  UNL1       -0.1669
     32 F          -7.5950    5.3112   24.7583 F       1  UNL1       -0.1669
     33 S           3.4433   -1.1170   19.3021 S.O2    1  UNL1        0.0086
     34 O           3.4102   -0.7052   17.8602 O.2     1  UNL1       -0.1686
     35 O           3.4764   -1.5289   20.7441 O.2     1  UNL1       -0.1686
     36 C           4.4812   -2.1518   18.9827 C.3     1  UNL1        0.1559
     37 C           4.1179   -3.6071   18.9950 C.3     1  UNL1        0.0240
     38 C           3.1031   -4.6910   19.2082 C.3     1  UNL1        0.0018
     39 C           4.5035   -5.0440   18.8030 C.3     1  UNL1        0.0018
     40 C          -1.8454    5.0583   16.9720 C.3     1  UNL1        0.2272
     41 C          -3.9787    3.6077   16.6640 C.3     1  UNL1        0.1748
     42 O          -2.9345    4.5202   16.0921 O.3     1  UNL1       -0.3417
@<TRIPOS>BOND
     1    41    42    1
     2    42    40    1
     3    40     1    1
     4     1     2    2
     5     1     3   am
     6     3     4    1
     7     4     5    1
     8     5     6   ar
     9     6     7   ar
    10     7    33    1
    11    33    34    2
    12    33    35    2
    13    33    36    1
    14    36    37    1
    15    37    38    1
    16    38    39    1
    17     7     8   ar
    18     8     9   ar
    19     9    10   ar
    20    10    11    1
    21    11    12    1
    22    12    13    2
    23    12    14   am
    24    14    16    1
    25    16    17   ar
    26    17    18   ar
    27    18    19   ar
    28    19    22    1
    29    22    23    1
    30    22    25    1
    31    25    26    1
    32    25    27    1
    33    25    28    1
    34    22    29    1
    35    29    30    1
    36    29    31    1
    37    29    32    1
    38    19    20   ar
    39    20    21   ar
    40    11     3    1
    41    21    16   ar
    42    10     5   ar
    43    39    37    1
    44    14    15    1
    45    23    24    1
@<TRIPOS>MOLECULE
*****
 42 45 0 0 0
SMALL
GASTEIGER

@<TRIPOS>ATOM
      1 C           0.2247    2.6462   26.5552 C.2     1  UNL1        0.2566
      2 O           0.6345    2.7599   27.9936 O.2     1  UNL1       -0.2721
      3 N           0.9930    1.7553   25.6246 N.am    1  UNL1       -0.2634
      4 C           0.7029    1.5416   24.1685 C.3     1  UNL1        0.1207
      5 C           1.7169    0.5759   23.6307 C.ar    1  UNL1       -0.0030
      6 C           1.9239   -0.0040   22.2629 C.ar    1  UNL1        0.0155
      7 C           3.0476   -0.9671   22.0189 C.ar    1  UNL1        0.1054
      8 C           3.9644   -1.3502   23.1425 C.ar    1  UNL1        0.0181
      9 C           3.7575   -0.7703   24.5103 C.ar    1  UNL1       -0.0011
     10 C           2.6337    0.1928   24.7543 C.ar    1  UNL1        0.0022
     11 C           2.1863    0.9217   25.9866 C.3     1  UNL1        0.1751
     12 C           2.8209    0.8326   27.3429 C.2     1  UNL1        0.2485
     13 O           4.0796    1.5948   27.6336 O.2     1  UNL1       -0.2726
     14 N           2.1966   -0.0187   28.4086 N.am    1  UNL1       -0.2823
     15 H           1.3704   -0.5190   28.2178 H       1  UNL1        0.1549
     16 C           2.8311   -0.1078   29.7648 C.ar    1  UNL1        0.0503
     17 C           4.0646   -0.9381   29.9627 C.ar    1  UNL1        0.0144
     18 C           4.6992   -1.0272   31.3190 C.ar    1  UNL1       -0.0002
     19 C           4.1002   -0.2860   32.4773 C.ar    1  UNL1        0.0182
     20 C           2.8667    0.5443   32.2794 C.ar    1  UNL1       -0.0002
     21 C           2.2321    0.6334   30.9232 C.ar    1  UNL1        0.0144
     22 C           4.7346   -0.3750   33.8336 C.3     1  UNL1        0.2827
     23 O           4.9461    1.1100   33.8323 O.3     1  UNL1       -0.3692
     24 H           5.3785    1.3758   34.6589 H       1  UNL1        0.2112
     25 C           5.3691   -0.4641   35.1899 C.3     1  UNL1        0.4311
     26 F           6.0036   -0.5533   36.5462 F       1  UNL1       -0.1669
     27 F           6.6908   -0.0742   34.5973 F       1  UNL1       -0.1669
     28 F           4.6402   -0.6991   35.6349 F       1  UNL1       -0.1669
     29 C           4.5232   -1.8600   33.8349 C.3     1  UNL1        0.4311
     30 F           4.3117   -3.3451   33.8363 F       1  UNL1       -0.1669
     31 F           3.6636   -1.8465   34.0481 F       1  UNL1       -0.1669
     32 F           5.8699   -2.4188   33.4825 F       1  UNL1       -0.1669
     33 S           3.2546   -1.5471   20.6510 S.O2    1  UNL1        0.0086
     34 O           1.8590   -1.1497   20.2713 O.2     1  UNL1       -0.1686
     35 O           4.6502   -1.9446   21.0308 O.2     1  UNL1       -0.1686
     36 C           3.4617   -2.1271   19.2833 C.3     1  UNL1        0.1559
     37 C           3.7784   -3.5850   19.1269 C.3     1  UNL1        0.0240
     38 C           3.4310   -5.0234   19.3724 C.3     1  UNL1        0.0018
     39 C           4.6743   -4.6716   18.6106 C.3     1  UNL1        0.0018
     40 C          -0.9534    3.4235   26.0474 C.3     1  UNL1        0.2272
     41 C          -3.4900    3.9721   26.1689 C.3     1  UNL1        0.1748
     42 O          -2.2605    3.3690   26.7812 O.3     1  UNL1       -0.3417
@<TRIPOS>BOND
     1    41    42    1
     2    42    40    1
     3    40     1    1
     4     1     2    2
     5     1     3   am
     6     3     4    1
     7     4     5    1
     8     5     6   ar
     9     6     7   ar
    10     7    33    1
    11    33    34    2
    12    33    35    2
    13    33    36    1
    14    36    37    1
    15    37    38    1
    16    38    39    1
    17     7     8   ar
    18     8     9   ar
    19     9    10   ar
    20    10    11    1
    21    11    12    1
    22    12    13    2
    23    12    14   am
    24    14    16    1
    25    16    17   ar
    26    17    18   ar
    27    18    19   ar
    28    19    22    1
    29    22    23    1
    30    22    25    1
    31    25    26    1
    32    25    27    1
    33    25    28    1
    34    22    29    1
    35    29    30    1
    36    29    31    1
    37    29    32    1
    38    19    20   ar
    39    20    21   ar
    40    11     3    1
    41    21    16   ar
    42    10     5   ar
    43    39    37    1
    44    14    15    1
    45    23    24    1
@<TRIPOS>MOLECULE
*****
 42 45 0 0 0
SMALL
GASTEIGER

@<TRIPOS>ATOM
      1 C           0.4521    2.5776   26.8203 C.2     1  UNL1        0.2566
      2 O           0.6625    2.4869   28.3026 O.2     1  UNL1       -0.2721
      3 N           1.2074    1.6666   25.8985 N.am    1  UNL1       -0.2634
      4 C           1.1021    1.6414   24.4024 C.3     1  UNL1        0.1207
      5 C           2.0302    0.5801   23.8901 C.ar    1  UNL1       -0.0030
      6 C           2.3448    0.1066   22.5021 C.ar    1  UNL1        0.0155
      7 C           3.3384   -0.9976   22.2936 C.ar    1  UNL1        0.1054
      8 C           4.0174   -1.6282   23.4731 C.ar    1  UNL1        0.0181
      9 C           3.7028   -1.1546   24.8611 C.ar    1  UNL1       -0.0011
     10 C           2.7092   -0.0505   25.0697 C.ar    1  UNL1        0.0022
     11 C           2.2007    0.6210   26.3108 C.3     1  UNL1        0.1751
     12 C           2.6131    0.3027   27.7175 C.2     1  UNL1        0.2485
     13 O           2.3950   -1.0747   28.2696 O.2     1  UNL1       -0.2726
     14 N           3.2437    1.3621   28.5721 N.am    1  UNL1       -0.2823
     15 H           3.3868    2.2662   28.2098 H       1  UNL1        0.1549
     16 C           3.6561    1.0438   29.9788 C.ar    1  UNL1        0.0503
     17 C           5.0636    0.6139   30.2686 C.ar    1  UNL1        0.0144
     18 C           5.4760    0.2957   31.6753 C.ar    1  UNL1       -0.0002
     19 C           4.4808    0.4073   32.7920 C.ar    1  UNL1        0.0182
     20 C           3.0733    0.8371   32.5021 C.ar    1  UNL1       -0.0002
     21 C           2.6609    1.1554   31.0955 C.ar    1  UNL1        0.0144
     22 C           4.8931    0.0890   34.1987 C.3     1  UNL1        0.2827
     23 O           5.0528    1.5531   34.4832 O.3     1  UNL1       -0.3692
     24 H           5.3386    1.6746   35.4022 H       1  UNL1        0.2112
     25 C           5.3054   -0.2294   35.6053 C.3     1  UNL1        0.4311
     26 F           5.7177   -0.5477   37.0120 F       1  UNL1       -0.1669
     27 F           6.6843    0.2865   35.3179 F       1  UNL1       -0.1669
     28 F           4.5270   -0.5546   35.8751 F       1  UNL1       -0.1669
     29 C           4.7335   -1.3751   33.9141 C.3     1  UNL1        0.4311
     30 F           4.5737   -2.8392   33.6296 F       1  UNL1       -0.1669
     31 F           3.8501   -1.4011   33.9744 F       1  UNL1       -0.1669
     32 F           6.1381   -1.8609   33.7115 F       1  UNL1       -0.1669
     33 S           3.6530   -1.4712   20.9054 S.O2    1  UNL1        0.0086
     34 O           5.0690   -1.7428   21.3190 O.2     1  UNL1       -0.1686
     35 O           2.2370   -1.1996   20.4919 O.2     1  UNL1       -0.1686
     36 C           3.9676   -1.9448   19.5174 C.3     1  UNL1        0.1559
     37 C           3.9589   -3.4120   19.2055 C.3     1  UNL1        0.0240
     38 C           3.2405   -4.7283   19.1703 C.3     1  UNL1        0.0018
     39 C           4.6621   -4.6370   18.7006 C.3     1  UNL1        0.0018
     40 C          -0.5135    3.5791   26.2597 C.3     1  UNL1        0.2272
     41 C          -2.3339    3.5475   24.4063 C.3     1  UNL1        0.1748
     42 O          -1.8571    3.1307   25.7660 O.3     1  UNL1       -0.3417
@<TRIPOS>BOND
     1    41    42    1
     2    42    40    1
     3    40     1    1
     4     1     2    2
     5     1     3   am
     6     3     4    1
     7     4     5    1
     8     5     6   ar
     9     6     7   ar
    10     7    33    1
    11    33    34    2
    12    33    35    2
    13    33    36    1
    14    36    37    1
    15    37    38    1
    16    38    39    1
    17     7     8   ar
    18     8     9   ar
    19     9    10   ar
    20    10    11    1
    21    11    12    1
    22    12    13    2
    23    12    14   am
    24    14    16    1
    25    16    17   ar
    26    17    18   ar
    27    18    19   ar
    28    19    22    1
    29    22    23    1
    30    22    25    1
    31    25    26    1
    32    25    27    1
    33    25    28    1
    34    22    29    1
    35    29    30    1
    36    29    31    1
    37    29    32    1
    38    19    20   ar
    39    20    21   ar
    40    11     3    1
    41    21    16   ar
    42    10     5   ar
    43    39    37    1
    44    14    15    1
    45    23    24    1
@<TRIPOS>MOLECULE
*****
 42 45 0 0 0
SMALL
GASTEIGER

@<TRIPOS>ATOM
      1 C          -1.7865    3.9613   18.0606 C.2     1  UNL1        0.2566
      2 O          -0.5432    3.2170   17.6729 O.2     1  UNL1       -0.2721
      3 N          -2.2192    4.0023   19.4962 N.am    1  UNL1       -0.2634
      4 C          -3.4328    4.7025   20.0317 C.3     1  UNL1        0.1207
      5 C          -3.4779    4.4833   21.5149 C.ar    1  UNL1       -0.0030
      6 C          -4.4455    4.9366   22.5676 C.ar    1  UNL1        0.0155
      7 C          -4.2273    4.5543   24.0015 C.ar    1  UNL1        0.1054
      8 C          -3.0414    3.7186   24.3827 C.ar    1  UNL1        0.0181
      9 C          -2.0738    3.2653   23.3301 C.ar    1  UNL1       -0.0011
     10 C          -2.2920    3.6476   21.8962 C.ar    1  UNL1        0.0022
     11 C          -1.5141    3.3503   20.6486 C.3     1  UNL1        0.1751
     12 C          -0.2526    2.5429   20.5675 C.2     1  UNL1        0.2485
     13 O           1.0146    3.0684   21.1741 O.2     1  UNL1       -0.2726
     14 N          -0.2583    1.2097   19.8799 N.am    1  UNL1       -0.2823
     15 H          -1.0899    0.8647   19.4817 H       1  UNL1        0.1549
     16 C           1.0033    0.4022   19.7989 C.ar    1  UNL1        0.0503
     17 C           1.8652    0.4784   18.5736 C.ar    1  UNL1        0.0144
     18 C           3.1267   -0.3290   18.4926 C.ar    1  UNL1       -0.0002
     19 C           3.5262   -1.2127   19.6369 C.ar    1  UNL1        0.0182
     20 C           2.6644   -1.2889   20.8622 C.ar    1  UNL1       -0.0002
     21 C           1.4028   -0.4814   20.9432 C.ar    1  UNL1        0.0144
     22 C           4.7878   -2.0202   19.5559 C.3     1  UNL1        0.2827
     23 O           5.5994   -0.7653   19.6841 O.3     1  UNL1       -0.3692
     24 H           6.5434   -0.9871   19.6624 H       1  UNL1        0.2112
     25 C           6.0492   -2.8278   19.4750 C.3     1  UNL1        0.4311
     26 F           7.3107   -3.6354   19.3941 F       1  UNL1       -0.1669
     27 F           5.9815   -2.7835   17.9772 F       1  UNL1       -0.1669
     28 F           6.1798   -2.9119   20.3470 F       1  UNL1       -0.1669
     29 C           3.9761   -3.2751   19.4277 C.3     1  UNL1        0.4311
     30 F           3.1645   -4.5301   19.2995 F       1  UNL1       -0.1669
     31 F           3.7149   -3.1497   18.5907 F       1  UNL1       -0.1669
     32 F           4.1155   -3.9360   20.7671 F       1  UNL1       -0.1669
     33 S          -5.1949    5.0077   25.0542 S.O2    1  UNL1        0.0086
     34 O          -5.3004    6.3443   24.3817 O.2     1  UNL1       -0.1686
     35 O          -5.0894    3.6711   25.7268 O.2     1  UNL1       -0.1686
     36 C          -6.1625    5.4610   26.1069 C.3     1  UNL1        0.1559
     37 C          -7.4866    6.0423   25.7083 C.3     1  UNL1        0.0240
     38 C          -8.4685    7.1759   25.7346 C.3     1  UNL1        0.0018
     39 C          -8.7981    5.9154   24.9914 C.3     1  UNL1        0.0018
     40 C          -2.5971    4.6644   17.0126 C.3     1  UNL1        0.2272
     41 C          -5.1709    4.8724   16.7253 C.3     1  UNL1        0.1748
     42 O          -3.9049    4.0846   16.5616 O.3     1  UNL1       -0.3417
@<TRIPOS>BOND
     1    41    42    1
     2    42    40    1
     3    40     1    1
     4     1     2    2
     5     1     3   am
     6     3     4    1
     7     4     5    1
     8     5     6   ar
     9     6     7   ar
    10     7    33    1
    11    33    34    2
    12    33    35    2
    13    33    36    1
    14    36    37    1
    15    37    38    1
    16    38    39    1
    17     7     8   ar
    18     8     9   ar
    19     9    10   ar
    20    10    11    1
    21    11    12    1
    22    12    13    2
    23    12    14   am
    24    14    16    1
    25    16    17   ar
    26    17    18   ar
    27    18    19   ar
    28    19    22    1
    29    22    23    1
    30    22    25    1
    31    25    26    1
    32    25    27    1
    33    25    28    1
    34    22    29    1
    35    29    30    1
    36    29    31    1
    37    29    32    1
    38    19    20   ar
    39    20    21   ar
    40    11     3    1
    41    21    16   ar
    42    10     5   ar
    43    39    37    1
    44    14    15    1
    45    23    24    1
@<TRIPOS>MOLECULE
*****
 42 45 0 0 0
SMALL
GASTEIGER

@<TRIPOS>ATOM
      1 C           1.1153    1.1595   27.4506 C.2     1  UNL1        0.2566
      2 O           2.2497    0.5780   26.6601 O.2     1  UNL1       -0.2721
      3 N           0.0294    1.9239   26.7531 N.am    1  UNL1       -0.2634
      4 C          -1.1614    2.5595   27.4074 C.3     1  UNL1        0.1207
      5 C          -1.9831    3.2153   26.3375 C.ar    1  UNL1       -0.0030
      6 C          -3.2650    3.9924   26.3913 C.ar    1  UNL1        0.0155
      7 C          -3.8639    4.5393   25.1295 C.ar    1  UNL1        0.1054
      8 C          -3.1810    4.3091   23.8139 C.ar    1  UNL1        0.0181
      9 C          -1.8991    3.5320   23.7602 C.ar    1  UNL1       -0.0011
     10 C          -1.3002    2.9851   25.0220 C.ar    1  UNL1        0.0022
     11 C          -0.0564    2.1870   25.2789 C.3     1  UNL1        0.1751
     12 C           0.9287    1.7319   24.2433 C.2     1  UNL1        0.2485
     13 O           1.7268    2.7412   23.4725 O.2     1  UNL1       -0.2726
     14 N           1.1157    0.2672   23.9784 N.am    1  UNL1       -0.2823
     15 H           0.5918   -0.3953   24.4843 H       1  UNL1        0.1549
     16 C           2.1007   -0.1879   22.9428 C.ar    1  UNL1        0.0503
     17 C           3.3969   -0.8141   23.3646 C.ar    1  UNL1        0.0144
     18 C           4.3819   -1.2692   22.3289 C.ar    1  UNL1       -0.0002
     19 C           4.0708   -1.0981   20.8716 C.ar    1  UNL1        0.0182
     20 C           2.7746   -0.4720   20.4499 C.ar    1  UNL1       -0.0002
     21 C           1.7896   -0.0168   21.4855 C.ar    1  UNL1        0.0144
     22 C           5.0558   -1.5533   19.8359 C.3     1  UNL1        0.2827
     23 O           6.0014   -0.4681   20.2582 O.3     1  UNL1       -0.3692
     24 H           6.8057   -0.5117   19.7178 H       1  UNL1        0.2112
     25 C           6.0408   -2.0084   18.8002 C.3     1  UNL1        0.4311
     26 F           7.0257   -2.4636   17.7645 F       1  UNL1       -0.1669
     27 F           5.8418   -0.7263   18.0475 F       1  UNL1       -0.1669
     28 F           6.2283   -2.7927   19.1667 F       1  UNL1       -0.1669
     29 C           4.1102   -2.6384   19.4136 C.3     1  UNL1        0.4311
     30 F           3.1647   -3.7237   18.9913 F       1  UNL1       -0.1669
     31 F           4.1567   -3.1175   20.1572 F       1  UNL1       -0.1669
     32 F           3.6918   -2.2373   18.0301 F       1  UNL1       -0.1669
     33 S          -5.1458    5.3164   25.1831 S.O2    1  UNL1        0.0086
     34 O          -5.9216    4.0521   24.9603 O.2     1  UNL1       -0.1686
     35 O          -4.3700    6.5806   25.4060 O.2     1  UNL1       -0.1686
     36 C          -6.4277    6.0935   25.2368 C.3     1  UNL1        0.1559
     37 C          -6.9861    6.5287   26.5593 C.3     1  UNL1        0.0240
     38 C          -7.6735    7.5612   27.4027 C.3     1  UNL1        0.0018
     39 C          -7.2660    6.2499   28.0063 C.3     1  UNL1        0.0018
     40 C           1.0668    0.9767   28.9386 C.3     1  UNL1        0.2272
     41 C          -1.0058   -0.5899   28.9318 C.3     1  UNL1        0.1748
     42 O           0.3059   -0.1736   29.5285 O.3     1  UNL1       -0.3417
@<TRIPOS>BOND
     1    41    42    1
     2    42    40    1
     3    40     1    1
     4     1     2    2
     5     1     3   am
     6     3     4    1
     7     4     5    1
     8     5     6   ar
     9     6     7   ar
    10     7    33    1
    11    33    34    2
    12    33    35    2
    13    33    36    1
    14    36    37    1
    15    37    38    1
    16    38    39    1
    17     7     8   ar
    18     8     9   ar
    19     9    10   ar
    20    10    11    1
    21    11    12    1
    22    12    13    2
    23    12    14   am
    24    14    16    1
    25    16    17   ar
    26    17    18   ar
    27    18    19   ar
    28    19    22    1
    29    22    23    1
    30    22    25    1
    31    25    26    1
    32    25    27    1
    33    25    28    1
    34    22    29    1
    35    29    30    1
    36    29    31    1
    37    29    32    1
    38    19    20   ar
    39    20    21   ar
    40    11     3    1
    41    21    16   ar
    42    10     5   ar
    43    39    37    1
    44    14    15    1
    45    23    24    1
@<TRIPOS>MOLECULE
*****
 42 45 0 0 0
SMALL
GASTEIGER

@<TRIPOS>ATOM
      1 C           4.7368   -1.9855   24.1504 C.2     1  UNL1        0.2566
      2 O           5.3070   -2.1290   25.5303 O.2     1  UNL1       -0.2721
      3 N           3.6628   -0.9727   23.8842 N.am    1  UNL1       -0.2634
      4 C           3.0005   -0.7164   22.5630 C.3     1  UNL1        0.1207
      5 C           1.9910    0.3763   22.7547 C.ar    1  UNL1       -0.0030
      6 C           1.0418    1.0439   21.8044 C.ar    1  UNL1        0.0155
      7 C           0.1309    2.1305   22.2937 C.ar    1  UNL1        0.1054
      8 C           0.1693    2.5496   23.7335 C.ar    1  UNL1        0.0181
      9 C           1.1185    1.8820   24.6839 C.ar    1  UNL1       -0.0011
     10 C           2.0294    0.7954   24.1945 C.ar    1  UNL1        0.0022
     11 C           3.0626   -0.0384   24.8925 C.3     1  UNL1        0.1751
     12 C           3.4309    0.0472   26.3441 C.2     1  UNL1        0.2485
     13 O           4.0837    1.2866   26.8805 O.2     1  UNL1       -0.2726
     14 N           3.1464   -1.1067   27.2594 N.am    1  UNL1       -0.2823
     15 H           2.7180   -1.9202   26.9074 H       1  UNL1        0.1549
     16 C           3.5148   -1.0211   28.7110 C.ar    1  UNL1        0.0503
     17 C           2.4797   -0.6359   29.7259 C.ar    1  UNL1        0.0144
     18 C           2.8480   -0.5503   31.1775 C.ar    1  UNL1       -0.0002
     19 C           4.2514   -0.8500   31.6140 C.ar    1  UNL1        0.0182
     20 C           5.2865   -1.2353   30.5990 C.ar    1  UNL1       -0.0002
     21 C           4.9182   -1.3208   29.1474 C.ar    1  UNL1        0.0144
     22 C           4.6199   -0.7644   33.0655 C.3     1  UNL1        0.2827
     23 O           4.1625    0.6638   33.0975 O.3     1  UNL1       -0.3692
     24 H           4.2886    1.0238   33.9894 H       1  UNL1        0.2112
     25 C           4.9883   -0.6789   34.5171 C.3     1  UNL1        0.4311
     26 F           5.3568   -0.5935   35.9686 F       1  UNL1       -0.1669
     27 F           6.0373    0.3424   34.1907 F       1  UNL1       -0.1669
     28 F           4.4001   -1.2714   34.8129 F       1  UNL1       -0.1669
     29 C           5.0772   -2.1926   33.0336 C.3     1  UNL1        0.4311
     30 F           5.5344   -3.6209   33.0016 F       1  UNL1       -0.1669
     31 F           4.2752   -2.5611   32.9583 F       1  UNL1       -0.1669
     32 F           6.5700   -2.0985   33.1466 F       1  UNL1       -0.1669
     33 S          -0.8184    2.7981   21.3433 S.O2    1  UNL1        0.0086
     34 O          -0.7660    1.5967   20.4469 O.2     1  UNL1       -0.1686
     35 O          -0.8708    3.9996   22.2397 O.2     1  UNL1       -0.1686
     36 C          -1.7676    3.4658   20.3930 C.3     1  UNL1        0.1559
     37 C          -3.2233    3.5732   20.7387 C.3     1  UNL1        0.0240
     38 C          -4.4319    3.0425   21.4512 C.3     1  UNL1        0.0018
     39 C          -4.5361    4.2900   20.6249 C.3     1  UNL1        0.0018
     40 C           5.2405   -2.8548   23.0367 C.3     1  UNL1        0.2272
     41 C           4.2585   -4.0705   20.9611 C.3     1  UNL1        0.1748
     42 O           4.3525   -3.9116   22.4497 O.3     1  UNL1       -0.3417
@<TRIPOS>BOND
     1    41    42    1
     2    42    40    1
     3    40     1    1
     4     1     2    2
     5     1     3   am
     6     3     4    1
     7     4     5    1
     8     5     6   ar
     9     6     7   ar
    10     7    33    1
    11    33    34    2
    12    33    35    2
    13    33    36    1
    14    36    37    1
    15    37    38    1
    16    38    39    1
    17     7     8   ar
    18     8     9   ar
    19     9    10   ar
    20    10    11    1
    21    11    12    1
    22    12    13    2
    23    12    14   am
    24    14    16    1
    25    16    17   ar
    26    17    18   ar
    27    18    19   ar
    28    19    22    1
    29    22    23    1
    30    22    25    1
    31    25    26    1
    32    25    27    1
    33    25    28    1
    34    22    29    1
    35    29    30    1
    36    29    31    1
    37    29    32    1
    38    19    20   ar
    39    20    21   ar
    40    11     3    1
    41    21    16   ar
    42    10     5   ar
    43    39    37    1
    44    14    15    1
    45    23    24    1
@<TRIPOS>MOLECULE
*****
 42 45 0 0 0
SMALL
GASTEIGER

@<TRIPOS>ATOM
      1 C           1.0232    1.9175   27.1317 C.2     1  UNL1        0.2566
      2 O           1.3777    1.7626   25.6825 O.2     1  UNL1       -0.2721
      3 N           1.8747    1.2731   28.1852 N.am    1  UNL1       -0.2634
      4 C           1.6463    1.3400   29.6662 C.3     1  UNL1        0.1207
      5 C           2.7345    0.5568   30.3389 C.ar    1  UNL1       -0.0030
      6 C           3.0213    0.2742   31.7838 C.ar    1  UNL1        0.0155
      7 C           4.2092   -0.5593   32.1635 C.ar    1  UNL1        0.1054
      8 C           5.1102   -1.1102   31.0983 C.ar    1  UNL1        0.0181
      9 C           4.8233   -0.8276   29.6534 C.ar    1  UNL1       -0.0011
     10 C           3.6354    0.0059   29.2737 C.ar    1  UNL1        0.0022
     11 C           3.1041    0.4486   27.9426 C.3     1  UNL1        0.1751
     12 C           3.6979    0.1237   26.6040 C.2     1  UNL1        0.2485
     13 O           4.9914    0.7562   26.1839 O.2     1  UNL1       -0.2726
     14 N           2.9980   -0.8337   25.6854 N.am    1  UNL1       -0.2823
     15 H           2.1489   -1.2488   25.9611 H       1  UNL1        0.1549
     16 C           3.5918   -1.1585   24.3468 C.ar    1  UNL1        0.0503
     17 C           4.7167   -2.1455   24.2449 C.ar    1  UNL1        0.0144
     18 C           5.3105   -2.4703   22.9062 C.ar    1  UNL1       -0.0002
     19 C           4.7793   -1.8081   21.6696 C.ar    1  UNL1        0.0182
     20 C           3.6544   -0.8211   21.7716 C.ar    1  UNL1       -0.0002
     21 C           3.0606   -0.4963   23.1102 C.ar    1  UNL1        0.0144
     22 C           5.3731   -2.1329   20.3309 C.3     1  UNL1        0.2827
     23 O           6.6428   -1.4386   20.7256 O.3     1  UNL1       -0.3692
     24 H           7.2784   -1.4869   19.9944 H       1  UNL1        0.2112
     25 C           5.9667   -2.4577   18.9922 C.3     1  UNL1        0.4311
     26 F           6.5604   -2.7825   17.6536 F       1  UNL1       -0.1669
     27 F           5.8762   -1.0123   18.6014 F       1  UNL1       -0.1669
     28 F           6.0625   -3.3282   19.1249 F       1  UNL1       -0.1669
     29 C           4.1033   -2.8272   19.9363 C.3     1  UNL1        0.4311
     30 F           2.8336   -3.5214   19.5416 F       1  UNL1       -0.1669
     31 F           3.8089   -2.2050   19.3788 F       1  UNL1       -0.1669
     32 F           4.1322   -4.1079   20.7167 F       1  UNL1       -0.1669
     33 S           4.4961   -0.8420   33.6085 S.O2    1  UNL1        0.0086
     34 O           3.7430   -2.1351   33.5051 O.2     1  UNL1       -0.1686
     35 O           5.2491    0.4512   33.7118 O.2     1  UNL1       -0.1686
     36 C           4.7830   -1.1246   35.0534 C.3     1  UNL1        0.1559
     37 C           4.6788   -0.0245   36.0678 C.3     1  UNL1        0.0240
     38 C           3.8625    1.0139   36.7787 C.3     1  UNL1        0.0018
     39 C           5.3144    0.8424   37.1140 C.3     1  UNL1        0.0018
     40 C          -0.1828    2.7168   27.5275 C.3     1  UNL1        0.2272
     41 C          -2.0609    3.3943   25.8650 C.3     1  UNL1        0.1748
     42 O          -1.5094    2.4414   26.8838 O.3     1  UNL1       -0.3417
@<TRIPOS>BOND
     1    41    42    1
     2    42    40    1
     3    40     1    1
     4     1     2    2
     5     1     3   am
     6     3     4    1
     7     4     5    1
     8     5     6   ar
     9     6     7   ar
    10     7    33    1
    11    33    34    2
    12    33    35    2
    13    33    36    1
    14    36    37    1
    15    37    38    1
    16    38    39    1
    17     7     8   ar
    18     8     9   ar
    19     9    10   ar
    20    10    11    1
    21    11    12    1
    22    12    13    2
    23    12    14   am
    24    14    16    1
    25    16    17   ar
    26    17    18   ar
    27    18    19   ar
    28    19    22    1
    29    22    23    1
    30    22    25    1
    31    25    26    1
    32    25    27    1
    33    25    28    1
    34    22    29    1
    35    29    30    1
    36    29    31    1
    37    29    32    1
    38    19    20   ar
    39    20    21   ar
    40    11     3    1
    41    21    16   ar
    42    10     5   ar
    43    39    37    1
    44    14    15    1
    45    23    24    1
@<TRIPOS>MOLECULE
*****
 42 45 0 0 0
SMALL
GASTEIGER

@<TRIPOS>ATOM
      1 C           1.8969    0.1904   29.2727 C.2     1  UNL1        0.2566
      2 O           1.8136    0.8735   30.6055 O.2     1  UNL1       -0.2721
      3 N           3.1527   -0.5272   28.8749 N.am    1  UNL1       -0.2634
      4 C           3.3821   -1.2519   27.5818 C.3     1  UNL1        0.1207
      5 C           4.7707   -1.8186   27.6080 C.ar    1  UNL1       -0.0030
      6 C           5.5438   -2.6272   26.6088 C.ar    1  UNL1        0.0155
      7 C           6.9456   -3.0614   26.9190 C.ar    1  UNL1        0.1054
      8 C           7.5745   -2.6868   28.2283 C.ar    1  UNL1        0.0181
      9 C           6.8014   -1.8782   29.2275 C.ar    1  UNL1       -0.0011
     10 C           5.3995   -1.4441   28.9173 C.ar    1  UNL1        0.0022
     11 C           4.3995   -0.6459   29.7003 C.3     1  UNL1        0.1751
     12 C           4.6096   -0.0680   31.0685 C.2     1  UNL1        0.2485
     13 O           5.6484    0.9924   31.2834 O.2     1  UNL1       -0.2726
     14 N           3.7806   -0.5505   32.2218 N.am    1  UNL1       -0.2823
     15 H           3.0987   -1.2465   32.0808 H       1  UNL1        0.1549
     16 C           3.9906    0.0274   33.5900 C.ar    1  UNL1        0.0503
     17 C           4.7845   -0.7321   34.6112 C.ar    1  UNL1        0.0144
     18 C           4.9945   -0.1542   35.9794 C.ar    1  UNL1       -0.0002
     19 C           4.4106    1.1833   36.3263 C.ar    1  UNL1        0.0182
     20 C           3.6168    1.9428   35.3050 C.ar    1  UNL1       -0.0002
     21 C           3.4067    1.3648   33.9369 C.ar    1  UNL1        0.0144
     22 C           4.6206    1.7613   37.6944 C.3     1  UNL1        0.2827
     23 O           6.0506    2.0561   37.3505 O.3     1  UNL1       -0.3692
     24 H           6.4868    2.4721   38.1105 H       1  UNL1        0.2112
     25 C           4.8305    2.3393   39.0626 C.3     1  UNL1        0.4311
     26 F           5.0404    2.9172   40.4308 F       1  UNL1       -0.1669
     27 F           5.0839    3.6868   38.4545 F       1  UNL1       -0.1669
     28 F           4.6971    1.5911   39.5176 F       1  UNL1       -0.1669
     29 C           3.1907    1.4664   38.0384 C.3     1  UNL1        0.4311
     30 F           1.7607    1.1715   38.3823 F       1  UNL1       -0.1669
     31 F           3.2662    0.5843   38.0670 F       1  UNL1       -0.1669
     32 F           2.5492    2.8201   38.1152 F       1  UNL1       -0.1669
     33 S           7.7188   -3.8700   25.9197 S.O2    1  UNL1        0.0086
     34 O           8.9293   -3.8042   26.8030 O.2     1  UNL1       -0.1686
     35 O           6.5082   -3.9359   25.0365 O.2     1  UNL1       -0.1686
     36 C           8.4918   -4.6787   24.9206 C.3     1  UNL1        0.1559
     37 C           8.3069   -6.1659   24.8551 C.3     1  UNL1        0.0240
     38 C           8.5461   -7.4754   24.1639 C.3     1  UNL1        0.0018
     39 C           7.7475   -7.4320   25.4329 C.3     1  UNL1        0.0018
     40 C           0.7245    0.2248   28.3378 C.3     1  UNL1        0.2272
     41 C          -1.7109    0.0915   29.2330 C.3     1  UNL1        0.1748
     42 O          -0.5042   -0.5787   28.6457 O.3     1  UNL1       -0.3417
@<TRIPOS>BOND
     1    41    42    1
     2    42    40    1
     3    40     1    1
     4     1     2    2
     5     1     3   am
     6     3     4    1
     7     4     5    1
     8     5     6   ar
     9     6     7   ar
    10     7    33    1
    11    33    34    2
    12    33    35    2
    13    33    36    1
    14    36    37    1
    15    37    38    1
    16    38    39    1
    17     7     8   ar
    18     8     9   ar
    19     9    10   ar
    20    10    11    1
    21    11    12    1
    22    12    13    2
    23    12    14   am
    24    14    16    1
    25    16    17   ar
    26    17    18   ar
    27    18    19   ar
    28    19    22    1
    29    22    23    1
    30    22    25    1
    31    25    26    1
    32    25    27    1
    33    25    28    1
    34    22    29    1
    35    29    30    1
    36    29    31    1
    37    29    32    1
    38    19    20   ar
    39    20    21   ar
    40    11     3    1
    41    21    16   ar
    42    10     5   ar
    43    39    37    1
    44    14    15    1
    45    23    24    1
