@<TRIPOS>MOLECULE
*****
 25 25 0 0 0
SMALL
GASTEIGER

@<TRIPOS>ATOM
      1 C          -5.6146  -19.3906   21.8275 C.3     1  UNL1        0.0772
      2 C          -6.5349  -18.9804   20.7163 C.3     1  UNL1        0.0438
      3 C         -10.1216  -19.6874   22.2609 C.ar    1  UNL1        0.1382
      4 C         -10.9429  -19.8354   21.0145 C.ar    1  UNL1        0.0369
      5 C         -10.2948  -19.6985   19.6686 C.ar    1  UNL1        0.0028
      6 C          -8.8255  -19.4135   19.5693 C.ar    1  UNL1       -0.0040
      7 C          -8.0043  -19.2654   20.8157 C.ar    1  UNL1       -0.0178
      8 C          -8.6524  -19.4023   22.1615 C.ar    1  UNL1        0.0327
      9 O         -10.7697  -19.8243   23.6067 O.3     1  UNL1       -0.4755
     10 C         -11.4583  -18.6469   24.2309 C.3     1  UNL1        0.2054
     11 C         -12.7446  -18.1368   23.6520 C.3     1  UNL1        0.0473
     12 C         -11.4461  -16.2519   22.4227 C.3     1  UNL1        0.0001
     13 C         -12.7334  -16.9630   22.7181 C.3     1  UNL1        0.0038
     14 N          -4.9166  -18.3462   22.6474 N.3     1  UNL1       -0.2647
     15 C          -5.6707  -17.1415   23.1271 C.3     1  UNL1        0.0751
     16 C          -5.0272  -16.1884   24.0901 C.3     1  UNL1        0.0494
     17 C          -5.8678  -15.1964   24.8381 C.3     1  UNL1        0.1437
     18 O          -5.7580  -15.0947   26.3306 O.3     1  UNL1       -0.3511
     19 C          -6.7585  -15.7904   27.2052 C.3     1  UNL1        0.1741
     20 C          -3.4645  -18.5065   22.9875 C.3     1  UNL1        0.1587
     21 C          -2.4644  -18.7704   21.9012 C.2     1  UNL1        0.2421
     22 O          -2.1511  -20.1804   21.4966 O.2     1  UNL1       -0.2734
     23 N          -1.7776  -17.6243   21.2195 N.am    1  UNL1       -0.2749
     24 C          -0.7775  -17.8882   20.1331 C.3     1  UNL1        0.1149
     25 C          -2.0909  -16.2143   21.6240 C.3     1  UNL1        0.1149
@<TRIPOS>BOND
     1    12    13    1
     2    13    11    1
     3    11    10    1
     4    10     9    1
     5     9     3    1
     6     3     4   ar
     7     4     5   ar
     8     5     6   ar
     9     6     7   ar
    10     7     2    1
    11     2     1    1
    12     1    14    1
    13    14    15    1
    14    15    16    1
    15    16    17    1
    16    17    18    1
    17    18    19    1
    18    14    20    1
    19    20    21    1
    20    21    22    2
    21    21    23   am
    22    23    24    1
    23    23    25    1
    24     7     8   ar
    25     8     3   ar
@<TRIPOS>MOLECULE
*****
 25 25 0 0 0
SMALL
GASTEIGER

@<TRIPOS>ATOM
      1 C          -6.2019  -19.9508   21.5369 C.3     1  UNL1        0.0772
      2 C          -7.3154  -19.2019   22.2072 C.3     1  UNL1        0.0438
      3 C         -10.5648  -17.2244   21.0754 C.ar    1  UNL1        0.1382
      4 C         -10.9553  -17.9980   19.8510 C.ar    1  UNL1        0.0369
      5 C         -10.1325  -19.1729   19.4121 C.ar    1  UNL1        0.0028
      6 C          -8.9192  -19.5742   20.1974 C.ar    1  UNL1       -0.0040
      7 C          -8.5287  -18.8006   21.4218 C.ar    1  UNL1       -0.0178
      8 C          -9.3515  -17.6257   21.8608 C.ar    1  UNL1        0.0327
      9 O         -11.3876  -16.0496   21.5144 O.3     1  UNL1       -0.4755
     10 C         -12.5138  -16.2437   22.4860 C.3     1  UNL1        0.2054
     11 C         -12.9574  -17.6289   22.8529 C.3     1  UNL1        0.0473
     12 C         -11.3728  -19.1407   24.2506 C.3     1  UNL1        0.0001
     13 C         -12.5549  -18.2208   24.1711 C.3     1  UNL1        0.0038
     14 N          -4.8006  -19.4185   21.5916 N.3     1  UNL1       -0.2647
     15 C          -4.2473  -18.8942   22.8834 C.3     1  UNL1        0.0751
     16 C          -3.8270  -17.4584   22.9914 C.3     1  UNL1        0.0494
     17 C          -4.7024  -16.4724   23.7069 C.3     1  UNL1        0.1437
     18 O          -6.1514  -16.3509   23.3390 O.3     1  UNL1       -0.3511
     19 C          -7.1332  -15.8000   24.3303 C.3     1  UNL1        0.1741
     20 C          -3.9525  -19.4106   20.3544 C.3     1  UNL1        0.1587
     21 C          -2.4602  -19.3108   20.4686 C.2     1  UNL1        0.2421
     22 O          -1.7121  -20.2523   21.3651 O.2     1  UNL1       -0.2734
     23 N          -1.7161  -18.2696   19.6863 N.am    1  UNL1       -0.2749
     24 C          -0.2238  -18.1698   19.8005 C.3     1  UNL1        0.1149
     25 C          -2.4642  -17.3281   18.7897 C.3     1  UNL1        0.1149
@<TRIPOS>BOND
     1    12    13    1
     2    13    11    1
     3    11    10    1
     4    10     9    1
     5     9     3    1
     6     3     4   ar
     7     4     5   ar
     8     5     6   ar
     9     6     7   ar
    10     7     2    1
    11     2     1    1
    12     1    14    1
    13    14    15    1
    14    15    16    1
    15    16    17    1
    16    17    18    1
    17    18    19    1
    18    14    20    1
    19    20    21    1
    20    21    22    2
    21    21    23   am
    22    23    24    1
    23    23    25    1
    24     7     8   ar
    25     8     3   ar
@<TRIPOS>MOLECULE
*****
 25 25 0 0 0
SMALL
GASTEIGER

@<TRIPOS>ATOM
      1 C          -5.9172  -18.1463   21.9564 C.3     1  UNL1        0.0772
      2 C          -6.5818  -19.4427   22.3134 C.3     1  UNL1        0.0438
      3 C         -10.3620  -19.0325   21.1767 C.ar    1  UNL1        0.1382
      4 C         -11.0710  -19.7523   22.2854 C.ar    1  UNL1        0.0369
      5 C         -10.2837  -20.3689   23.4034 C.ar    1  UNL1        0.0028
      6 C          -8.7873  -20.2657   23.4127 C.ar    1  UNL1       -0.0040
      7 C          -8.0782  -19.5460   22.3041 C.ar    1  UNL1       -0.0178
      8 C          -8.8656  -18.9294   21.1861 C.ar    1  UNL1        0.0327
      9 O         -11.1493  -18.4160   20.0588 O.3     1  UNL1       -0.4755
     10 C         -11.5091  -16.9606   20.1085 C.3     1  UNL1        0.2054
     11 C         -11.1452  -16.1387   21.3093 C.3     1  UNL1        0.0473
     12 C         -13.0133  -17.0871   22.8459 C.3     1  UNL1        0.0001
     13 C         -12.1397  -15.9461   22.4157 C.3     1  UNL1        0.0038
     14 N          -5.1544  -17.3826   22.9981 N.3     1  UNL1       -0.2647
     15 C          -3.9166  -17.9737   23.6050 C.3     1  UNL1        0.0751
     16 C          -2.5847  -17.7616   22.9485 C.3     1  UNL1        0.0494
     17 C          -2.1943  -18.5887   21.7595 C.3     1  UNL1        0.1437
     18 O          -2.7278  -19.9823   21.6076 O.3     1  UNL1       -0.3511
     19 C          -3.4579  -20.3737   20.3572 C.3     1  UNL1        0.1741
     20 C          -5.6296  -16.0279   23.4328 C.3     1  UNL1        0.1587
     21 C          -6.1566  -15.8285   24.8229 C.2     1  UNL1        0.2421
     22 O          -5.2110  -15.5263   25.9473 O.2     1  UNL1       -0.2734
     23 N          -7.6293  -15.9311   25.0886 N.am    1  UNL1       -0.2749
     24 C          -8.1564  -15.7317   26.4786 C.3     1  UNL1        0.1149
     25 C          -8.5750  -16.2333   23.9641 C.3     1  UNL1        0.1149
@<TRIPOS>BOND
     1    12    13    1
     2    13    11    1
     3    11    10    1
     4    10     9    1
     5     9     3    1
     6     3     4   ar
     7     4     5   ar
     8     5     6   ar
     9     6     7   ar
    10     7     2    1
    11     2     1    1
    12     1    14    1
    13    14    15    1
    14    15    16    1
    15    16    17    1
    16    17    18    1
    17    18    19    1
    18    14    20    1
    19    20    21    1
    20    21    22    2
    21    21    23   am
    22    23    24    1
    23    23    25    1
    24     7     8   ar
    25     8     3   ar
@<TRIPOS>MOLECULE
*****
 25 25 0 0 0
SMALL
GASTEIGER

@<TRIPOS>ATOM
      1 C          -4.7690  -16.8977   22.6736 C.3     1  UNL1        0.0772
      2 C          -4.5939  -16.2738   24.0264 C.3     1  UNL1        0.0438
      3 C          -8.3564  -15.6282   25.1112 C.ar    1  UNL1        0.1382
      4 C          -8.1917  -15.4022   26.5849 C.ar    1  UNL1        0.0369
      5 C          -6.8278  -15.4667   27.2057 C.ar    1  UNL1        0.0028
      6 C          -5.6285  -15.7572   26.3530 C.ar    1  UNL1       -0.0040
      7 C          -5.7932  -15.9833   24.8793 C.ar    1  UNL1       -0.0178
      8 C          -7.1572  -15.9188   24.2584 C.ar    1  UNL1        0.0327
      9 O          -9.7204  -15.5638   24.4903 O.3     1  UNL1       -0.4755
     10 C         -10.1801  -16.6591   23.5745 C.3     1  UNL1        0.2054
     11 C         -11.2276  -16.3798   22.5379 C.3     1  UNL1        0.0473
     12 C         -13.0611  -17.9522   23.4951 C.3     1  UNL1        0.0001
     13 C         -12.3455  -17.3559   22.3193 C.3     1  UNL1        0.0038
     14 N          -4.5040  -18.3618   22.4829 N.3     1  UNL1       -0.2647
     15 C          -3.0945  -18.8749   22.4811 C.3     1  UNL1        0.0751
     16 C          -2.4661  -19.3365   21.1998 C.3     1  UNL1        0.0494
     17 C          -2.7365  -18.5973   19.9228 C.3     1  UNL1        0.1437
     18 O          -1.5962  -18.0432   19.1211 O.3     1  UNL1       -0.3511
     19 C          -0.2325  -17.9307   19.7354 C.3     1  UNL1        0.1741
     20 C          -5.6486  -19.3127   22.2939 C.3     1  UNL1        0.1587
     21 C          -6.7126  -19.0135   21.2798 C.2     1  UNL1        0.2421
     22 O          -6.3380  -18.4308   19.9494 O.2     1  UNL1       -0.2734
     23 N          -8.1512  -19.2971   21.5962 N.am    1  UNL1       -0.2749
     24 C          -9.2152  -18.9979   20.5821 C.3     1  UNL1        0.1149
     25 C          -8.5258  -19.8798   22.9266 C.3     1  UNL1        0.1149
@<TRIPOS>BOND
     1    12    13    1
     2    13    11    1
     3    11    10    1
     4    10     9    1
     5     9     3    1
     6     3     4   ar
     7     4     5   ar
     8     5     6   ar
     9     6     7   ar
    10     7     2    1
    11     2     1    1
    12     1    14    1
    13    14    15    1
    14    15    16    1
    15    16    17    1
    16    17    18    1
    17    18    19    1
    18    14    20    1
    19    20    21    1
    20    21    22    2
    21    21    23   am
    22    23    24    1
    23    23    25    1
    24     7     8   ar
    25     8     3   ar
@<TRIPOS>MOLECULE
*****
 25 25 0 0 0
SMALL
GASTEIGER

@<TRIPOS>ATOM
      1 C          -6.6189  -18.7812   22.2237 C.3     1  UNL1        0.0772
      2 C          -7.7003  -19.7652   22.5586 C.3     1  UNL1        0.0438
      3 C         -10.9370  -17.5073   22.9784 C.ar    1  UNL1        0.1382
      4 C         -11.7086  -18.3031   23.9889 C.ar    1  UNL1        0.0369
      5 C         -11.1442  -19.5862   24.5228 C.ar    1  UNL1        0.0028
      6 C          -9.8081  -20.0736   24.0460 C.ar    1  UNL1       -0.0040
      7 C          -9.0365  -19.2778   23.0354 C.ar    1  UNL1       -0.0178
      8 C          -9.6009  -17.9947   22.5016 C.ar    1  UNL1        0.0327
      9 O         -11.5015  -16.2242   22.4445 O.3     1  UNL1       -0.4755
     10 C         -11.9714  -16.1459   21.0222 C.3     1  UNL1        0.2054
     11 C         -11.2342  -16.8876   19.9469 C.3     1  UNL1        0.0473
     12 C         -10.2936  -19.2373   19.3600 C.3     1  UNL1        0.0001
     13 C         -11.4391  -18.3640   19.7786 C.3     1  UNL1        0.0038
     14 N          -5.1781  -19.1833   22.3352 N.3     1  UNL1       -0.2647
     15 C          -4.6560  -20.3343   21.5274 C.3     1  UNL1        0.0751
     16 C          -4.7015  -20.2806   20.0291 C.3     1  UNL1        0.0494
     17 C          -3.6472  -19.5274   19.2732 C.3     1  UNL1        0.1437
     18 O          -3.7056  -18.0306   19.1948 O.3     1  UNL1       -0.3511
     19 C          -2.6049  -17.2718   18.5146 C.3     1  UNL1        0.1741
     20 C          -4.2594  -18.4345   23.2546 C.3     1  UNL1        0.1587
     21 C          -3.6426  -17.1419   22.8091 C.2     1  UNL1        0.2421
     22 O          -4.3669  -15.8480   23.0353 O.2     1  UNL1       -0.2734
     23 N          -2.3014  -17.1431   22.1373 N.am    1  UNL1       -0.2749
     24 C          -1.6845  -15.8505   21.6918 C.3     1  UNL1        0.1149
     25 C          -1.5771  -18.4370   21.9112 C.3     1  UNL1        0.1149
@<TRIPOS>BOND
     1    12    13    1
     2    13    11    1
     3    11    10    1
     4    10     9    1
     5     9     3    1
     6     3     4   ar
     7     4     5   ar
     8     5     6   ar
     9     6     7   ar
    10     7     2    1
    11     2     1    1
    12     1    14    1
    13    14    15    1
    14    15    16    1
    15    16    17    1
    16    17    18    1
    17    18    19    1
    18    14    20    1
    19    20    21    1
    20    21    22    2
    21    21    23   am
    22    23    24    1
    23    23    25    1
    24     7     8   ar
    25     8     3   ar
@<TRIPOS>MOLECULE
*****
 25 25 0 0 0
SMALL
GASTEIGER

@<TRIPOS>ATOM
      1 C          -6.1385  -18.1488   22.1262 C.3     1  UNL1        0.0772
      2 C          -7.0017  -19.3539   22.3556 C.3     1  UNL1        0.0438
      3 C         -10.4669  -17.7079   23.3722 C.ar    1  UNL1        0.1382
      4 C         -11.1445  -18.8656   24.0434 C.ar    1  UNL1        0.0369
      5 C         -10.4412  -20.1860   24.1520 C.ar    1  UNL1        0.0028
      6 C          -9.0603  -20.3488   23.5895 C.ar    1  UNL1       -0.0040
      7 C          -8.3827  -19.1911   22.9182 C.ar    1  UNL1       -0.0178
      8 C          -9.0860  -17.8707   22.8096 C.ar    1  UNL1        0.0327
      9 O         -11.1702  -16.3875   23.2636 O.3     1  UNL1       -0.4755
     10 C         -12.2598  -16.1992   22.2501 C.3     1  UNL1        0.2054
     11 C         -12.4366  -17.1976   21.1447 C.3     1  UNL1        0.0473
     12 C         -10.7053  -18.4889   19.7006 C.3     1  UNL1        0.0001
     13 C         -11.4654  -17.2313   20.0020 C.3     1  UNL1        0.0038
     14 N          -4.7138  -18.1463   22.5957 N.3     1  UNL1       -0.2647
     15 C          -3.8946  -19.4000   22.5126 C.3     1  UNL1        0.0751
     16 C          -3.2189  -19.7704   21.2257 C.3     1  UNL1        0.0494
     17 C          -4.0408  -20.1269   20.0225 C.3     1  UNL1        0.1437
     18 O          -5.0029  -21.2759   20.0851 O.3     1  UNL1       -0.3511
     19 C          -6.4279  -21.0850   19.6576 C.3     1  UNL1        0.1741
     20 C          -4.1085  -16.8900   23.1483 C.3     1  UNL1        0.1587
     21 C          -4.9453  -15.9507   23.9652 C.2     1  UNL1        0.2421
     22 O          -5.6986  -14.8406   23.2942 O.2     1  UNL1       -0.2734
     23 N          -5.0288  -16.1214   25.4531 N.am    1  UNL1       -0.2749
     24 C          -5.8656  -15.1821   26.2701 C.3     1  UNL1        0.1149
     25 C          -4.2755  -17.2315   26.1241 C.3     1  UNL1        0.1149
@<TRIPOS>BOND
     1    12    13    1
     2    13    11    1
     3    11    10    1
     4    10     9    1
     5     9     3    1
     6     3     4   ar
     7     4     5   ar
     8     5     6   ar
     9     6     7   ar
    10     7     2    1
    11     2     1    1
    12     1    14    1
    13    14    15    1
    14    15    16    1
    15    16    17    1
    16    17    18    1
    17    18    19    1
    18    14    20    1
    19    20    21    1
    20    21    22    2
    21    21    23   am
    22    23    24    1
    23    23    25    1
    24     7     8   ar
    25     8     3   ar
@<TRIPOS>MOLECULE
*****
 25 25 0 0 0
SMALL
GASTEIGER

@<TRIPOS>ATOM
      1 C          -6.2057  -17.9861   22.2555 C.3     1  UNL1        0.0772
      2 C          -7.6670  -17.6705   22.1335 C.3     1  UNL1        0.0438
      3 C          -9.4032  -17.9324   25.6926 C.ar    1  UNL1        0.1382
      4 C         -10.5135  -18.8964   25.3961 C.ar    1  UNL1        0.0369
      5 C         -10.6750  -19.4518   24.0121 C.ar    1  UNL1        0.0028
      6 C          -9.7262  -19.0432   22.9246 C.ar    1  UNL1       -0.0040
      7 C          -8.6159  -18.0792   23.2211 C.ar    1  UNL1       -0.0178
      8 C          -8.4544  -17.5238   24.6051 C.ar    1  UNL1        0.0327
      9 O          -9.2418  -17.3771   27.0766 O.3     1  UNL1       -0.4755
     10 C          -8.5005  -16.0901   27.2866 C.3     1  UNL1        0.2054
     11 C          -7.0088  -16.1007   27.4437 C.3     1  UNL1        0.0473
     12 C          -5.1132  -15.8551   25.6840 C.3     1  UNL1        0.0001
     13 C          -6.1559  -15.2339   26.5654 C.3     1  UNL1        0.0038
     14 N          -5.5149  -18.7686   21.1782 N.3     1  UNL1       -0.2647
     15 C          -6.2307  -19.0723   19.8955 C.3     1  UNL1        0.0751
     16 C          -7.3743  -20.0429   19.8865 C.3     1  UNL1        0.0494
     17 C          -8.5986  -19.7520   19.0701 C.3     1  UNL1        0.1437
     18 O          -9.4119  -18.5231   19.3497 O.3     1  UNL1       -0.3511
     19 C         -10.8819  -18.6428   19.6232 C.3     1  UNL1        0.1741
     20 C          -4.1083  -19.2474   21.3837 C.3     1  UNL1        0.1587
     21 C          -2.9987  -18.2561   21.5733 C.2     1  UNL1        0.2421
     22 O          -2.6894  -17.7297   22.9434 O.2     1  UNL1       -0.2734
     23 N          -2.1985  -17.7911   20.3929 N.am    1  UNL1       -0.2749
     24 C          -1.0890  -16.7997   20.5825 C.3     1  UNL1        0.1149
     25 C          -2.5079  -18.3174   19.0228 C.3     1  UNL1        0.1149
@<TRIPOS>BOND
     1    12    13    1
     2    13    11    1
     3    11    10    1
     4    10     9    1
     5     9     3    1
     6     3     4   ar
     7     4     5   ar
     8     5     6   ar
     9     6     7   ar
    10     7     2    1
    11     2     1    1
    12     1    14    1
    13    14    15    1
    14    15    16    1
    15    16    17    1
    16    17    18    1
    17    18    19    1
    18    14    20    1
    19    20    21    1
    20    21    22    2
    21    21    23   am
    22    23    24    1
    23    23    25    1
    24     7     8   ar
    25     8     3   ar
@<TRIPOS>MOLECULE
*****
 25 25 0 0 0
SMALL
GASTEIGER

@<TRIPOS>ATOM
      1 C          -6.8164  -18.7519   22.2283 C.3     1  UNL1        0.0772
      2 C          -7.8389  -19.7864   22.5944 C.3     1  UNL1        0.0438
      3 C         -11.4927  -18.2639   22.3088 C.ar    1  UNL1        0.1382
      4 C         -12.0193  -18.5300   23.6879 C.ar    1  UNL1        0.0369
      5 C         -11.1524  -19.2149   24.7025 C.ar    1  UNL1        0.0028
      6 C          -9.7589  -19.6337   24.3380 C.ar    1  UNL1       -0.0040
      7 C          -9.2324  -19.3676   22.9589 C.ar    1  UNL1       -0.0178
      8 C         -10.0993  -18.6827   21.9443 C.ar    1  UNL1        0.0327
      9 O         -12.3596  -17.5790   21.2942 O.3     1  UNL1       -0.4755
     10 C         -11.7927  -17.1965   19.9592 C.3     1  UNL1        0.2054
     11 C         -11.2758  -15.8065   19.7343 C.3     1  UNL1        0.0473
     12 C          -9.2906  -14.1722   20.1062 C.3     1  UNL1        0.0001
     13 C         -10.1925  -15.2576   20.6148 C.3     1  UNL1        0.0038
     14 N          -5.4289  -19.1721   21.8429 N.3     1  UNL1       -0.2647
     15 C          -5.2031  -19.9409   20.5749 C.3     1  UNL1        0.0751
     16 C          -5.9913  -21.1879   20.3035 C.3     1  UNL1        0.0494
     17 C          -7.1234  -21.1603   19.3197 C.3     1  UNL1        0.1437
     18 O          -7.9589  -19.9233   19.1722 O.3     1  UNL1       -0.3511
     19 C          -9.4208  -20.0389   18.8570 C.3     1  UNL1        0.1741
     20 C          -4.2673  -18.8234   22.7256 C.3     1  UNL1        0.1587
     21 C          -3.5772  -17.5008   22.5695 C.2     1  UNL1        0.2421
     22 O          -4.1246  -16.2837   23.2542 O.2     1  UNL1       -0.2734
     23 N          -2.3395  -17.3954   21.7286 N.am    1  UNL1       -0.2749
     24 C          -1.6493  -16.0728   21.5724 C.3     1  UNL1        0.1149
     25 C          -1.7920  -18.6125   21.0438 C.3     1  UNL1        0.1149
@<TRIPOS>BOND
     1    12    13    1
     2    13    11    1
     3    11    10    1
     4    10     9    1
     5     9     3    1
     6     3     4   ar
     7     4     5   ar
     8     5     6   ar
     9     6     7   ar
    10     7     2    1
    11     2     1    1
    12     1    14    1
    13    14    15    1
    14    15    16    1
    15    16    17    1
    16    17    18    1
    17    18    19    1
    18    14    20    1
    19    20    21    1
    20    21    22    2
    21    21    23   am
    22    23    24    1
    23    23    25    1
    24     7     8   ar
    25     8     3   ar
@<TRIPOS>MOLECULE
*****
 25 25 0 0 0
SMALL
GASTEIGER

@<TRIPOS>ATOM
      1 C           4.7630   -3.2196   22.4706 C.3     1  UNL1        0.0772
      2 C           4.3849   -2.0194   23.2869 C.3     1  UNL1        0.0438
      3 C           1.7223   -0.2722   20.9188 C.ar    1  UNL1        0.1382
      4 C           1.1354    0.7438   21.8533 C.ar    1  UNL1        0.0369
      5 C           1.6316    0.8387   23.2656 C.ar    1  UNL1        0.0028
      6 C           2.7148   -0.0823   23.7435 C.ar    1  UNL1       -0.0040
      7 C           3.3017   -1.0983   22.8090 C.ar    1  UNL1       -0.0178
      8 C           2.8055   -1.1932   21.3967 C.ar    1  UNL1        0.0327
      9 O           1.2261   -0.3671   19.5064 O.3     1  UNL1       -0.4755
     10 C           1.8141    0.5136   18.4441 C.3     1  UNL1        0.2054
     11 C           3.1349    0.1629   17.8255 C.3     1  UNL1        0.0473
     12 C           5.6461    0.7652   17.5407 C.3     1  UNL1        0.0001
     13 C           4.4006    0.7500   18.3764 C.3     1  UNL1        0.0038
     14 N           6.1938   -3.4386   22.0769 N.3     1  UNL1       -0.2647
     15 C           6.5677   -3.5269   20.6270 C.3     1  UNL1        0.0751
     16 C           6.0427   -2.5132   19.6540 C.3     1  UNL1        0.0494
     17 C           5.1959   -2.9529   18.4965 C.3     1  UNL1        0.1437
     18 O           3.7327   -3.2165   18.6952 O.3     1  UNL1       -0.3511
     19 C           3.2738   -4.5488   19.2094 C.3     1  UNL1        0.1741
     20 C           7.2507   -3.5691   23.1333 C.3     1  UNL1        0.1587
     21 C           7.2643   -4.7663   24.0368 C.2     1  UNL1        0.2421
     22 O           7.6514   -6.1104   23.4949 O.2     1  UNL1       -0.2734
     23 N           6.8908   -4.6196   25.4821 N.am    1  UNL1       -0.2749
     24 C           6.9043   -5.8168   26.3855 C.3     1  UNL1        0.1149
     25 C           6.5036   -3.2755   26.0239 C.3     1  UNL1        0.1149
@<TRIPOS>BOND
     1    12    13    1
     2    13    11    1
     3    11    10    1
     4    10     9    1
     5     9     3    1
     6     3     4   ar
     7     4     5   ar
     8     5     6   ar
     9     6     7   ar
    10     7     2    1
    11     2     1    1
    12     1    14    1
    13    14    15    1
    14    15    16    1
    15    16    17    1
    16    17    18    1
    17    18    19    1
    18    14    20    1
    19    20    21    1
    20    21    22    2
    21    21    23   am
    22    23    24    1
    23    23    25    1
    24     7     8   ar
    25     8     3   ar
