@<TRIPOS>MOLECULE
*****
 18 19 0 0 0
SMALL
GASTEIGER

@<TRIPOS>ATOM
      1 C          -8.6199  -18.2736   21.4537 C.ar    1  UNL1        0.0608
      2 C          -7.5077  -18.5639   20.4900 C.ar    1  UNL1        0.1071
      3 N          -7.7499  -19.4630   19.3140 N.ar    1  UNL1       -0.2417
      4 C          -9.1042  -20.0718   19.1017 C.ar    1  UNL1        0.0989
      5 C         -10.2163  -19.7816   20.0654 C.ar    1  UNL1        0.0213
      6 C          -9.9742  -18.8825   21.2414 C.ar    1  UNL1        0.0107
      7 C         -11.0864  -18.5922   22.2052 C.ar    1  UNL1        0.0007
      8 C         -12.2250  -17.7074   21.7920 C.ar    1  UNL1        0.0000
      9 C         -13.3372  -17.4171   22.7557 C.ar    1  UNL1        0.0000
     10 C         -13.3109  -18.0117   24.1326 C.ar    1  UNL1        0.0000
     11 C         -12.1723  -18.8966   24.5458 C.ar    1  UNL1        0.0000
     12 C         -11.0601  -19.1868   23.5820 C.ar    1  UNL1        0.0000
     13 C          -8.1356  -16.4754   23.8057 C.1     1  UNL1       -0.0689
     14 C          -8.3777  -17.3745   22.6297 C.1     1  UNL1       -0.0614
     15 N          -6.9467  -14.4194   24.8589 N.3     1  UNL1       -0.3102
     16 C          -7.8934  -15.5763   24.9817 C.3     1  UNL1        0.1432
     17 H          -6.9033  -13.9198   25.7471 H       1  UNL1        0.1198
     18 H          -7.2753  -13.7872   24.1290 H       1  UNL1        0.1198
@<TRIPOS>BOND
     1    15    16    1
     2    16    13    1
     3    13    14    3
     4    14     1    1
     5     1     2   ar
     6     2     3   ar
     7     3     4   ar
     8     4     5   ar
     9     5     6   ar
    10     6     7    1
    11     7     8   ar
    12     8     9   ar
    13     9    10   ar
    14    10    11   ar
    15    11    12   ar
    16     6     1   ar
    17    12     7   ar
    18    15    17    1
    19    15    18    1
@<TRIPOS>MOLECULE
*****
 18 19 0 0 0
SMALL
GASTEIGER

@<TRIPOS>ATOM
      1 C          -7.1887  -16.7368   23.5383 C.ar    1  UNL1        0.0608
      2 C          -5.8645  -16.1022   23.8443 C.ar    1  UNL1        0.1071
      3 N          -5.7352  -15.1574   25.0022 N.ar    1  UNL1       -0.2417
      4 C          -6.9301  -14.8474   25.8541 C.ar    1  UNL1        0.0989
      5 C          -8.2543  -15.4820   25.5482 C.ar    1  UNL1        0.0213
      6 C          -8.3836  -16.4268   24.3903 C.ar    1  UNL1        0.0107
      7 C          -9.7079  -17.0614   24.0844 C.ar    1  UNL1        0.0007
      8 C         -10.1053  -18.3351   24.7698 C.ar    1  UNL1        0.0000
      9 C         -11.4295  -18.9698   24.4639 C.ar    1  UNL1        0.0000
     10 C         -12.3564  -18.3308   23.4726 C.ar    1  UNL1        0.0000
     11 C         -11.9590  -17.0571   22.7872 C.ar    1  UNL1        0.0000
     12 C         -10.6347  -16.4224   23.0931 C.ar    1  UNL1        0.0000
     13 C          -7.4472  -18.6263   21.2225 C.1     1  UNL1       -0.0689
     14 C          -7.3179  -17.6816   22.3804 C.1     1  UNL1       -0.0614
     15 N          -8.5742  -19.2950   18.9792 N.3     1  UNL1       -0.3102
     16 C          -7.5764  -19.5711   20.0646 C.3     1  UNL1        0.1432
     17 H          -8.5267  -20.0340   18.2777 H       1  UNL1        0.1198
     18 H          -8.3623  -18.3978   18.5427 H       1  UNL1        0.1198
@<TRIPOS>BOND
     1    15    16    1
     2    16    13    1
     3    13    14    3
     4    14     1    1
     5     1     2   ar
     6     2     3   ar
     7     3     4   ar
     8     4     5   ar
     9     5     6   ar
    10     6     7    1
    11     7     8   ar
    12     8     9   ar
    13     9    10   ar
    14    10    11   ar
    15    11    12   ar
    16     6     1   ar
    17    12     7   ar
    18    15    17    1
    19    15    18    1
@<TRIPOS>MOLECULE
*****
 18 19 0 0 0
SMALL
GASTEIGER

@<TRIPOS>ATOM
      1 C          -9.6846  -17.8462   21.6804 C.ar    1  UNL1        0.0608
      2 C         -10.3837  -18.1050   20.3788 C.ar    1  UNL1        0.1071
      3 N         -11.8147  -17.6919   20.2009 N.ar    1  UNL1       -0.2417
      4 C         -12.5465  -17.0199   21.3246 C.ar    1  UNL1        0.0989
      5 C         -11.8474  -16.7611   22.6262 C.ar    1  UNL1        0.0213
      6 C         -10.4164  -17.1743   22.8041 C.ar    1  UNL1        0.0107
      7 C          -9.7173  -16.9154   24.1058 C.ar    1  UNL1        0.0007
      8 C          -8.9441  -15.6451   24.3022 C.ar    1  UNL1        0.0000
      9 C          -8.2450  -15.3862   25.6038 C.ar    1  UNL1        0.0000
     10 C          -8.3191  -16.3977   26.7090 C.ar    1  UNL1        0.0000
     11 C          -9.0923  -17.6680   26.5126 C.ar    1  UNL1        0.0000
     12 C          -9.7914  -17.9268   25.2110 C.ar    1  UNL1        0.0000
     13 C          -6.8227  -18.6726   22.0361 C.1     1  UNL1       -0.0689
     14 C          -8.2536  -18.2594   21.8582 C.1     1  UNL1       -0.0614
     15 N          -4.3523  -18.6311   21.2327 N.3     1  UNL1       -0.3102
     16 C          -5.3917  -19.0857   22.2139 C.3     1  UNL1        0.1432
     17 H          -3.4421  -19.0022   21.5052 H       1  UNL1        0.1198
     18 H          -4.3153  -17.6118   21.2244 H       1  UNL1        0.1198
@<TRIPOS>BOND
     1    15    16    1
     2    16    13    1
     3    13    14    3
     4    14     1    1
     5     1     2   ar
     6     2     3   ar
     7     3     4   ar
     8     4     5   ar
     9     5     6   ar
    10     6     7    1
    11     7     8   ar
    12     8     9   ar
    13     9    10   ar
    14    10    11   ar
    15    11    12   ar
    16     6     1   ar
    17    12     7   ar
    18    15    17    1
    19    15    18    1
@<TRIPOS>MOLECULE
*****
 18 19 0 0 0
SMALL
GASTEIGER

@<TRIPOS>ATOM
      1 C          -5.8299  -18.6882   21.9609 C.ar    1  UNL1        0.0608
      2 C          -4.3332  -18.7444   21.8805 C.ar    1  UNL1        0.1071
      3 N          -3.6658  -19.7986   21.0478 N.ar    1  UNL1       -0.2417
      4 C          -4.4952  -20.7965   20.2955 C.ar    1  UNL1        0.0989
      5 C          -5.9920  -20.7403   20.3758 C.ar    1  UNL1        0.0213
      6 C          -6.6593  -19.6861   21.2085 C.ar    1  UNL1        0.0107
      7 C          -8.1562  -19.6299   21.2887 C.ar    1  UNL1        0.0007
      8 C          -8.8524  -19.9838   22.5694 C.ar    1  UNL1        0.0000
      9 C         -10.3491  -19.9276   22.6497 C.ar    1  UNL1        0.0000
     10 C         -11.1498  -19.5175   21.4494 C.ar    1  UNL1        0.0000
     11 C         -10.4536  -19.1636   20.1687 C.ar    1  UNL1        0.0000
     12 C          -8.9568  -19.2198   20.0884 C.ar    1  UNL1        0.0000
     13 C          -7.1646  -16.5798   23.6263 C.1     1  UNL1       -0.0689
     14 C          -6.4973  -17.6340   22.7936 C.1     1  UNL1       -0.0614
     15 N          -7.6660  -14.0767   24.1086 N.3     1  UNL1       -0.3102
     16 C          -7.8319  -15.5257   24.4589 C.3     1  UNL1        0.1432
     17 H          -8.1838  -13.5042   24.7753 H       1  UNL1        0.1198
     18 H          -8.0242  -13.9111   23.1680 H       1  UNL1        0.1198
@<TRIPOS>BOND
     1    15    16    1
     2    16    13    1
     3    13    14    3
     4    14     1    1
     5     1     2   ar
     6     2     3   ar
     7     3     4   ar
     8     4     5   ar
     9     5     6   ar
    10     6     7    1
    11     7     8   ar
    12     8     9   ar
    13     9    10   ar
    14    10    11   ar
    15    11    12   ar
    16     6     1   ar
    17    12     7   ar
    18    15    17    1
    19    15    18    1
@<TRIPOS>MOLECULE
*****
 18 19 0 0 0
SMALL
GASTEIGER

@<TRIPOS>ATOM
      1 C          -9.5857  -17.7594   21.5435 C.ar    1  UNL1        0.0608
      2 C         -10.5234  -18.1756   20.4493 C.ar    1  UNL1        0.1071
      3 N         -11.9076  -17.6009   20.3887 N.ar    1  UNL1       -0.2417
      4 C         -12.3541  -16.6099   21.4224 C.ar    1  UNL1        0.0989
      5 C         -11.4164  -16.1937   22.5167 C.ar    1  UNL1        0.0213
      6 C         -10.0322  -16.7684   22.5772 C.ar    1  UNL1        0.0107
      7 C          -9.0945  -16.3521   23.6715 C.ar    1  UNL1        0.0007
      8 C          -9.3076  -16.8483   25.0710 C.ar    1  UNL1        0.0000
      9 C          -8.3700  -16.4321   26.1653 C.ar    1  UNL1        0.0000
     10 C          -7.2191  -15.5196   25.8602 C.ar    1  UNL1        0.0000
     11 C          -7.0060  -15.0234   24.4607 C.ar    1  UNL1        0.0000
     12 C          -7.9437  -15.4397   23.3664 C.ar    1  UNL1        0.0000
     13 C          -6.8173  -18.9089   21.6646 C.1     1  UNL1       -0.0689
     14 C          -8.2015  -18.3341   21.6041 C.1     1  UNL1       -0.0614
     15 N          -4.2474  -18.6175   21.4190 N.3     1  UNL1       -0.3102
     16 C          -5.4331  -19.4836   21.7252 C.3     1  UNL1        0.1432
     17 H          -3.3928  -19.1673   21.5078 H       1  UNL1        0.1198
     18 H          -4.2187  -17.8364   22.0742 H       1  UNL1        0.1198
@<TRIPOS>BOND
     1    15    16    1
     2    16    13    1
     3    13    14    3
     4    14     1    1
     5     1     2   ar
     6     2     3   ar
     7     3     4   ar
     8     4     5   ar
     9     5     6   ar
    10     6     7    1
    11     7     8   ar
    12     8     9   ar
    13     9    10   ar
    14    10    11   ar
    15    11    12   ar
    16     6     1   ar
    17    12     7   ar
    18    15    17    1
    19    15    18    1
@<TRIPOS>MOLECULE
*****
 18 19 0 0 0
SMALL
GASTEIGER

@<TRIPOS>ATOM
      1 C          -4.6245  -18.6054   22.0949 C.ar    1  UNL1        0.0608
      2 C          -3.2202  -18.8740   21.6416 C.ar    1  UNL1        0.1071
      3 N          -2.9520  -19.9431   20.6242 N.ar    1  UNL1       -0.2417
      4 C          -4.0882  -20.7437   20.0602 C.ar    1  UNL1        0.0989
      5 C          -5.4925  -20.4751   20.5136 C.ar    1  UNL1        0.0213
      6 C          -5.7607  -19.4059   21.5309 C.ar    1  UNL1        0.0107
      7 C          -7.1652  -19.1373   21.9842 C.ar    1  UNL1        0.0007
      8 C          -7.8284  -17.8366   21.6404 C.ar    1  UNL1        0.0000
      9 C          -9.2328  -17.5680   22.0937 C.ar    1  UNL1        0.0000
     10 C          -9.9740  -18.6001   22.8908 C.ar    1  UNL1        0.0000
     11 C          -9.3108  -19.9008   23.2346 C.ar    1  UNL1        0.0000
     12 C          -7.9063  -20.1694   22.7813 C.ar    1  UNL1        0.0000
     13 C          -5.1609  -16.4670   24.1295 C.1     1  UNL1       -0.0689
     14 C          -4.8927  -17.5362   23.1122 C.1     1  UNL1       -0.0614
     15 N          -6.5701  -14.4443   24.9498 N.3     1  UNL1       -0.3102
     16 C          -5.4291  -15.3978   25.1469 C.3     1  UNL1        0.1432
     17 H          -6.6049  -13.7897   25.7312 H       1  UNL1        0.1198
     18 H          -7.4453  -14.9662   24.9043 H       1  UNL1        0.1198
@<TRIPOS>BOND
     1    15    16    1
     2    16    13    1
     3    13    14    3
     4    14     1    1
     5     1     2   ar
     6     2     3   ar
     7     3     4   ar
     8     4     5   ar
     9     5     6   ar
    10     6     7    1
    11     7     8   ar
    12     8     9   ar
    13     9    10   ar
    14    10    11   ar
    15    11    12   ar
    16     6     1   ar
    17    12     7   ar
    18    15    17    1
    19    15    18    1
@<TRIPOS>MOLECULE
*****
 18 19 0 0 0
SMALL
GASTEIGER

@<TRIPOS>ATOM
      1 C          -9.5542  -16.0053   21.4605 C.ar    1  UNL1        0.0608
      2 C          -9.7295  -14.9632   20.3959 C.ar    1  UNL1        0.1071
      3 N         -10.8392  -15.0927   19.3950 N.ar    1  UNL1       -0.2417
      4 C         -11.7735  -16.2644   19.4586 C.ar    1  UNL1        0.0989
      5 C         -11.5982  -17.3065   20.5231 C.ar    1  UNL1        0.0213
      6 C         -10.4886  -17.1769   21.5241 C.ar    1  UNL1        0.0107
      7 C         -10.3133  -18.2191   22.5886 C.ar    1  UNL1        0.0007
      8 C          -9.2902  -19.3025   22.4164 C.ar    1  UNL1        0.0000
      9 C          -9.1149  -20.3446   23.4808 C.ar    1  UNL1        0.0000
     10 C          -9.9627  -20.3035   24.7176 C.ar    1  UNL1        0.0000
     11 C         -10.9858  -19.2201   24.8899 C.ar    1  UNL1        0.0000
     12 C         -11.1611  -18.1779   23.8253 C.ar    1  UNL1        0.0000
     13 C          -7.3348  -15.7462   23.4623 C.1     1  UNL1       -0.0689
     14 C          -8.4445  -15.8757   22.4614 C.1     1  UNL1       -0.0614
     15 N          -6.3011  -14.5711   25.5360 N.3     1  UNL1       -0.3102
     16 C          -6.2251  -15.6166   24.4632 C.3     1  UNL1        0.1432
     17 H          -5.4687  -14.6252   26.1230 H       1  UNL1        0.1198
     18 H          -7.1310  -14.7298   26.1074 H       1  UNL1        0.1198
@<TRIPOS>BOND
     1    15    16    1
     2    16    13    1
     3    13    14    3
     4    14     1    1
     5     1     2   ar
     6     2     3   ar
     7     3     4   ar
     8     4     5   ar
     9     5     6   ar
    10     6     7    1
    11     7     8   ar
    12     8     9   ar
    13     9    10   ar
    14    10    11   ar
    15    11    12   ar
    16     6     1   ar
    17    12     7   ar
    18    15    17    1
    19    15    18    1
@<TRIPOS>MOLECULE
*****
 18 19 0 0 0
SMALL
GASTEIGER

@<TRIPOS>ATOM
      1 C          -7.8329  -17.9765   22.3199 C.ar    1  UNL1        0.0608
      2 C          -6.4501  -18.3601   21.8831 C.ar    1  UNL1        0.1071
      3 N          -6.2587  -19.2215   20.6701 N.ar    1  UNL1       -0.2417
      4 C          -7.4500  -19.6993   19.8940 C.ar    1  UNL1        0.0989
      5 C          -8.8327  -19.3158   20.3308 C.ar    1  UNL1        0.0213
      6 C          -9.0242  -18.4543   21.5438 C.ar    1  UNL1        0.0107
      7 C         -10.4070  -18.0708   21.9806 C.ar    1  UNL1        0.0007
      8 C         -10.9956  -18.6732   23.2218 C.ar    1  UNL1        0.0000
      9 C         -12.3783  -18.2897   23.6586 C.ar    1  UNL1        0.0000
     10 C         -13.1726  -17.3037   22.8542 C.ar    1  UNL1        0.0000
     11 C         -12.5840  -16.7012   21.6130 C.ar    1  UNL1        0.0000
     12 C         -11.2012  -17.0848   21.1762 C.ar    1  UNL1        0.0000
     13 C          -8.2158  -16.2536   24.7458 C.1     1  UNL1       -0.0689
     14 C          -8.0243  -17.1150   23.5329 C.1     1  UNL1       -0.0614
     15 N          -7.2315  -15.0377   26.8201 N.3     1  UNL1       -0.3102
     16 C          -8.4072  -15.3922   25.9588 C.3     1  UNL1        0.1432
     17 H          -7.5419  -14.4509   27.5945 H       1  UNL1        0.1198
     18 H          -6.5431  -14.5306   26.2639 H       1  UNL1        0.1198
@<TRIPOS>BOND
     1    15    16    1
     2    16    13    1
     3    13    14    3
     4    14     1    1
     5     1     2   ar
     6     2     3   ar
     7     3     4   ar
     8     4     5   ar
     9     5     6   ar
    10     6     7    1
    11     7     8   ar
    12     8     9   ar
    13     9    10   ar
    14    10    11   ar
    15    11    12   ar
    16     6     1   ar
    17    12     7   ar
    18    15    17    1
    19    15    18    1
@<TRIPOS>MOLECULE
*****
 18 19 0 0 0
SMALL
GASTEIGER

@<TRIPOS>ATOM
      1 C          -8.3321  -18.6632   21.1415 C.ar    1  UNL1        0.0608
      2 C          -8.7946  -19.4411   19.9454 C.ar    1  UNL1        0.1071
      3 N         -10.1963  -19.2738   19.4380 N.ar    1  UNL1       -0.2417
      4 C         -11.1354  -18.3285   20.1269 C.ar    1  UNL1        0.0989
      5 C         -10.6728  -17.5505   21.3230 C.ar    1  UNL1        0.0213
      6 C          -9.2711  -17.7179   21.8303 C.ar    1  UNL1        0.0107
      7 C          -8.8086  -16.9399   23.0265 C.ar    1  UNL1        0.0007
      8 C          -9.2302  -17.3601   24.4033 C.ar    1  UNL1        0.0000
      9 C          -8.7677  -16.5822   25.5995 C.ar    1  UNL1        0.0000
     10 C          -7.8836  -15.3839   25.4189 C.ar    1  UNL1        0.0000
     11 C          -7.4620  -14.9636   24.0421 C.ar    1  UNL1        0.0000
     12 C          -7.9245  -15.7417   22.8458 C.ar    1  UNL1        0.0000
     13 C          -5.5288  -18.9978   22.1561 C.1     1  UNL1       -0.0689
     14 C          -6.9304  -18.8305   21.6488 C.1     1  UNL1       -0.0614
     15 N          -3.0536  -19.6735   21.7474 N.3     1  UNL1       -0.3102
     16 C          -4.1271  -19.1652   22.6635 C.3     1  UNL1        0.1432
     17 H          -2.1700  -19.7244   22.2544 H       1  UNL1        0.1198
     18 H          -2.9547  -19.0392   20.9547 H       1  UNL1        0.1198
@<TRIPOS>BOND
     1    15    16    1
     2    16    13    1
     3    13    14    3
     4    14     1    1
     5     1     2   ar
     6     2     3   ar
     7     3     4   ar
     8     4     5   ar
     9     5     6   ar
    10     6     7    1
    11     7     8   ar
    12     8     9   ar
    13     9    10   ar
    14    10    11   ar
    15    11    12   ar
    16     6     1   ar
    17    12     7   ar
    18    15    17    1
    19    15    18    1
