@<TRIPOS>MOLECULE
*****
 32 35 0 0 0
SMALL
GASTEIGER

@<TRIPOS>ATOM
      1 C          -2.1795  -18.5080   21.9690 C.3     1  UNL1        0.1383
      2 N          -3.6397  -18.7735   21.7509 N.ar    1  UNL1       -0.2455
      3 C          -4.6636  -17.8126   22.2784 C.ar    1  UNL1        0.2816
      4 O          -4.2273  -16.5862   23.0238 O.2     1  UNL1       -0.2652
      5 C          -6.1237  -18.0780   22.0604 C.ar    1  UNL1        0.1342
      6 C          -6.5600  -19.3044   21.3149 C.ar    1  UNL1        0.0871
      7 C          -8.0588  -19.3015   21.2544 C.ar    1  UNL1        0.0515
      8 C          -8.5488  -18.0733   21.9625 C.ar    1  UNL1        0.1142
      9 N          -7.3529  -17.3171   22.4606 N.ar    1  UNL1       -0.3068
     10 N          -5.5361  -20.2653   20.7875 N.ar    1  UNL1       -0.2776
     11 C          -5.9723  -21.4917   20.0420 C.3     1  UNL1        0.1351
     12 C          -4.0759  -19.9998   21.0055 C.ar    1  UNL1        0.3339
     13 O          -3.0520  -20.9608   20.4780 O.2     1  UNL1       -0.2462
     14 N          -9.9830  -17.6717   22.1412 N.pl3   1  UNL1       -0.2932
     15 C         -10.5943  -16.6483   21.2307 C.3     1  UNL1        0.0922
     16 C         -12.0285  -16.2468   21.4095 C.3     1  UNL1        0.0228
     17 C         -12.8513  -16.8686   22.4986 C.3     1  UNL1        0.0177
     18 C         -12.2400  -17.8920   23.4091 C.3     1  UNL1        0.0575
     19 C         -12.1113  -18.8972   24.5150 C.3     1  UNL1        0.0173
     20 N         -13.6295  -17.8395   23.9718 N.3     1  UNL1       -0.3219
     21 C         -10.8058  -18.2935   23.2303 C.3     1  UNL1        0.1062
     22 H         -14.1853  -17.1674   23.4431 H       1  UNL1        0.1188
     23 H         -13.5895  -17.5530   24.9500 H       1  UNL1        0.1188
     24 C          -7.3812  -16.0267   23.2248 C.3     1  UNL1        0.1350
     25 C          -7.4160  -16.0437   24.7243 C.ar    1  UNL1        0.0132
     26 C          -8.5227  -16.7590   25.4408 C.ar    1  UNL1        0.0281
     27 C          -8.5575  -16.7760   26.9403 C.ar    1  UNL1        0.1399
     28 F          -9.6642  -17.4914   27.6568 F       1  UNL1       -0.2042
     29 C          -7.4854  -16.0776   27.7233 C.ar    1  UNL1        0.0305
     30 C          -6.3788  -15.3623   27.0068 C.ar    1  UNL1        0.0134
     31 C          -6.3440  -15.3452   25.5073 C.ar    1  UNL1        0.0557
     32 CL         -5.2373  -14.6299   24.7908 Cl      1  UNL1       -0.0825
@<TRIPOS>BOND
     1     1     2    1
     2     2     3   ar
     3     3     4    2
     4     3     5   ar
     5     5     6   ar
     6     6     7   ar
     7     7     8   ar
     8     8    14    1
     9    14    15    1
    10    15    16    1
    11    16    17    1
    12    17    18    1
    13    18    19    1
    14    18    20    1
    15    18    21    1
    16     8     9   ar
    17     9    24    1
    18    24    25    1
    19    25    26   ar
    20    26    27   ar
    21    27    28    1
    22    27    29   ar
    23    29    30   ar
    24    30    31   ar
    25    31    32    1
    26     6    10   ar
    27    10    11    1
    28    10    12   ar
    29    12    13    2
    30    12     2   ar
    31     9     5   ar
    32    31    25   ar
    33    21    14    1
    34    20    22    1
    35    20    23    1
@<TRIPOS>MOLECULE
*****
 32 35 0 0 0
SMALL
GASTEIGER

@<TRIPOS>ATOM
      1 C          -2.3226  -18.0106   23.2965 C.3     1  UNL1        0.1383
      2 N          -3.6395  -18.3613   22.6696 N.ar    1  UNL1       -0.2455
      3 C          -4.8509  -17.5227   22.9507 C.ar    1  UNL1        0.2816
      4 O          -4.7455  -16.3333   23.8587 O.2     1  UNL1       -0.2652
      5 C          -6.1678  -17.8733   22.3239 C.ar    1  UNL1        0.1342
      6 C          -6.2732  -19.0626   21.4159 C.ar    1  UNL1        0.0871
      7 C          -7.6940  -19.1622   20.9455 C.ar    1  UNL1        0.0515
      8 C          -8.4667  -18.0344   21.5627 C.ar    1  UNL1        0.1142
      9 N          -7.5235  -17.2378   22.4146 N.ar    1  UNL1       -0.3068
     10 N          -5.0618  -19.9013   21.1348 N.ar    1  UNL1       -0.2776
     11 C          -5.1671  -21.0907   20.2268 C.3     1  UNL1        0.1351
     12 C          -3.7449  -19.5506   21.7617 C.ar    1  UNL1        0.3339
     13 O          -2.5334  -20.3893   21.4805 O.2     1  UNL1       -0.2462
     14 N          -9.9264  -17.7526   21.3631 N.pl3   1  UNL1       -0.2932
     15 C         -10.9536  -18.5557   22.1047 C.3     1  UNL1        0.0922
     16 C         -12.4133  -18.2739   21.9050 C.3     1  UNL1        0.0228
     17 C         -12.8459  -17.1889   20.9638 C.3     1  UNL1        0.0177
     18 C         -11.8187  -16.3858   20.2223 C.3     1  UNL1        0.0575
     19 C         -11.2272  -15.3612   19.3002 C.3     1  UNL1        0.0173
     20 N         -13.0730  -15.7482   19.7024 N.3     1  UNL1       -0.3219
     21 C         -10.3590  -16.6677   20.4219 C.3     1  UNL1        0.1062
     22 H         -13.8842  -16.1985   20.1261 H       1  UNL1        0.1188
     23 H         -13.1146  -15.8565   18.6890 H       1  UNL1        0.1188
     24 C          -7.8743  -16.0196   23.2164 C.3     1  UNL1        0.1350
     25 C          -7.9235  -16.0959   24.7137 C.ar    1  UNL1        0.0132
     26 C          -7.0286  -15.2196   25.5391 C.ar    1  UNL1        0.0281
     27 C          -7.0778  -15.2958   27.0363 C.ar    1  UNL1        0.1399
     28 F          -6.1828  -14.4196   27.8617 F       1  UNL1       -0.2042
     29 C          -8.0219  -16.2483   27.7082 C.ar    1  UNL1        0.0305
     30 C          -8.9168  -17.1245   26.8829 C.ar    1  UNL1        0.0134
     31 C          -8.8677  -17.0484   25.3856 C.ar    1  UNL1        0.0557
     32 CL         -9.7626  -17.9246   24.5602 Cl      1  UNL1       -0.0825
@<TRIPOS>BOND
     1     1     2    1
     2     2     3   ar
     3     3     4    2
     4     3     5   ar
     5     5     6   ar
     6     6     7   ar
     7     7     8   ar
     8     8    14    1
     9    14    15    1
    10    15    16    1
    11    16    17    1
    12    17    18    1
    13    18    19    1
    14    18    20    1
    15    18    21    1
    16     8     9   ar
    17     9    24    1
    18    24    25    1
    19    25    26   ar
    20    26    27   ar
    21    27    28    1
    22    27    29   ar
    23    29    30   ar
    24    30    31   ar
    25    31    32    1
    26     6    10   ar
    27    10    11    1
    28    10    12   ar
    29    12    13    2
    30    12     2   ar
    31     9     5   ar
    32    31    25   ar
    33    21    14    1
    34    20    22    1
    35    20    23    1
@<TRIPOS>MOLECULE
*****
 32 35 0 0 0
SMALL
GASTEIGER

@<TRIPOS>ATOM
      1 C         -17.1029  -11.0422   18.6075 C.3     1  UNL1        0.1383
      2 N         -17.1862   -9.5922   18.2323 N.ar    1  UNL1       -0.2455
      3 C         -16.1975   -8.6142   18.7945 C.ar    1  UNL1        0.2816
      4 O         -15.1257   -9.0861   19.7318 O.2     1  UNL1       -0.2652
      5 C         -16.2807   -7.1642   18.4194 C.ar    1  UNL1        0.1342
      6 C         -17.3526   -6.6923   17.4821 C.ar    1  UNL1        0.0871
      7 C         -17.1866   -5.2133   17.2951 C.ar    1  UNL1        0.0515
      8 C         -16.0123   -4.7711   18.1169 C.ar    1  UNL1        0.1142
      9 N         -15.4524   -5.9769   18.8117 N.ar    1  UNL1       -0.3068
     10 N         -18.3412   -7.6704   16.9199 N.ar    1  UNL1       -0.2776
     11 C         -19.4131   -7.1985   15.9826 C.3     1  UNL1        0.1351
     12 C         -18.2579   -9.1204   17.2951 C.ar    1  UNL1        0.3339
     13 O         -19.2466  -10.0985   16.7329 O.2     1  UNL1       -0.2462
     14 N         -15.4895   -3.3693   18.2249 N.pl3   1  UNL1       -0.2932
     15 C         -15.9752   -2.4702   19.3229 C.3     1  UNL1        0.0922
     16 C         -15.4524   -1.0684   19.4308 C.3     1  UNL1        0.0228
     17 C         -14.4439   -0.5657   18.4408 C.3     1  UNL1        0.0177
     18 C         -13.9582   -1.4648   17.3427 C.3     1  UNL1        0.0575
     19 C         -13.1994   -1.9336   16.1368 C.3     1  UNL1        0.0173
     20 N         -13.1719   -0.2258   17.0319 N.3     1  UNL1       -0.3219
     21 C         -14.4810   -2.8666   17.2348 C.3     1  UNL1        0.1062
     22 H         -13.3987    0.5003   17.7114 H       1  UNL1        0.1188
     23 H         -13.4075    0.1002   16.0945 H       1  UNL1        0.1188
     24 C         -14.2715   -5.9924   19.7365 C.3     1  UNL1        0.1350
     25 C         -12.8800   -5.9797   19.1763 C.ar    1  UNL1        0.0132
     26 C         -12.3330   -7.2011   18.4989 C.ar    1  UNL1        0.0281
     27 C         -10.9416   -7.1884   17.9388 C.ar    1  UNL1        0.1399
     28 F         -10.3946   -8.4098   17.2614 F       1  UNL1       -0.2042
     29 C         -10.0971   -5.9541   18.0560 C.ar    1  UNL1        0.0305
     30 C         -10.6441   -4.7328   18.7334 C.ar    1  UNL1        0.0134
     31 C         -12.0356   -4.7454   19.2936 C.ar    1  UNL1        0.0557
     32 CL        -12.5826   -3.5241   19.9710 Cl      1  UNL1       -0.0825
@<TRIPOS>BOND
     1     1     2    1
     2     2     3   ar
     3     3     4    2
     4     3     5   ar
     5     5     6   ar
     6     6     7   ar
     7     7     8   ar
     8     8    14    1
     9    14    15    1
    10    15    16    1
    11    16    17    1
    12    17    18    1
    13    18    19    1
    14    18    20    1
    15    18    21    1
    16     8     9   ar
    17     9    24    1
    18    24    25    1
    19    25    26   ar
    20    26    27   ar
    21    27    28    1
    22    27    29   ar
    23    29    30   ar
    24    30    31   ar
    25    31    32    1
    26     6    10   ar
    27    10    11    1
    28    10    12   ar
    29    12    13    2
    30    12     2   ar
    31     9     5   ar
    32    31    25   ar
    33    21    14    1
    34    20    22    1
    35    20    23    1
@<TRIPOS>MOLECULE
*****
 32 35 0 0 0
SMALL
GASTEIGER

@<TRIPOS>ATOM
      1 C         -12.7232  -15.9136   22.6782 C.3     1  UNL1        0.1383
      2 N         -11.5336  -16.7396   22.2873 N.ar    1  UNL1       -0.2455
      3 C         -10.1655  -16.3600   22.7710 C.ar    1  UNL1        0.2816
      4 O          -9.9868  -15.1545   23.6455 O.2     1  UNL1       -0.2652
      5 C          -8.9759  -17.1860   22.3801 C.ar    1  UNL1        0.1342
      6 C          -9.1546  -18.3916   21.5056 C.ar    1  UNL1        0.0871
      7 C          -7.8054  -19.0092   21.2864 C.ar    1  UNL1        0.0515
      8 C          -6.7929  -18.1854   22.0254 C.ar    1  UNL1        0.1142
      9 N          -7.5163  -17.0586   22.7014 N.ar    1  UNL1       -0.3068
     10 N         -10.5228  -18.7711   21.0220 N.ar    1  UNL1       -0.2776
     11 C         -10.7015  -19.9767   20.1474 C.3     1  UNL1        0.1351
     12 C         -11.7123  -17.9451   21.4128 C.ar    1  UNL1        0.3339
     13 O         -13.0806  -18.3247   20.9291 O.2     1  UNL1       -0.2462
     14 N          -5.3161  -18.4432   22.0790 N.pl3   1  UNL1       -0.2932
     15 C          -4.4670  -17.7326   23.0909 C.3     1  UNL1        0.0922
     16 C          -2.9903  -17.9904   23.1445 C.3     1  UNL1        0.0228
     17 C          -2.3627  -18.9587   22.1861 C.3     1  UNL1        0.0177
     18 C          -3.2118  -19.6693   21.1742 C.3     1  UNL1        0.0575
     19 C          -3.5941  -20.5791   20.0446 C.3     1  UNL1        0.0173
     20 N          -1.8679  -20.2430   20.8355 N.3     1  UNL1       -0.3219
     21 C          -4.6885  -19.4115   21.1206 C.3     1  UNL1        0.1062
     22 H          -1.1624  -19.8456   21.4558 H       1  UNL1        0.1188
     23 H          -1.6359  -20.0175   19.8681 H       1  UNL1        0.1188
     24 C          -6.8900  -15.9917   23.5496 C.3     1  UNL1        0.1350
     25 C          -7.0975  -15.9966   25.0352 C.ar    1  UNL1        0.0132
     26 C          -8.2668  -16.7267   25.6267 C.ar    1  UNL1        0.0281
     27 C          -8.4743  -16.7316   27.1123 C.ar    1  UNL1        0.1399
     28 F          -9.6435  -17.4617   27.7038 F       1  UNL1       -0.2042
     29 C          -7.5126  -16.0063   28.0063 C.ar    1  UNL1        0.0305
     30 C          -6.3435  -15.2763   27.4148 C.ar    1  UNL1        0.0134
     31 C          -6.1358  -15.2714   25.9292 C.ar    1  UNL1        0.0557
     32 CL         -4.9667  -14.5413   25.3377 Cl      1  UNL1       -0.0825
@<TRIPOS>BOND
     1     1     2    1
     2     2     3   ar
     3     3     4    2
     4     3     5   ar
     5     5     6   ar
     6     6     7   ar
     7     7     8   ar
     8     8    14    1
     9    14    15    1
    10    15    16    1
    11    16    17    1
    12    17    18    1
    13    18    19    1
    14    18    20    1
    15    18    21    1
    16     8     9   ar
    17     9    24    1
    18    24    25    1
    19    25    26   ar
    20    26    27   ar
    21    27    28    1
    22    27    29   ar
    23    29    30   ar
    24    30    31   ar
    25    31    32    1
    26     6    10   ar
    27    10    11    1
    28    10    12   ar
    29    12    13    2
    30    12     2   ar
    31     9     5   ar
    32    31    25   ar
    33    21    14    1
    34    20    22    1
    35    20    23    1
@<TRIPOS>MOLECULE
*****
 32 35 0 0 0
SMALL
GASTEIGER

@<TRIPOS>ATOM
      1 C         -18.1013   -9.0963   17.1690 C.3     1  UNL1        0.1383
      2 N         -17.6433   -7.7324   17.5936 N.ar    1  UNL1       -0.2455
      3 C         -16.2955   -7.2284   17.1701 C.ar    1  UNL1        0.2816
      4 O         -15.4058   -8.0881   16.3220 O.2     1  UNL1       -0.2652
      5 C         -15.8375   -5.8646   17.5946 C.ar    1  UNL1        0.1342
      6 C         -16.7272   -5.0049   18.4427 C.ar    1  UNL1        0.0871
      7 C         -16.0106   -3.7135   18.7054 C.ar    1  UNL1        0.0515
      8 C         -14.6780   -3.7752   18.0196 C.ar    1  UNL1        0.1142
      9 N         -14.5710   -5.1046   17.3331 N.ar    1  UNL1       -0.3068
     10 N         -18.0750   -5.5089   18.8662 N.ar    1  UNL1       -0.2776
     11 C         -18.9648   -4.6492   19.7143 C.3     1  UNL1        0.1351
     12 C         -18.5330   -6.8728   18.4416 C.ar    1  UNL1        0.3339
     13 O         -19.8809   -7.3769   18.8652 O.2     1  UNL1       -0.2462
     14 N         -13.6354   -2.6968   18.0202 N.pl3   1  UNL1       -0.2932
     15 C         -12.4758   -2.7752   18.9684 C.3     1  UNL1        0.0922
     16 C         -11.4332   -1.6967   18.9689 C.3     1  UNL1        0.0228
     17 C         -11.5502   -0.5399   18.0213 C.3     1  UNL1        0.0177
     18 C         -12.7098   -0.4615   17.0730 C.3     1  UNL1        0.0575
     19 C         -13.6167    0.0536   15.9950 C.3     1  UNL1        0.0173
     20 N         -11.9822    0.7958   16.6992 N.3     1  UNL1       -0.3219
     21 C         -13.7524   -1.5400   17.0725 C.3     1  UNL1        0.1062
     22 H         -11.1446    0.8876   17.2740 H       1  UNL1        0.1188
     23 H         -12.5907    1.5996   16.8541 H       1  UNL1        0.1188
     24 C         -13.4026   -5.5890   16.5267 C.3     1  UNL1        0.1350
     25 C         -12.0233   -5.5652   17.1158 C.ar    1  UNL1        0.0132
     26 C         -10.9416   -4.7588   16.4603 C.ar    1  UNL1        0.0281
     27 C          -9.5624   -4.7351   17.0495 C.ar    1  UNL1        0.1399
     28 F          -8.4806   -3.9287   16.3940 F       1  UNL1       -0.2042
     29 C          -9.2648   -5.5177   18.2941 C.ar    1  UNL1        0.0305
     30 C         -10.3465   -6.3240   18.9495 C.ar    1  UNL1        0.0134
     31 C         -11.7258   -6.3478   18.3605 C.ar    1  UNL1        0.0557
     32 CL        -12.8075   -7.1541   19.0159 Cl      1  UNL1       -0.0825
@<TRIPOS>BOND
     1     1     2    1
     2     2     3   ar
     3     3     4    2
     4     3     5   ar
     5     5     6   ar
     6     6     7   ar
     7     7     8   ar
     8     8    14    1
     9    14    15    1
    10    15    16    1
    11    16    17    1
    12    17    18    1
    13    18    19    1
    14    18    20    1
    15    18    21    1
    16     8     9   ar
    17     9    24    1
    18    24    25    1
    19    25    26   ar
    20    26    27   ar
    21    27    28    1
    22    27    29   ar
    23    29    30   ar
    24    30    31   ar
    25    31    32    1
    26     6    10   ar
    27    10    11    1
    28    10    12   ar
    29    12    13    2
    30    12     2   ar
    31     9     5   ar
    32    31    25   ar
    33    21    14    1
    34    20    22    1
    35    20    23    1
@<TRIPOS>MOLECULE
*****
 32 35 0 0 0
SMALL
GASTEIGER

@<TRIPOS>ATOM
      1 C           2.3216    0.7177   27.7780 C.3     1  UNL1        0.1383
      2 N           3.1218   -0.1104   26.8167 N.ar    1  UNL1       -0.2455
      3 C           2.8081   -0.0699   25.3505 C.ar    1  UNL1        0.2816
      4 O           1.6943    0.7988   24.8455 O.2     1  UNL1       -0.2652
      5 C           3.6082   -0.8979   24.3891 C.ar    1  UNL1        0.1342
      6 C           4.7220   -1.7665   24.8941 C.ar    1  UNL1        0.0871
      7 C           5.3333   -2.4674   23.7171 C.ar    1  UNL1        0.0515
      8 C           4.5972   -2.0319   22.4848 C.ar    1  UNL1        0.1142
      9 N           3.5311   -1.0619   22.9001 N.ar    1  UNL1       -0.3068
     10 N           5.0357   -1.8071   26.3603 N.ar    1  UNL1       -0.2776
     11 C           6.1495   -2.6757   26.8653 C.3     1  UNL1        0.1351
     12 C           4.2355   -0.9790   27.3216 C.ar    1  UNL1        0.3339
     13 O           4.5492   -1.0196   28.7880 O.2     1  UNL1       -0.2462
     14 N           4.8780   -2.4866   21.0832 N.pl3   1  UNL1       -0.2932
     15 C           4.1652   -3.6829   20.5258 C.3     1  UNL1        0.0922
     16 C           4.4461   -4.1375   19.1242 C.3     1  UNL1        0.0228
     17 C           5.4397   -3.3958   18.2800 C.3     1  UNL1        0.0177
     18 C           6.1525   -2.1995   18.8374 C.3     1  UNL1        0.0575
     19 C           7.0740   -1.0187   18.9178 C.3     1  UNL1        0.0173
     20 N           6.7534   -2.2440   17.4638 N.3     1  UNL1       -0.3219
     21 C           5.8717   -1.7449   20.2391 C.3     1  UNL1        0.1062
     22 H           6.3576   -3.0279   16.9448 H       1  UNL1        0.1188
     23 H           7.7639   -2.3612   17.5383 H       1  UNL1        0.1188
     24 C           2.5586   -0.3764   21.9868 C.3     1  UNL1        0.1350
     25 C           3.0391    0.2412   20.7070 C.ar    1  UNL1        0.0132
     26 C           2.7956   -0.4547   19.4007 C.ar    1  UNL1        0.0281
     27 C           3.2761    0.1628   18.1210 C.ar    1  UNL1        0.1399
     28 F           3.0326   -0.5331   16.8146 F       1  UNL1       -0.2042
     29 C           4.0001    1.4763   18.1475 C.ar    1  UNL1        0.0305
     30 C           4.2436    2.1721   19.4537 C.ar    1  UNL1        0.0134
     31 C           3.7631    1.5547   20.7335 C.ar    1  UNL1        0.0557
     32 CL          4.0066    2.2505   22.0398 Cl      1  UNL1       -0.0825
@<TRIPOS>BOND
     1     1     2    1
     2     2     3   ar
     3     3     4    2
     4     3     5   ar
     5     5     6   ar
     6     6     7   ar
     7     7     8   ar
     8     8    14    1
     9    14    15    1
    10    15    16    1
    11    16    17    1
    12    17    18    1
    13    18    19    1
    14    18    20    1
    15    18    21    1
    16     8     9   ar
    17     9    24    1
    18    24    25    1
    19    25    26   ar
    20    26    27   ar
    21    27    28    1
    22    27    29   ar
    23    29    30   ar
    24    30    31   ar
    25    31    32    1
    26     6    10   ar
    27    10    11    1
    28    10    12   ar
    29    12    13    2
    30    12     2   ar
    31     9     5   ar
    32    31    25   ar
    33    21    14    1
    34    20    22    1
    35    20    23    1
@<TRIPOS>MOLECULE
*****
 32 35 0 0 0
SMALL
GASTEIGER

@<TRIPOS>ATOM
      1 C           8.6302   -7.9795   25.7085 C.3     1  UNL1        0.1383
      2 N           7.9869   -6.6326   25.5594 N.ar    1  UNL1       -0.2455
      3 C           7.8820   -5.9975   24.2045 C.ar    1  UNL1        0.2816
      4 O           8.4203   -6.7093   22.9989 O.2     1  UNL1       -0.2652
      5 C           7.2387   -4.6507   24.0553 C.ar    1  UNL1        0.1342
      6 C           6.7003   -3.9390   25.2609 C.ar    1  UNL1        0.0871
      7 C           6.1231   -2.6308   24.8077 C.ar    1  UNL1        0.0515
      8 C           6.3047   -2.5340   23.3219 C.ar    1  UNL1        0.1142
      9 N           6.9942   -3.7824   22.8569 N.ar    1  UNL1       -0.3068
     10 N           6.8052   -4.5740   26.6158 N.ar    1  UNL1       -0.2776
     11 C           6.2669   -3.8623   27.8215 C.3     1  UNL1        0.1351
     12 C           7.4486   -5.9209   26.7650 C.ar    1  UNL1        0.3339
     13 O           7.5535   -6.5560   28.1199 O.2     1  UNL1       -0.2462
     14 N           5.8728   -1.3898   22.4535 N.pl3   1  UNL1       -0.2932
     15 C           6.8435   -0.2979   22.1138 C.3     1  UNL1        0.0922
     16 C           6.4115    0.8463   21.2453 C.3     1  UNL1        0.0228
     17 C           5.0087    0.8987   20.7167 C.3     1  UNL1        0.0177
     18 C           4.0379   -0.1931   21.0564 C.3     1  UNL1        0.0575
     19 C           2.7634   -0.9829   21.0998 C.3     1  UNL1        0.0173
     20 N           3.1633    0.6768   20.2031 N.3     1  UNL1       -0.3219
     21 C           4.4700   -1.3374   21.9248 C.3     1  UNL1        0.1062
     22 H           3.6959    1.4865   19.8849 H       1  UNL1        0.1188
     23 H           2.3605    0.9908   20.7484 H       1  UNL1        0.1188
     24 C           7.3727   -4.1057   21.4419 C.3     1  UNL1        0.1350
     25 C           6.4994   -3.6524   20.3097 C.ar    1  UNL1        0.0132
     26 C           5.1150   -4.2105   20.1605 C.ar    1  UNL1        0.0281
     27 C           4.2417   -3.7573   19.0283 C.ar    1  UNL1        0.1399
     28 F           2.8574   -4.3154   18.8791 F       1  UNL1       -0.2042
     29 C           4.7526   -2.7459   18.0453 C.ar    1  UNL1        0.0305
     30 C           6.1368   -2.1879   18.1945 C.ar    1  UNL1        0.0134
     31 C           7.0103   -2.6411   19.3267 C.ar    1  UNL1        0.0557
     32 CL          8.3945   -2.0830   19.4759 Cl      1  UNL1       -0.0825
@<TRIPOS>BOND
     1     1     2    1
     2     2     3   ar
     3     3     4    2
     4     3     5   ar
     5     5     6   ar
     6     6     7   ar
     7     7     8   ar
     8     8    14    1
     9    14    15    1
    10    15    16    1
    11    16    17    1
    12    17    18    1
    13    18    19    1
    14    18    20    1
    15    18    21    1
    16     8     9   ar
    17     9    24    1
    18    24    25    1
    19    25    26   ar
    20    26    27   ar
    21    27    28    1
    22    27    29   ar
    23    29    30   ar
    24    30    31   ar
    25    31    32    1
    26     6    10   ar
    27    10    11    1
    28    10    12   ar
    29    12    13    2
    30    12     2   ar
    31     9     5   ar
    32    31    25   ar
    33    21    14    1
    34    20    22    1
    35    20    23    1
@<TRIPOS>MOLECULE
*****
 32 35 0 0 0
SMALL
GASTEIGER

@<TRIPOS>ATOM
      1 C         -15.2182  -10.8584   17.8583 C.3     1  UNL1        0.1383
      2 N         -15.7189   -9.5038   18.2639 N.ar    1  UNL1       -0.2455
      3 C         -14.9983   -8.2702   17.8069 C.ar    1  UNL1        0.2816
      4 O         -13.7770   -8.3911   16.9444 O.2     1  UNL1       -0.2652
      5 C         -15.4989   -6.9156   18.2124 C.ar    1  UNL1        0.1342
      6 C         -16.7201   -6.7946   19.0750 C.ar    1  UNL1        0.0871
      7 C         -16.9768   -5.3361   19.3133 C.ar    1  UNL1        0.0515
      8 C         -15.9141   -4.5556   18.5980 C.ar    1  UNL1        0.1142
      9 N         -15.0007   -5.5318   17.9177 N.ar    1  UNL1       -0.3068
     10 N         -17.4408   -8.0283   19.5320 N.ar    1  UNL1       -0.2776
     11 C         -18.6620   -7.9074   20.3945 C.3     1  UNL1        0.1351
     12 C         -16.9401   -9.3829   19.1264 C.ar    1  UNL1        0.3339
     13 O         -17.6607  -10.6166   19.5834 O.2     1  UNL1       -0.2462
     14 N         -15.7871   -3.0613   18.5683 N.pl3   1  UNL1       -0.2932
     15 C         -15.2069   -2.3344   19.7452 C.3     1  UNL1        0.0922
     16 C         -15.0799   -0.8400   19.7154 C.3     1  UNL1        0.0228
     17 C         -15.5331   -0.0726   18.5088 C.3     1  UNL1        0.0177
     18 C         -16.1133   -0.7995   17.3320 C.3     1  UNL1        0.0575
     19 C         -16.7230   -1.0361   15.9821 C.3     1  UNL1        0.0173
     20 N         -16.1981    0.6126   16.8335 N.3     1  UNL1       -0.3219
     21 C         -16.2403   -2.2939   17.3618 C.3     1  UNL1        0.1062
     22 H         -15.8300    1.2463   17.5429 H       1  UNL1        0.1188
     23 H         -17.1718    0.8472   16.6403 H       1  UNL1        0.1188
     24 C         -13.8001   -5.1850   17.0882 C.3     1  UNL1        0.1350
     25 C         -12.4590   -5.0237   17.7406 C.ar    1  UNL1        0.0132
     26 C         -11.7308   -6.2255   18.2652 C.ar    1  UNL1        0.0281
     27 C         -10.3898   -6.0642   18.9176 C.ar    1  UNL1        0.1399
     28 F          -9.6615   -7.2660   19.4423 F       1  UNL1       -0.2042
     29 C          -9.7769   -4.7010   19.0454 C.ar    1  UNL1        0.0305
     30 C         -10.5052   -3.4992   18.5208 C.ar    1  UNL1        0.0134
     31 C         -11.8462   -3.6605   17.8684 C.ar    1  UNL1        0.0557
     32 CL        -12.5744   -2.4587   17.3438 Cl      1  UNL1       -0.0825
@<TRIPOS>BOND
     1     1     2    1
     2     2     3   ar
     3     3     4    2
     4     3     5   ar
     5     5     6   ar
     6     6     7   ar
     7     7     8   ar
     8     8    14    1
     9    14    15    1
    10    15    16    1
    11    16    17    1
    12    17    18    1
    13    18    19    1
    14    18    20    1
    15    18    21    1
    16     8     9   ar
    17     9    24    1
    18    24    25    1
    19    25    26   ar
    20    26    27   ar
    21    27    28    1
    22    27    29   ar
    23    29    30   ar
    24    30    31   ar
    25    31    32    1
    26     6    10   ar
    27    10    11    1
    28    10    12   ar
    29    12    13    2
    30    12     2   ar
    31     9     5   ar
    32    31    25   ar
    33    21    14    1
    34    20    22    1
    35    20    23    1
@<TRIPOS>MOLECULE
*****
 32 35 0 0 0
SMALL
GASTEIGER

@<TRIPOS>ATOM
      1 C           1.3577    1.4639   27.2728 C.3     1  UNL1        0.1383
      2 N           2.2651    0.5436   26.5113 N.ar    1  UNL1       -0.2455
      3 C           2.1813    0.4766   25.0152 C.ar    1  UNL1        0.2816
      4 O           1.1902    1.3298   24.2805 O.2     1  UNL1       -0.2652
      5 C           3.0886   -0.4437   24.2537 C.ar    1  UNL1        0.1342
      6 C           4.0797   -1.2969   24.9884 C.ar    1  UNL1        0.0871
      7 C           4.8383   -2.1027   23.9758 C.ar    1  UNL1        0.0515
      8 C           4.3159   -1.7475   22.6153 C.ar    1  UNL1        0.1142
      9 N           3.2346   -0.7222   22.7871 N.ar    1  UNL1       -0.3068
     10 N           4.1635   -1.2299   26.4846 N.ar    1  UNL1       -0.2776
     11 C           5.1546   -2.0831   27.2193 C.3     1  UNL1        0.1351
     12 C           3.2561   -0.3095   27.2460 C.ar    1  UNL1        0.3339
     13 O           3.3398   -0.2425   28.7422 O.2     1  UNL1       -0.2462
     14 N           4.7914   -2.3175   21.3119 N.pl3   1  UNL1       -0.2932
     15 C           5.9632   -1.7013   20.6067 C.3     1  UNL1        0.0922
     16 C           6.4386   -2.2714   19.3033 C.3     1  UNL1        0.0228
     17 C           5.7424   -3.4576   18.7050 C.3     1  UNL1        0.0177
     18 C           4.5706   -4.0739   19.4101 C.3     1  UNL1        0.0575
     19 C           3.4260   -4.9997   19.6972 C.3     1  UNL1        0.0173
     20 N           4.6486   -4.9655   18.2064 N.3     1  UNL1       -0.3219
     21 C           4.0952   -3.5038   20.7136 C.3     1  UNL1        0.1062
     22 H           5.4202   -4.6656   17.6105 H       1  UNL1        0.1188
     23 H           3.7741   -4.9091   17.6843 H       1  UNL1        0.1188
     24 C           2.4390   -0.0869   21.6855 C.3     1  UNL1        0.1350
     25 C           3.1148    0.3154   20.4082 C.ar    1  UNL1        0.0132
     26 C           2.8465   -0.4480   19.1451 C.ar    1  UNL1        0.0281
     27 C           3.5222   -0.0457   17.8678 C.ar    1  UNL1        0.1399
     28 F           3.2540   -0.8091   16.6047 F       1  UNL1       -0.2042
     29 C           4.4663    1.1200   17.8535 C.ar    1  UNL1        0.0305
     30 C           4.7345    1.8832   19.1166 C.ar    1  UNL1        0.0134
     31 C           4.0588    1.4810   20.3939 C.ar    1  UNL1        0.0557
     32 CL          4.3271    2.2443   21.6569 Cl      1  UNL1       -0.0825
@<TRIPOS>BOND
     1     1     2    1
     2     2     3   ar
     3     3     4    2
     4     3     5   ar
     5     5     6   ar
     6     6     7   ar
     7     7     8   ar
     8     8    14    1
     9    14    15    1
    10    15    16    1
    11    16    17    1
    12    17    18    1
    13    18    19    1
    14    18    20    1
    15    18    21    1
    16     8     9   ar
    17     9    24    1
    18    24    25    1
    19    25    26   ar
    20    26    27   ar
    21    27    28    1
    22    27    29   ar
    23    29    30   ar
    24    30    31   ar
    25    31    32    1
    26     6    10   ar
    27    10    11    1
    28    10    12   ar
    29    12    13    2
    30    12     2   ar
    31     9     5   ar
    32    31    25   ar
    33    21    14    1
    34    20    22    1
    35    20    23    1
