@<TRIPOS>MOLECULE
*****
 25 28 0 0 0
SMALL
GASTEIGER

@<TRIPOS>ATOM
      1 C           3.9633   -0.8334   17.5602 C.2     1  UNL1        0.2252
      2 O           3.8727   -1.2528   16.1229 O.2     1  UNL1       -0.2749
      3 N           4.8308   -1.6020   18.5125 N.am    1  UNL1       -0.2784
      4 C           5.7244   -2.8015   18.4010 C.3     1  UNL1        0.1044
      5 C           6.0576   -2.6888   19.8592 C.3     1  UNL1        0.1187
      6 C           5.1639   -1.4892   19.9706 C.3     1  UNL1        0.1044
      7 C           5.3442    1.7990   17.9642 C.3     1  UNL1        0.0005
      8 C           3.8767    1.6707   18.2473 C.3     1  UNL1        0.0086
      9 C           3.0998    2.8585   18.7324 C.3     1  UNL1        0.0005
     10 C           1.6323    2.7301   19.0154 C.3     1  UNL1        0.0000
     11 C           0.9419    1.4139   18.8134 C.3     1  UNL1        0.0005
     12 C           1.7188    0.2261   18.3283 C.3     1  UNL1        0.0091
     13 C           3.1863    0.3545   18.0453 C.3     1  UNL1        0.0767
     14 C           6.9251   -3.4574   20.8114 C.ar    1  UNL1        0.2395
     15 N           6.4612   -4.1728   22.0455 N.ar    1  UNL1       -0.1907
     16 C           7.6582   -4.8030   22.6935 C.ar    1  UNL1        0.2033
     17 N           8.8619   -4.4772   21.8600 N.ar    1  UNL1       -0.0560
     18 O           8.4088   -3.6455   20.6968 O.2     1  UNL1       -0.3369
     19 C           7.6525   -5.6163   23.9539 C.ar    1  UNL1        0.0413
     20 C           8.3806   -6.9268   24.0041 C.ar    1  UNL1        0.0033
     21 C           8.3749   -7.7402   25.2644 C.ar    1  UNL1        0.0024
     22 C           7.6410   -7.2430   26.4746 C.ar    1  UNL1        0.0296
     23 C           6.9129   -5.9325   26.4244 C.ar    1  UNL1        0.1402
     24 F           6.1791   -5.4353   27.6344 F       1  UNL1       -0.2042
     25 C           6.9186   -5.1192   25.1640 C.ar    1  UNL1        0.0328
@<TRIPOS>BOND
     1     7     8    1
     2     8     9    1
     3     9    10    1
     4    10    11    1
     5    11    12    1
     6    12    13    1
     7    13     1    1
     8     1     2    2
     9     1     3   am
    10     3     4    1
    11     4     5    1
    12     5    14    1
    13    14    15   ar
    14    15    16   ar
    15    16    19    1
    16    19    20   ar
    17    20    21   ar
    18    21    22   ar
    19    22    23   ar
    20    23    24    1
    21    23    25   ar
    22    16    17   ar
    23    17    18   ar
    24     5     6    1
    25    13     8    1
    26     6     3    1
    27    18    14   ar
    28    25    19   ar
@<TRIPOS>MOLECULE
*****
 25 28 0 0 0
SMALL
GASTEIGER

@<TRIPOS>ATOM
      1 C          -5.4185    4.1973   23.1206 C.2     1  UNL1        0.2252
      2 O          -6.8073    4.0245   22.5806 O.2     1  UNL1       -0.2749
      3 N          -4.2360    3.7883   22.2934 N.am    1  UNL1       -0.2784
      4 C          -4.0509    3.1909   20.9300 C.3     1  UNL1        0.1044
      5 C          -2.5635    3.2098   21.1237 C.3     1  UNL1        0.1187
      6 C          -2.7487    3.8071   22.4871 C.3     1  UNL1        0.1044
      7 C          -5.8594    7.1281   23.5854 C.3     1  UNL1        0.0005
      8 C          -5.4328    6.2446   24.7201 C.3     1  UNL1        0.0086
      9 C          -5.2267    6.8265   26.0871 C.3     1  UNL1        0.0005
     10 C          -4.8001    5.9430   27.2218 C.3     1  UNL1        0.0000
     11 C          -4.5797    4.4776   26.9894 C.3     1  UNL1        0.0005
     12 C          -4.7858    3.8958   25.6223 C.3     1  UNL1        0.0091
     13 C          -5.2124    4.7793   24.4877 C.3     1  UNL1        0.0767
     14 C          -1.3809    2.8007   20.2965 C.ar    1  UNL1        0.2395
     15 N          -0.5579    1.5613   20.4873 N.ar    1  UNL1       -0.1907
     16 C           0.5179    1.5538   19.4421 C.ar    1  UNL1        0.2033
     17 N           0.3597    2.7885   18.6052 N.ar    1  UNL1       -0.0560
     18 O          -0.8138    3.5591   19.1333 O.2     1  UNL1       -0.3369
     19 C           1.5676    0.4970   19.2648 C.ar    1  UNL1        0.0413
     20 C           1.7644   -0.5494   20.3214 C.ar    1  UNL1        0.0033
     21 C           2.8140   -1.6061   20.1441 C.ar    1  UNL1        0.0024
     22 C           3.6670   -1.6165   18.9102 C.ar    1  UNL1        0.0296
     23 C           3.4702   -0.5701   17.8536 C.ar    1  UNL1        0.1402
     24 F           4.3231   -0.5804   16.6197 F       1  UNL1       -0.2042
     25 C           2.4205    0.4866   18.0309 C.ar    1  UNL1        0.0328
@<TRIPOS>BOND
     1     7     8    1
     2     8     9    1
     3     9    10    1
     4    10    11    1
     5    11    12    1
     6    12    13    1
     7    13     1    1
     8     1     2    2
     9     1     3   am
    10     3     4    1
    11     4     5    1
    12     5    14    1
    13    14    15   ar
    14    15    16   ar
    15    16    19    1
    16    19    20   ar
    17    20    21   ar
    18    21    22   ar
    19    22    23   ar
    20    23    24    1
    21    23    25   ar
    22    16    17   ar
    23    17    18   ar
    24     5     6    1
    25    13     8    1
    26     6     3    1
    27    18    14   ar
    28    25    19   ar
@<TRIPOS>MOLECULE
*****
 25 28 0 0 0
SMALL
GASTEIGER

@<TRIPOS>ATOM
      1 C           3.9828    0.3672   19.9086 C.2     1  UNL1        0.2252
      2 O           5.2345    1.1930   19.9440 O.2     1  UNL1       -0.2749
      3 N           2.6419    1.0387   19.8748 N.am    1  UNL1       -0.2784
      4 C           2.1684    2.4620   19.8661 C.3     1  UNL1        0.1044
      5 C           0.7457    1.9884   19.8270 C.3     1  UNL1        0.1187
      6 C           1.2192    0.5651   19.8358 C.3     1  UNL1        0.1044
      7 C           3.9113   -1.1370   17.3139 C.3     1  UNL1        0.0005
      8 C           4.0362   -1.8823   18.6096 C.3     1  UNL1        0.0086
      9 C           4.1254   -3.3796   18.6080 C.3     1  UNL1        0.0005
     10 C           4.2502   -4.1249   19.9037 C.3     1  UNL1        0.0000
     11 C           4.2860   -3.3728   21.2011 C.3     1  UNL1        0.0005
     12 C           4.1968   -1.8755   21.2027 C.3     1  UNL1        0.0091
     13 C           4.0719   -1.1302   19.9069 C.3     1  UNL1        0.0767
     14 C          -0.5952    2.6600   19.7933 C.ar    1  UNL1        0.2395
     15 N          -1.6366    2.6041   20.8713 N.ar    1  UNL1       -0.1907
     16 C          -2.8151    3.4149   20.4198 C.ar    1  UNL1        0.2033
     17 N          -2.5020    3.9720   19.0628 N.ar    1  UNL1       -0.0560
     18 O          -1.1300    3.5054   18.6756 O.2     1  UNL1       -0.3369
     19 C          -4.0839    3.6308   21.1902 C.ar    1  UNL1        0.0413
     20 C          -5.3147    4.1201   20.4862 C.ar    1  UNL1        0.0033
     21 C          -6.5836    4.3360   21.2565 C.ar    1  UNL1        0.0024
     22 C          -6.6216    4.0625   22.7310 C.ar    1  UNL1        0.0296
     23 C          -5.3908    3.5732   23.4350 C.ar    1  UNL1        0.1402
     24 F          -5.4288    3.2997   24.9093 F       1  UNL1       -0.2042
     25 C          -4.1220    3.3573   22.6646 C.ar    1  UNL1        0.0328
@<TRIPOS>BOND
     1     7     8    1
     2     8     9    1
     3     9    10    1
     4    10    11    1
     5    11    12    1
     6    12    13    1
     7    13     1    1
     8     1     2    2
     9     1     3   am
    10     3     4    1
    11     4     5    1
    12     5    14    1
    13    14    15   ar
    14    15    16   ar
    15    16    19    1
    16    19    20   ar
    17    20    21   ar
    18    21    22   ar
    19    22    23   ar
    20    23    24    1
    21    23    25   ar
    22    16    17   ar
    23    17    18   ar
    24     5     6    1
    25    13     8    1
    26     6     3    1
    27    18    14   ar
    28    25    19   ar
@<TRIPOS>MOLECULE
*****
 25 28 0 0 0
SMALL
GASTEIGER

@<TRIPOS>ATOM
      1 C           6.9087   -4.8333   30.9137 C.2     1  UNL1        0.2252
      2 O           6.8454   -6.1362   31.6544 O.2     1  UNL1       -0.2749
      3 N           6.9356   -4.8237   29.4140 N.am    1  UNL1       -0.2784
      4 C           6.9139   -5.8768   28.3460 C.3     1  UNL1        0.1044
      5 C           6.9736   -4.8101   27.2931 C.3     1  UNL1        0.1187
      6 C           6.9953   -3.7571   28.3611 C.3     1  UNL1        0.1044
      7 C           9.5359   -3.6872   31.7993 C.3     1  UNL1        0.0005
      8 C           8.2587   -2.9670   32.1156 C.3     1  UNL1        0.0086
      9 C           8.2951   -1.6738   32.8747 C.3     1  UNL1        0.0005
     10 C           7.0179   -0.9536   33.1910 C.3     1  UNL1        0.0000
     11 C           5.7043   -1.5267   32.7482 C.3     1  UNL1        0.0005
     12 C           5.6679   -2.8199   31.9892 C.3     1  UNL1        0.0091
     13 C           6.9451   -3.5401   31.6728 C.3     1  UNL1        0.0767
     14 C           7.0005   -4.8006   25.7933 C.ar    1  UNL1        0.2395
     15 N           6.1561   -3.9391   24.9019 N.ar    1  UNL1       -0.1907
     16 C           6.5102   -4.2569   23.4794 C.ar    1  UNL1        0.2033
     17 N           7.5736   -5.3147   23.4916 N.ar    1  UNL1       -0.0560
     18 O           7.8766   -5.6508   24.9218 O.2     1  UNL1       -0.3369
     19 C           5.9069   -3.6273   22.2588 C.ar    1  UNL1        0.0413
     20 C           6.5882   -3.7647   20.9295 C.ar    1  UNL1        0.0033
     21 C           5.9849   -3.1352   19.7090 C.ar    1  UNL1        0.0024
     22 C           4.7003   -2.3682   19.8177 C.ar    1  UNL1        0.0296
     23 C           4.0191   -2.2308   21.1471 C.ar    1  UNL1        0.1402
     24 F           2.7346   -1.4639   21.2559 F       1  UNL1       -0.2042
     25 C           4.6224   -2.8604   22.3676 C.ar    1  UNL1        0.0328
@<TRIPOS>BOND
     1     7     8    1
     2     8     9    1
     3     9    10    1
     4    10    11    1
     5    11    12    1
     6    12    13    1
     7    13     1    1
     8     1     2    2
     9     1     3   am
    10     3     4    1
    11     4     5    1
    12     5    14    1
    13    14    15   ar
    14    15    16   ar
    15    16    19    1
    16    19    20   ar
    17    20    21   ar
    18    21    22   ar
    19    22    23   ar
    20    23    24    1
    21    23    25   ar
    22    16    17   ar
    23    17    18   ar
    24     5     6    1
    25    13     8    1
    26     6     3    1
    27    18    14   ar
    28    25    19   ar
@<TRIPOS>MOLECULE
*****
 25 28 0 0 0
SMALL
GASTEIGER

@<TRIPOS>ATOM
      1 C           4.0569    0.0267   20.3980 C.2     1  UNL1        0.2252
      2 O           5.2993    0.7973   20.7335 O.2     1  UNL1       -0.2749
      3 N           2.7425    0.7390   20.2761 N.am    1  UNL1       -0.2784
      4 C           2.2908    2.1627   20.4141 C.3     1  UNL1        0.1044
      5 C           0.8835    1.7463   20.1038 C.3     1  UNL1        0.1187
      6 C           1.3352    0.3226   19.9658 C.3     1  UNL1        0.1044
      7 C           3.9560   -1.8342   22.7490 C.3     1  UNL1        0.0005
      8 C           4.0785   -2.3867   21.3598 C.3     1  UNL1        0.0086
      9 C           4.1506   -3.8696   21.1462 C.3     1  UNL1        0.0005
     10 C           4.2731   -4.4222   19.7570 C.3     1  UNL1        0.0000
     11 C           4.3235   -3.4918   18.5816 C.3     1  UNL1        0.0005
     12 C           4.2514   -2.0089   18.7952 C.3     1  UNL1        0.0091
     13 C           4.1289   -1.4563   20.1844 C.3     1  UNL1        0.0767
     14 C          -0.4309    2.4587   19.9819 C.ar    1  UNL1        0.2395
     15 N          -1.5283    2.4651   21.0044 N.ar    1  UNL1       -0.1907
     16 C          -2.6544    3.3001   20.4706 C.ar    1  UNL1        0.2033
     17 N          -2.2528    3.8097   19.1183 N.ar    1  UNL1       -0.0560
     18 O          -0.8786    3.2897   18.8162 O.2     1  UNL1       -0.3369
     19 C          -3.9538    3.5768   21.1670 C.ar    1  UNL1        0.0413
     20 C          -5.1367    4.0616   20.3824 C.ar    1  UNL1        0.0033
     21 C          -6.4361    4.3383   21.0788 C.ar    1  UNL1        0.0024
     22 C          -6.5526    4.1302   22.5598 C.ar    1  UNL1        0.0296
     23 C          -5.3696    3.6454   23.3444 C.ar    1  UNL1        0.1402
     24 F          -5.4861    3.4373   24.8253 F       1  UNL1       -0.2042
     25 C          -4.0702    3.3687   22.6480 C.ar    1  UNL1        0.0328
@<TRIPOS>BOND
     1     7     8    1
     2     8     9    1
     3     9    10    1
     4    10    11    1
     5    11    12    1
     6    12    13    1
     7    13     1    1
     8     1     2    2
     9     1     3   am
    10     3     4    1
    11     4     5    1
    12     5    14    1
    13    14    15   ar
    14    15    16   ar
    15    16    19    1
    16    19    20   ar
    17    20    21   ar
    18    21    22   ar
    19    22    23   ar
    20    23    24    1
    21    23    25   ar
    22    16    17   ar
    23    17    18   ar
    24     5     6    1
    25    13     8    1
    26     6     3    1
    27    18    14   ar
    28    25    19   ar
@<TRIPOS>MOLECULE
*****
 25 28 0 0 0
SMALL
GASTEIGER

@<TRIPOS>ATOM
      1 C           7.7181   -2.1983   30.2321 C.2     1  UNL1        0.2252
      2 O           9.1560   -2.1184   30.6515 O.2     1  UNL1       -0.2749
      3 N           7.3680   -2.5620   28.8196 N.am    1  UNL1       -0.2784
      4 C           8.1515   -2.9024   27.5866 C.3     1  UNL1        0.1044
      5 C           6.8728   -3.0764   26.8220 C.3     1  UNL1        0.1187
      6 C           6.0892   -2.7359   28.0550 C.3     1  UNL1        0.1044
      7 C           6.6195   -4.4156   31.9282 C.3     1  UNL1        0.0005
      8 C           6.0810   -3.0231   32.0732 C.3     1  UNL1        0.0086
      9 C           4.9932   -2.7393   33.0662 C.3     1  UNL1        0.0005
     10 C           4.4547   -1.3468   33.2112 C.3     1  UNL1        0.0000
     11 C           5.0039   -0.2382   32.3631 C.3     1  UNL1        0.0005
     12 C           6.0917   -0.5221   31.3701 C.3     1  UNL1        0.0091
     13 C           6.6302   -1.9145   31.2251 C.3     1  UNL1        0.0767
     14 C           6.5227   -3.4401   25.4095 C.ar    1  UNL1        0.2395
     15 N           5.5357   -2.7264   24.5341 N.ar    1  UNL1       -0.1907
     16 C           5.5012   -3.4265   23.2080 C.ar    1  UNL1        0.2033
     17 N           6.4668   -4.5729   23.2638 N.ar    1  UNL1       -0.0560
     18 O           7.0982   -4.5813   24.6244 O.2     1  UNL1       -0.3369
     19 C           4.6503   -3.0469   22.0324 C.ar    1  UNL1        0.0413
     20 C           3.9313   -1.7305   22.0210 C.ar    1  UNL1        0.0033
     21 C           3.0804   -1.3509   20.8454 C.ar    1  UNL1        0.0024
     22 C           2.9486   -2.2876   19.6813 C.ar    1  UNL1        0.0296
     23 C           3.6677   -3.6040   19.6927 C.ar    1  UNL1        0.1402
     24 F           3.5359   -4.5408   18.5286 F       1  UNL1       -0.2042
     25 C           4.5185   -3.9836   20.8683 C.ar    1  UNL1        0.0328
@<TRIPOS>BOND
     1     7     8    1
     2     8     9    1
     3     9    10    1
     4    10    11    1
     5    11    12    1
     6    12    13    1
     7    13     1    1
     8     1     2    2
     9     1     3   am
    10     3     4    1
    11     4     5    1
    12     5    14    1
    13    14    15   ar
    14    15    16   ar
    15    16    19    1
    16    19    20   ar
    17    20    21   ar
    18    21    22   ar
    19    22    23   ar
    20    23    24    1
    21    23    25   ar
    22    16    17   ar
    23    17    18   ar
    24     5     6    1
    25    13     8    1
    26     6     3    1
    27    18    14   ar
    28    25    19   ar
@<TRIPOS>MOLECULE
*****
 25 28 0 0 0
SMALL
GASTEIGER

@<TRIPOS>ATOM
      1 C         -10.4884  -19.3855   22.5653 C.2     1  UNL1        0.2252
      2 O         -11.1626  -20.5596   23.2109 O.2     1  UNL1       -0.2749
      3 N          -8.9967  -19.3701   22.4085 N.am    1  UNL1       -0.2784
      4 C          -7.8834  -20.3117   22.7606 C.3     1  UNL1        0.1044
      5 C          -6.8871  -19.3484   22.1866 C.3     1  UNL1        0.1187
      6 C          -8.0004  -18.4068   21.8345 C.3     1  UNL1        0.1044
      7 C         -10.8133  -18.9149   19.6203 C.3     1  UNL1        0.0005
      8 C         -11.4684  -17.9913   20.6041 C.3     1  UNL1        0.0086
      9 C         -12.2859  -16.8325   20.1155 C.3     1  UNL1        0.0005
     10 C         -12.9409  -15.9090   21.0994 C.3     1  UNL1        0.0000
     11 C         -12.7785  -16.1442   22.5718 C.3     1  UNL1        0.0005
     12 C         -11.9610  -17.3030   23.0605 C.3     1  UNL1        0.0091
     13 C         -11.3059  -18.2266   22.0766 C.3     1  UNL1        0.0767
     14 C          -5.3954  -19.3330   22.0298 C.ar    1  UNL1        0.2395
     15 N          -4.6305  -18.6423   20.9400 N.ar    1  UNL1       -0.1907
     16 C          -3.1691  -18.8881   21.1718 C.ar    1  UNL1        0.2033
     17 N          -3.0307  -19.7308   22.4049 N.ar    1  UNL1       -0.0560
     18 O          -4.4067  -20.0058   22.9352 O.2     1  UNL1       -0.3369
     19 C          -2.0436  -18.3804   20.3201 C.ar    1  UNL1        0.0413
     20 C          -0.7481  -17.9706   20.9554 C.ar    1  UNL1        0.0033
     21 C           0.3774  -17.4629   20.1037 C.ar    1  UNL1        0.0024
     22 C           0.2074  -17.3648   18.6165 C.ar    1  UNL1        0.0296
     23 C          -1.0882  -17.7746   17.9812 C.ar    1  UNL1        0.1402
     24 F          -1.2583  -17.6766   16.4941 F       1  UNL1       -0.2042
     25 C          -2.2137  -18.2823   18.8329 C.ar    1  UNL1        0.0328
@<TRIPOS>BOND
     1     7     8    1
     2     8     9    1
     3     9    10    1
     4    10    11    1
     5    11    12    1
     6    12    13    1
     7    13     1    1
     8     1     2    2
     9     1     3   am
    10     3     4    1
    11     4     5    1
    12     5    14    1
    13    14    15   ar
    14    15    16   ar
    15    16    19    1
    16    19    20   ar
    17    20    21   ar
    18    21    22   ar
    19    22    23   ar
    20    23    24    1
    21    23    25   ar
    22    16    17   ar
    23    17    18   ar
    24     5     6    1
    25    13     8    1
    26     6     3    1
    27    18    14   ar
    28    25    19   ar
@<TRIPOS>MOLECULE
*****
 25 28 0 0 0
SMALL
GASTEIGER

@<TRIPOS>ATOM
      1 C           8.2624   -5.1165   25.7890 C.2     1  UNL1        0.2252
      2 O           9.5360   -5.8810   25.5803 O.2     1  UNL1       -0.2749
      3 N           7.4330   -4.7045   24.6090 N.am    1  UNL1       -0.2784
      4 C           7.5478   -4.8693   23.1225 C.3     1  UNL1        0.1044
      5 C           6.2601   -4.1219   22.9403 C.3     1  UNL1        0.1187
      6 C           6.1453   -3.9572   24.4268 C.3     1  UNL1        0.1044
      7 C           8.9752   -2.4479   26.9598 C.3     1  UNL1        0.0005
      8 C           8.1746   -3.4297   27.7631 C.3     1  UNL1        0.0086
      9 C           7.7305   -3.0772   29.1517 C.3     1  UNL1        0.0005
     10 C           6.9299   -4.0589   29.9550 C.3     1  UNL1        0.0000
     11 C           6.5735   -5.3932   29.3697 C.3     1  UNL1        0.0005
     12 C           7.0177   -5.7457   27.9810 C.3     1  UNL1        0.0091
     13 C           7.8182   -4.7639   27.1777 C.3     1  UNL1        0.0767
     14 C           5.4307   -3.7100   21.7602 C.ar    1  UNL1        0.2395
     15 N           4.6997   -2.4092   21.6074 N.ar    1  UNL1       -0.1907
     16 C           4.0039   -2.4217   20.2786 C.ar    1  UNL1        0.2033
     17 N           4.3049   -3.7304   19.6102 N.ar    1  UNL1       -0.0560
     18 O           5.1867   -4.5265   20.5259 O.2     1  UNL1       -0.3369
     19 C           3.1560   -1.3193   19.7168 C.ar    1  UNL1        0.0413
     20 C           3.6304   -0.5411   18.5254 C.ar    1  UNL1        0.0033
     21 C           2.7825    0.5614   17.9637 C.ar    1  UNL1        0.0024
     22 C           1.4601    0.8858   18.5933 C.ar    1  UNL1        0.0296
     23 C           0.9858    0.1076   19.7848 C.ar    1  UNL1        0.1402
     24 F          -0.3364    0.4319   20.4145 F       1  UNL1       -0.2042
     25 C           1.8337   -0.9949   20.3465 C.ar    1  UNL1        0.0328
@<TRIPOS>BOND
     1     7     8    1
     2     8     9    1
     3     9    10    1
     4    10    11    1
     5    11    12    1
     6    12    13    1
     7    13     1    1
     8     1     2    2
     9     1     3   am
    10     3     4    1
    11     4     5    1
    12     5    14    1
    13    14    15   ar
    14    15    16   ar
    15    16    19    1
    16    19    20   ar
    17    20    21   ar
    18    21    22   ar
    19    22    23   ar
    20    23    24    1
    21    23    25   ar
    22    16    17   ar
    23    17    18   ar
    24     5     6    1
    25    13     8    1
    26     6     3    1
    27    18    14   ar
    28    25    19   ar
@<TRIPOS>MOLECULE
*****
 25 28 0 0 0
SMALL
GASTEIGER

@<TRIPOS>ATOM
      1 C          -2.8001    4.9174   22.3753 C.2     1  UNL1        0.2252
      2 O          -2.3359    5.7935   23.5009 O.2     1  UNL1       -0.2749
      3 N          -1.8679    3.9045   21.7797 N.am    1  UNL1       -0.2784
      4 C          -0.4489    3.4900   22.0344 C.3     1  UNL1        0.1044
      5 C          -0.5494    2.4719   20.9373 C.3     1  UNL1        0.1187
      6 C          -1.9683    2.8864   20.6826 C.3     1  UNL1        0.1044
      7 C          -5.0049    3.2234   23.5020 C.3     1  UNL1        0.0005
      8 C          -5.2991    4.2073   22.4087 C.3     1  UNL1        0.0086
      9 C          -6.6956    4.3442   21.8787 C.3     1  UNL1        0.0005
     10 C          -6.9898    5.3281   20.7853 C.3     1  UNL1        0.0000
     11 C          -5.8875    6.1750   20.2220 C.3     1  UNL1        0.0005
     12 C          -4.4909    6.0381   20.7519 C.3     1  UNL1        0.0091
     13 C          -4.1968    5.0543   21.8453 C.3     1  UNL1        0.0767
     14 C           0.3830    1.4590   20.3417 C.ar    1  UNL1        0.2395
     15 N           1.1449    0.4107   21.0969 N.ar    1  UNL1       -0.1907
     16 C           1.9499   -0.3797   20.1084 C.ar    1  UNL1        0.2033
     17 N           1.6855    0.1802   18.7421 N.ar    1  UNL1       -0.0560
     18 O           0.7171    1.3165   18.8864 O.2     1  UNL1       -0.3369
     19 C           2.8596   -1.5283   20.4296 C.ar    1  UNL1        0.0413
     20 C           3.4836   -1.6331   21.7896 C.ar    1  UNL1        0.0033
     21 C           4.3933   -2.7817   22.1108 C.ar    1  UNL1        0.0024
     22 C           4.6790   -3.8255   21.0720 C.ar    1  UNL1        0.0296
     23 C           4.0550   -3.7206   19.7120 C.ar    1  UNL1        0.1402
     24 F           4.3407   -4.7643   18.6732 F       1  UNL1       -0.2042
     25 C           3.1453   -2.5720   19.3908 C.ar    1  UNL1        0.0328
@<TRIPOS>BOND
     1     7     8    1
     2     8     9    1
     3     9    10    1
     4    10    11    1
     5    11    12    1
     6    12    13    1
     7    13     1    1
     8     1     2    2
     9     1     3   am
    10     3     4    1
    11     4     5    1
    12     5    14    1
    13    14    15   ar
    14    15    16   ar
    15    16    19    1
    16    19    20   ar
    17    20    21   ar
    18    21    22   ar
    19    22    23   ar
    20    23    24    1
    21    23    25   ar
    22    16    17   ar
    23    17    18   ar
    24     5     6    1
    25    13     8    1
    26     6     3    1
    27    18    14   ar
    28    25    19   ar
