@<TRIPOS>MOLECULE
*****
 32 35 0 0 0
SMALL
GASTEIGER

@<TRIPOS>ATOM
      1 C           4.0430   -1.2375   18.7180 C.ar    1  UNL1        0.1432
      2 C           5.4035   -1.5429   18.1651 C.ar    1  UNL1        0.0384
      3 C           6.2023   -0.4622   17.4988 C.ar    1  UNL1        0.0215
      4 C           5.6405    0.9240   17.3852 C.ar    1  UNL1        0.1061
      5 C           4.2799    1.2294   17.9381 C.ar    1  UNL1        0.0259
      6 C           3.4811    0.1487   18.6045 C.ar    1  UNL1        0.0888
      7 C           2.1206    0.4541   19.1573 C.2     1  UNL1        0.2525
      8 O           0.9474    0.5860   18.2320 O.2     1  UNL1       -0.2698
      9 N           1.9333    0.6278   20.6354 N.am    1  UNL1       -0.2660
     10 C           3.0067    0.5256   21.6781 C.3     1  UNL1        0.1236
     11 C           2.3764    0.7687   23.0174 C.ar    1  UNL1        0.0334
     12 C           2.6503    0.8559   24.4896 C.ar    1  UNL1        0.0936
     13 N           1.3567    1.1622   25.1845 N.ar    1  UNL1       -0.2519
     14 N           0.2833    1.2644   24.1416 N.ar    1  UNL1       -0.1723
     15 C           0.9135    1.0212   22.8024 C.ar    1  UNL1        0.0977
     16 C           0.6397    0.9341   21.3301 C.3     1  UNL1        0.1414
     17 C           1.1693    1.3358   26.6625 C.3     1  UNL1        0.1052
     18 C          -0.1331    1.2523   27.4020 C.3     1  UNL1        0.0244
     19 C           0.1441    1.4884   28.8572 C.3     1  UNL1        0.0021
     20 C           1.6179    1.7177   29.0170 C.3     1  UNL1        0.0021
     21 C           2.2515    1.6235   27.6607 C.3     1  UNL1        0.0244
     22 S           6.4392    2.0047   16.7189 S.O2    1  UNL1        0.0105
     23 C           7.2380    3.0854   16.0525 C.3     1  UNL1        0.1816
     24 O           7.2860    0.9646   16.0471 O.2     1  UNL1       -0.1686
     25 O           5.5924    3.0447   17.3907 O.2     1  UNL1       -0.1686
     26 O           3.2442   -2.3182   19.3843 O.3     1  UNL1       -0.4702
     27 C           4.2860   -3.3010   21.5521 C.3     1  UNL1        0.0566
     28 C           3.9443   -3.4367   20.0978 C.3     1  UNL1        0.2599
     29 C           4.3025   -4.6908   19.3570 C.3     1  UNL1        0.4340
     30 F           4.6609   -5.9449   18.6163 F       1  UNL1       -0.1664
     31 F           5.7425   -4.5009   19.7320 F       1  UNL1       -0.1664
     32 F           2.8627   -4.8807   18.9820 F       1  UNL1       -0.1664
@<TRIPOS>BOND
     1    28    27    1
     2    28    26    1
     3    26     1    1
     4     1     2   ar
     5     2     3   ar
     6     3     4   ar
     7     4    22    1
     8    22    23    1
     9    22    24    2
    10    22    25    2
    11     4     5   ar
    12     5     6   ar
    13     6     7    1
    14     7     8    2
    15     7     9   am
    16     9    10    1
    17    10    11    1
    18    11    12   ar
    19    12    13   ar
    20    13    17    1
    21    17    18    1
    22    18    19    1
    23    19    20    1
    24    20    21    1
    25    13    14   ar
    26    14    15   ar
    27    15    16    1
    28    28    29    1
    29    29    30    1
    30    29    31    1
    31    29    32    1
    32     6     1   ar
    33    16     9    1
    34    15    11   ar
    35    21    17    1
@<TRIPOS>MOLECULE
*****
 32 35 0 0 0
SMALL
GASTEIGER

@<TRIPOS>ATOM
      1 C          -0.7008    1.8287   26.7831 C.ar    1  UNL1        0.1432
      2 C          -1.2963    1.1508   27.9813 C.ar    1  UNL1        0.0384
      3 C          -0.4036    0.4965   28.9937 C.ar    1  UNL1        0.0215
      4 C           1.0847    0.5202   28.8079 C.ar    1  UNL1        0.1061
      5 C           1.6802    1.1982   27.6096 C.ar    1  UNL1        0.0259
      6 C           0.7875    1.8524   26.5972 C.ar    1  UNL1        0.0888
      7 C           1.3831    2.5303   25.3990 C.2     1  UNL1        0.2525
      8 O           1.3266    4.0243   25.2773 O.2     1  UNL1       -0.2698
      9 N           2.0351    1.7143   24.3225 N.am    1  UNL1       -0.2660
     10 C           2.1666    0.2201   24.3063 C.3     1  UNL1        0.1236
     11 C           2.8829   -0.1684   23.0470 C.ar    1  UNL1        0.0334
     12 C           3.4069   -1.3320   22.2586 C.ar    1  UNL1        0.0936
     13 N           4.0420   -0.7972   21.0093 N.ar    1  UNL1       -0.2519
     14 N           3.9105    0.6970   21.0256 N.ar    1  UNL1       -0.1723
     15 C           3.1942    1.0855   22.2849 C.ar    1  UNL1        0.0977
     16 C           2.6702    2.2491   23.0733 C.3     1  UNL1        0.1414
     17 C           4.6940   -1.6132   19.9329 C.3     1  UNL1        0.1052
     18 C           4.1550   -2.8806   19.3385 C.3     1  UNL1        0.0244
     19 C           5.1274   -3.3558   18.3000 C.3     1  UNL1        0.0021
     20 C           6.2675   -2.3822   18.2525 C.3     1  UNL1        0.0021
     21 C           5.9997   -1.3052   19.2616 C.3     1  UNL1        0.0244
     22 S           1.9774   -0.1341   29.8204 S.O2    1  UNL1        0.0105
     23 C           2.8701   -0.7883   30.8328 C.3     1  UNL1        0.1816
     24 O           2.5670   -0.9959   28.7435 O.2     1  UNL1       -0.1686
     25 O           1.3877    0.7278   30.8972 O.2     1  UNL1       -0.1686
     26 O          -1.5935    2.4830   25.7706 O.3     1  UNL1       -0.4702
     27 C          -1.8703    4.7939   26.9254 C.3     1  UNL1        0.0566
     28 C          -2.4608    3.6394   26.1714 C.3     1  UNL1        0.2599
     29 C          -3.9186    3.6411   25.8183 C.3     1  UNL1        0.4340
     30 F          -5.3764    3.6429   25.4652 F       1  UNL1       -0.1664
     31 F          -4.2604    4.0115   27.2312 F       1  UNL1       -0.1664
     32 F          -3.5769    3.2708   24.4055 F       1  UNL1       -0.1664
@<TRIPOS>BOND
     1    28    27    1
     2    28    26    1
     3    26     1    1
     4     1     2   ar
     5     2     3   ar
     6     3     4   ar
     7     4    22    1
     8    22    23    1
     9    22    24    2
    10    22    25    2
    11     4     5   ar
    12     5     6   ar
    13     6     7    1
    14     7     8    2
    15     7     9   am
    16     9    10    1
    17    10    11    1
    18    11    12   ar
    19    12    13   ar
    20    13    17    1
    21    17    18    1
    22    18    19    1
    23    19    20    1
    24    20    21    1
    25    13    14   ar
    26    14    15   ar
    27    15    16    1
    28    28    29    1
    29    29    30    1
    30    29    31    1
    31    29    32    1
    32     6     1   ar
    33    16     9    1
    34    15    11   ar
    35    21    17    1
@<TRIPOS>MOLECULE
*****
 32 35 0 0 0
SMALL
GASTEIGER

@<TRIPOS>ATOM
      1 C          -2.0076    3.4188   24.1314 C.ar    1  UNL1        0.1432
      2 C          -3.4710    3.2495   24.4136 C.ar    1  UNL1        0.0384
      3 C          -4.4630    3.3057   23.2899 C.ar    1  UNL1        0.0215
      4 C          -3.9916    3.5311   21.8839 C.ar    1  UNL1        0.1061
      5 C          -2.5281    3.7003   21.6016 C.ar    1  UNL1        0.0259
      6 C          -1.5361    3.6442   22.7253 C.ar    1  UNL1        0.0888
      7 C          -0.0726    3.8135   22.4430 C.2     1  UNL1        0.2525
      8 O           0.6083    5.1105   22.7656 O.2     1  UNL1       -0.2698
      9 N           0.7099    2.6858   21.8381 N.am    1  UNL1       -0.2660
     10 C           0.1682    1.3380   21.4637 C.3     1  UNL1        0.1236
     11 C           1.2950    0.5271   20.8956 C.ar    1  UNL1        0.0334
     12 C           1.6566   -0.8070   20.3131 C.ar    1  UNL1        0.0936
     13 N           3.1182   -0.7850   19.9763 N.ar    1  UNL1       -0.2519
     14 N           3.6599    0.5629   20.3507 N.ar    1  UNL1       -0.1723
     15 C           2.5330    1.3737   20.9188 C.ar    1  UNL1        0.0977
     16 C           2.1714    2.7079   21.5013 C.3     1  UNL1        0.1414
     17 C           3.9007   -1.9126   19.3714 C.3     1  UNL1        0.1052
     18 C           3.4952   -3.3568   19.3527 C.3     1  UNL1        0.0244
     19 C           4.5700   -4.1309   18.6487 C.3     1  UNL1        0.0021
     20 C           5.6397   -3.1653   18.2324 C.3     1  UNL1        0.0021
     21 C           5.2261   -1.7944   18.6790 C.3     1  UNL1        0.0244
     22 S          -4.9836    3.5872   20.7602 S.O2    1  UNL1        0.0105
     23 C          -5.9756    3.6433   19.6364 C.3     1  UNL1        0.1816
     24 O          -6.0636    3.9597   21.7322 O.2     1  UNL1       -0.1686
     25 O          -3.9035    3.2146   19.7881 O.2     1  UNL1       -0.1686
     26 O          -1.0155    3.3627   25.2551 O.3     1  UNL1       -0.4702
     27 C           0.1737    1.0691   24.9815 C.3     1  UNL1        0.0566
     28 C          -0.6012    2.0382   25.8243 C.3     1  UNL1        0.2599
     29 C          -0.9617    1.6829   27.2363 C.3     1  UNL1        0.4340
     30 F          -1.3224    1.3277   28.6483 F       1  UNL1       -0.1664
     31 F          -2.0580    2.7065   27.2139 F       1  UNL1       -0.1664
     32 F           0.1345    0.6593   27.2588 F       1  UNL1       -0.1664
@<TRIPOS>BOND
     1    28    27    1
     2    28    26    1
     3    26     1    1
     4     1     2   ar
     5     2     3   ar
     6     3     4   ar
     7     4    22    1
     8    22    23    1
     9    22    24    2
    10    22    25    2
    11     4     5   ar
    12     5     6   ar
    13     6     7    1
    14     7     8    2
    15     7     9   am
    16     9    10    1
    17    10    11    1
    18    11    12   ar
    19    12    13   ar
    20    13    17    1
    21    17    18    1
    22    18    19    1
    23    19    20    1
    24    20    21    1
    25    13    14   ar
    26    14    15   ar
    27    15    16    1
    28    28    29    1
    29    29    30    1
    30    29    31    1
    31    29    32    1
    32     6     1   ar
    33    16     9    1
    34    15    11   ar
    35    21    17    1
@<TRIPOS>MOLECULE
*****
 32 35 0 0 0
SMALL
GASTEIGER

@<TRIPOS>ATOM
      1 C          -3.7821    3.3513   20.8417 C.ar    1  UNL1        0.1432
      2 C          -4.7839    3.2590   21.9543 C.ar    1  UNL1        0.0384
      3 C          -4.3366    3.3958   23.3796 C.ar    1  UNL1        0.0215
      4 C          -2.8876    3.6249   23.6922 C.ar    1  UNL1        0.1061
      5 C          -1.8858    3.7173   22.5795 C.ar    1  UNL1        0.0259
      6 C          -2.3330    3.5805   21.1543 C.ar    1  UNL1        0.0888
      7 C          -1.3312    3.6729   20.0418 C.2     1  UNL1        0.2525
      8 O          -1.3071    4.8807   19.1526 O.2     1  UNL1       -0.2698
      9 N          -0.3534    2.5575   19.8184 N.am    1  UNL1       -0.2660
     10 C          -0.2579    1.2946   20.6221 C.3     1  UNL1        0.1236
     11 C           0.8550    0.4658   20.0525 C.ar    1  UNL1        0.0334
     12 C           1.6019   -0.8270   20.1972 C.ar    1  UNL1        0.0936
     13 N           2.6559   -0.8753   19.1309 N.ar    1  UNL1       -0.2519
     14 N           2.5603    0.3877   18.3272 N.ar    1  UNL1       -0.1723
     15 C           1.4473    1.2164   18.8968 C.ar    1  UNL1        0.0977
     16 C           0.7005    2.5092   18.7521 C.3     1  UNL1        0.1414
     17 C           3.6336   -1.9906   18.9075 C.3     1  UNL1        0.1052
     18 C           3.4648   -3.4134   19.3520 C.3     1  UNL1        0.0244
     19 C           4.6787   -4.1811   18.9196 C.3     1  UNL1        0.0021
     20 C           5.5977   -3.2330   18.2080 C.3     1  UNL1        0.0021
     21 C           4.9518   -1.8792   18.2005 C.3     1  UNL1        0.0244
     22 S          -2.4403    3.7617   25.1175 S.O2    1  UNL1        0.0105
     23 C          -1.9931    3.8984   26.5427 C.3     1  UNL1        0.1816
     24 O          -3.8653    3.6588   25.5745 O.2     1  UNL1       -0.1686
     25 O          -1.0153    3.8645   24.6603 O.2     1  UNL1       -0.1686
     26 O          -4.2293    3.2146   19.4165 O.3     1  UNL1       -0.4702
     27 C          -4.5782    4.9606   17.5245 C.3     1  UNL1        0.0566
     28 C          -5.0535    4.2954   18.7821 C.3     1  UNL1        0.2599
     29 C          -6.3531    4.7110   19.4053 C.3     1  UNL1        0.4340
     30 F          -7.6527    5.1265   20.0285 F       1  UNL1       -0.1664
     31 F          -7.0020    3.4628   18.8846 F       1  UNL1       -0.1664
     32 F          -5.7043    5.9591   19.9260 F       1  UNL1       -0.1664
@<TRIPOS>BOND
     1    28    27    1
     2    28    26    1
     3    26     1    1
     4     1     2   ar
     5     2     3   ar
     6     3     4   ar
     7     4    22    1
     8    22    23    1
     9    22    24    2
    10    22    25    2
    11     4     5   ar
    12     5     6   ar
    13     6     7    1
    14     7     8    2
    15     7     9   am
    16     9    10    1
    17    10    11    1
    18    11    12   ar
    19    12    13   ar
    20    13    17    1
    21    17    18    1
    22    18    19    1
    23    19    20    1
    24    20    21    1
    25    13    14   ar
    26    14    15   ar
    27    15    16    1
    28    28    29    1
    29    29    30    1
    30    29    31    1
    31    29    32    1
    32     6     1   ar
    33    16     9    1
    34    15    11   ar
    35    21    17    1
@<TRIPOS>MOLECULE
*****
 32 35 0 0 0
SMALL
GASTEIGER

@<TRIPOS>ATOM
      1 C           2.5496   -0.9501   20.6900 C.ar    1  UNL1        0.1432
      2 C           1.1446   -0.8749   20.1703 C.ar    1  UNL1        0.0384
      3 C           0.3255    0.3608   20.3984 C.ar    1  UNL1        0.0215
      4 C           0.9116    1.5216   21.1463 C.ar    1  UNL1        0.1061
      5 C           2.3167    1.4464   21.6660 C.ar    1  UNL1        0.0259
      6 C           3.1357    0.2106   21.4379 C.ar    1  UNL1        0.0888
      7 C           4.5408    0.1356   21.9577 C.2     1  UNL1        0.2525
      8 O           5.6903    0.5054   21.0679 O.2     1  UNL1       -0.2698
      9 N           4.7963   -0.3093   23.3672 N.am    1  UNL1       -0.2660
     10 C           3.7532   -0.7085   24.3685 C.3     1  UNL1        0.1236
     11 C           4.4520   -1.0790   25.6430 C.ar    1  UNL1        0.0334
     12 C           4.2393   -1.5547   27.0496 C.ar    1  UNL1        0.0936
     13 N           5.5827   -1.6785   27.7053 N.ar    1  UNL1       -0.2519
     14 N           6.6258   -1.2793   26.7039 N.ar    1  UNL1       -0.1723
     15 C           5.9270   -0.9088   25.4294 C.ar    1  UNL1        0.0977
     16 C           6.1397   -0.4331   24.0228 C.3     1  UNL1        0.1414
     17 C           5.8382   -2.1233   29.1148 C.3     1  UNL1        0.1052
     18 C           6.5455   -3.3799   29.5283 C.3     1  UNL1        0.0244
     19 C           6.5757   -3.4229   31.0274 C.3     1  UNL1        0.0021
     20 C           5.8872   -2.1929   31.5404 C.3     1  UNL1        0.0021
     21 C           5.4315   -1.3898   30.3584 C.3     1  UNL1        0.0244
     22 S           0.0925    2.7573   21.3744 S.O2    1  UNL1        0.0105
     23 C          -0.7265    3.9931   21.6025 C.3     1  UNL1        0.1816
     24 O          -1.1133    2.0612   20.8164 O.2     1  UNL1       -0.1686
     25 O           1.2985    3.4535   21.9323 O.2     1  UNL1       -0.1686
     26 O           3.3686   -2.1858   20.4619 O.3     1  UNL1       -0.4702
     27 C           4.2255   -1.3038   18.1733 C.3     1  UNL1        0.0566
     28 C           3.9774   -2.4442   19.1155 C.3     1  UNL1        0.2599
     29 C           4.3379   -3.8430   18.7115 C.3     1  UNL1        0.4340
     30 F           4.6986   -5.2418   18.3075 F       1  UNL1       -0.1664
     31 F           5.6216   -3.3412   18.1194 F       1  UNL1       -0.1664
     32 F           3.0544   -4.3450   19.3036 F       1  UNL1       -0.1664
@<TRIPOS>BOND
     1    28    27    1
     2    28    26    1
     3    26     1    1
     4     1     2   ar
     5     2     3   ar
     6     3     4   ar
     7     4    22    1
     8    22    23    1
     9    22    24    2
    10    22    25    2
    11     4     5   ar
    12     5     6   ar
    13     6     7    1
    14     7     8    2
    15     7     9   am
    16     9    10    1
    17    10    11    1
    18    11    12   ar
    19    12    13   ar
    20    13    17    1
    21    17    18    1
    22    18    19    1
    23    19    20    1
    24    20    21    1
    25    13    14   ar
    26    14    15   ar
    27    15    16    1
    28    28    29    1
    29    29    30    1
    30    29    31    1
    31    29    32    1
    32     6     1   ar
    33    16     9    1
    34    15    11   ar
    35    21    17    1
@<TRIPOS>MOLECULE
*****
 32 35 0 0 0
SMALL
GASTEIGER

@<TRIPOS>ATOM
      1 C           6.6290   -2.4052   18.7717 C.ar    1  UNL1        0.1432
      2 C           8.1008   -2.3993   19.0612 C.ar    1  UNL1        0.0384
      3 C           8.6102   -2.9309   20.3681 C.ar    1  UNL1        0.0215
      4 C           7.6479   -3.4684   21.3855 C.ar    1  UNL1        0.1061
      5 C           6.1761   -3.4742   21.0959 C.ar    1  UNL1        0.0259
      6 C           5.6666   -2.9426   19.7890 C.ar    1  UNL1        0.0888
      7 C           4.1948   -2.9485   19.4996 C.2     1  UNL1        0.2525
      8 O           3.5955   -4.0549   18.6831 O.2     1  UNL1       -0.2698
      9 N           3.3224   -1.8481   20.0267 N.am    1  UNL1       -0.2660
     10 C           3.7770   -0.6817   20.8531 C.3     1  UNL1        0.1236
     11 C           2.5777    0.1664   21.1570 C.ar    1  UNL1        0.0334
     12 C           2.1174    1.4115   21.8556 C.ar    1  UNL1        0.0936
     13 N           0.6371    1.5388   21.6488 N.ar    1  UNL1       -0.2519
     14 N           0.1826    0.3724   20.8223 N.ar    1  UNL1       -0.1723
     15 C           1.3819   -0.4758   20.5184 C.ar    1  UNL1        0.0977
     16 C           1.8421   -1.7208   19.8198 C.3     1  UNL1        0.1414
     17 C          -0.2353    2.6392   22.1758 C.3     1  UNL1        0.1052
     18 C          -0.2227    3.1812   23.5745 C.3     1  UNL1        0.0244
     19 C          -1.2531    4.2678   23.6598 C.3     1  UNL1        0.0021
     20 C          -1.9027    4.3975   22.3140 C.3     1  UNL1        0.0021
     21 C          -1.2736    3.3910   21.3968 C.3     1  UNL1        0.0244
     22 S           8.1573   -4.0000   22.6923 S.O2    1  UNL1        0.0105
     23 C           8.6668   -4.5315   23.9992 C.3     1  UNL1        0.1816
     24 O           9.3502   -3.0957   22.5951 O.2     1  UNL1       -0.1686
     25 O           6.9644   -4.9042   22.7895 O.2     1  UNL1       -0.1686
     26 O           6.1196   -1.8736   17.4649 O.3     1  UNL1       -0.4702
     27 C           6.9115    0.5658   17.0498 C.3     1  UNL1        0.0566
     28 C           5.8078   -0.4136   17.3194 C.3     1  UNL1        0.2599
     29 C           4.3923    0.0670   17.4436 C.3     1  UNL1        0.4340
     30 F           2.9768    0.5475   17.5677 F       1  UNL1       -0.1664
     31 F           3.9215   -1.1138   16.6473 F       1  UNL1       -0.1664
     32 F           4.8630    1.2478   18.2399 F       1  UNL1       -0.1664
@<TRIPOS>BOND
     1    28    27    1
     2    28    26    1
     3    26     1    1
     4     1     2   ar
     5     2     3   ar
     6     3     4   ar
     7     4    22    1
     8    22    23    1
     9    22    24    2
    10    22    25    2
    11     4     5   ar
    12     5     6   ar
    13     6     7    1
    14     7     8    2
    15     7     9   am
    16     9    10    1
    17    10    11    1
    18    11    12   ar
    19    12    13   ar
    20    13    17    1
    21    17    18    1
    22    18    19    1
    23    19    20    1
    24    20    21    1
    25    13    14   ar
    26    14    15   ar
    27    15    16    1
    28    28    29    1
    29    29    30    1
    30    29    31    1
    31    29    32    1
    32     6     1   ar
    33    16     9    1
    34    15    11   ar
    35    21    17    1
@<TRIPOS>MOLECULE
*****
 32 35 0 0 0
SMALL
GASTEIGER

@<TRIPOS>ATOM
      1 C           4.6526    1.6106   35.6083 C.ar    1  UNL1        0.1432
      2 C           4.5945    0.6025   36.7175 C.ar    1  UNL1        0.0384
      3 C           3.5683    0.7399   37.8029 C.ar    1  UNL1        0.0215
      4 C           2.6002    1.8855   37.7791 C.ar    1  UNL1        0.1061
      5 C           2.6584    2.8936   36.6698 C.ar    1  UNL1        0.0259
      6 C           3.6846    2.7562   35.5844 C.ar    1  UNL1        0.0888
      7 C           3.7426    3.7644   34.4753 C.2     1  UNL1        0.2525
      8 O           4.4873    5.0518   34.6702 O.2     1  UNL1       -0.2698
      9 N           3.0561    3.4851   33.1712 N.am    1  UNL1       -0.2660
     10 C           2.2777    2.2486   32.8317 C.3     1  UNL1        0.1236
     11 C           1.7680    2.3926   31.4283 C.ar    1  UNL1        0.0334
     12 C           0.9718    1.7175   30.3511 C.ar    1  UNL1        0.0936
     13 N           0.9432    2.6255   29.1575 N.ar    1  UNL1       -0.2519
     14 N           1.7217    3.8620   29.4971 N.ar    1  UNL1       -0.1723
     15 C           2.2314    3.7180   30.9005 C.ar    1  UNL1        0.0977
     16 C           3.0275    4.3932   31.9776 C.3     1  UNL1        0.1414
     17 C           0.2567    2.3463   27.8535 C.3     1  UNL1        0.1052
     18 C          -0.9148    3.0984   27.2950 C.3     1  UNL1        0.0244
     19 C          -1.2744    2.4828   25.9752 C.3     1  UNL1        0.0021
     20 C          -0.3251    1.3502   25.7180 C.3     1  UNL1        0.0021
     21 C           0.6211    1.2658   26.8788 C.3     1  UNL1        0.0244
     22 S           1.5740    2.0229   38.8645 S.O2    1  UNL1        0.0105
     23 C           0.5479    2.1603   39.9499 C.3     1  UNL1        0.1816
     24 O           0.9253    3.1447   38.1091 O.2     1  UNL1       -0.1686
     25 O           2.2229    0.9010   39.6198 O.2     1  UNL1       -0.1686
     26 O           5.6788    1.4732   34.5229 O.3     1  UNL1       -0.4702
     27 C           5.6054    1.0204   31.9656 C.3     1  UNL1        0.0566
     28 C           5.4365    0.5376   33.3758 C.3     1  UNL1        0.2599
     29 C           5.0254   -0.8807   33.6388 C.3     1  UNL1        0.4340
     30 F           4.6143   -2.2991   33.9019 F       1  UNL1       -0.1664
     31 F           6.3108   -1.1168   34.3749 F       1  UNL1       -0.1664
     32 F           3.7399   -0.6447   32.9027 F       1  UNL1       -0.1664
@<TRIPOS>BOND
     1    28    27    1
     2    28    26    1
     3    26     1    1
     4     1     2   ar
     5     2     3   ar
     6     3     4   ar
     7     4    22    1
     8    22    23    1
     9    22    24    2
    10    22    25    2
    11     4     5   ar
    12     5     6   ar
    13     6     7    1
    14     7     8    2
    15     7     9   am
    16     9    10    1
    17    10    11    1
    18    11    12   ar
    19    12    13   ar
    20    13    17    1
    21    17    18    1
    22    18    19    1
    23    19    20    1
    24    20    21    1
    25    13    14   ar
    26    14    15   ar
    27    15    16    1
    28    28    29    1
    29    29    30    1
    30    29    31    1
    31    29    32    1
    32     6     1   ar
    33    16     9    1
    34    15    11   ar
    35    21    17    1
@<TRIPOS>MOLECULE
*****
 32 35 0 0 0
SMALL
GASTEIGER

@<TRIPOS>ATOM
      1 C           3.7110   -0.4887   18.3630 C.ar    1  UNL1        0.1432
      2 C           3.2738    0.8551   17.8601 C.ar    1  UNL1        0.0384
      3 C           2.1518    1.5818   18.5405 C.ar    1  UNL1        0.0215
      4 C           1.4670    0.9648   19.7238 C.ar    1  UNL1        0.1061
      5 C           1.9043   -0.3791   20.2267 C.ar    1  UNL1        0.0259
      6 C           3.0263   -1.1059   19.5463 C.ar    1  UNL1        0.0888
      7 C           3.4635   -2.4497   20.0493 C.2     1  UNL1        0.2525
      8 O           3.1334   -3.6867   19.2678 O.2     1  UNL1       -0.2698
      9 N           4.2309   -2.5564   21.3337 N.am    1  UNL1       -0.2660
     10 C           4.6319   -1.4137   22.2188 C.3     1  UNL1        0.1236
     11 C           5.3808   -1.9758   23.3907 C.ar    1  UNL1        0.0334
     12 C           6.0914   -1.6169   24.6619 C.ar    1  UNL1        0.0936
     13 N           6.5925   -2.8851   25.2869 N.ar    1  UNL1       -0.2519
     14 N           6.1915   -4.0279   24.4017 N.ar    1  UNL1       -0.1723
     15 C           5.4426   -3.4658   23.2299 C.ar    1  UNL1        0.0977
     16 C           4.7319   -3.8247   21.9586 C.3     1  UNL1        0.1414
     17 C           7.3598   -2.9919   26.5712 C.3     1  UNL1        0.1052
     18 C           7.5998   -1.8808   27.5500 C.3     1  UNL1        0.0244
     19 C           8.4102   -2.4307   28.6861 C.3     1  UNL1        0.0021
     20 C           8.6711   -3.8818   28.4096 C.3     1  UNL1        0.0021
     21 C           8.0220   -4.2286   27.1025 C.3     1  UNL1        0.0244
     22 S           0.3450    1.6915   20.4042 S.O2    1  UNL1        0.0105
     23 C          -0.7770    2.4183   21.0846 C.3     1  UNL1        0.1816
     24 O          -0.3189    0.3814   20.7088 O.2     1  UNL1       -0.1686
     25 O           1.0090    3.0017   20.0996 O.2     1  UNL1       -0.1686
     26 O           4.8330   -1.2154   17.6826 O.3     1  UNL1       -0.4702
     27 C           6.8789    0.3079   17.1890 C.3     1  UNL1        0.0566
     28 C           6.2549   -0.8218   17.9534 C.3     1  UNL1        0.2599
     29 C           7.0527   -1.5580   18.9885 C.3     1  UNL1        0.4340
     30 F           7.8504   -2.2943   20.0236 F       1  UNL1       -0.1664
     31 F           7.3602   -2.6322   17.9876 F       1  UNL1       -0.1664
     32 F           6.7452   -0.4840   19.9894 F       1  UNL1       -0.1664
@<TRIPOS>BOND
     1    28    27    1
     2    28    26    1
     3    26     1    1
     4     1     2   ar
     5     2     3   ar
     6     3     4   ar
     7     4    22    1
     8    22    23    1
     9    22    24    2
    10    22    25    2
    11     4     5   ar
    12     5     6   ar
    13     6     7    1
    14     7     8    2
    15     7     9   am
    16     9    10    1
    17    10    11    1
    18    11    12   ar
    19    12    13   ar
    20    13    17    1
    21    17    18    1
    22    18    19    1
    23    19    20    1
    24    20    21    1
    25    13    14   ar
    26    14    15   ar
    27    15    16    1
    28    28    29    1
    29    29    30    1
    30    29    31    1
    31    29    32    1
    32     6     1   ar
    33    16     9    1
    34    15    11   ar
    35    21    17    1
@<TRIPOS>MOLECULE
*****
 32 35 0 0 0
SMALL
GASTEIGER

@<TRIPOS>ATOM
      1 C          -5.0389    5.1016   20.9322 C.ar    1  UNL1        0.1432
      2 C          -6.1664    4.8362   21.8852 C.ar    1  UNL1        0.0384
      3 C          -5.8761    4.5412   23.3270 C.ar    1  UNL1        0.0215
      4 C          -4.4583    4.5116   23.8158 C.ar    1  UNL1        0.1061
      5 C          -3.3308    4.7770   22.8627 C.ar    1  UNL1        0.0259
      6 C          -3.6210    5.0720   21.4209 C.ar    1  UNL1        0.0888
      7 C          -2.4935    5.3374   20.4680 C.2     1  UNL1        0.2525
      8 O          -2.3551    6.6864   19.8269 O.2     1  UNL1       -0.2698
      9 N          -1.5043    4.2537   20.1560 N.am    1  UNL1       -0.2660
     10 C          -1.5142    2.8627   20.7172 C.3     1  UNL1        0.1236
     11 C          -0.3476    2.1202   20.1361 C.ar    1  UNL1        0.0334
     12 C           0.3673    0.8016   20.1238 C.ar    1  UNL1        0.0936
     13 N           1.5400    0.9187   19.1959 N.ar    1  UNL1       -0.2519
     14 N           1.5499    2.3098   18.6347 N.ar    1  UNL1       -0.1723
     15 C           0.3833    3.0523   19.2158 C.ar    1  UNL1        0.0977
     16 C          -0.3316    4.3709   19.2281 C.3     1  UNL1        0.1414
     17 C           2.5291   -0.1649   18.8840 C.3     1  UNL1        0.1052
     18 C           2.8118   -1.3709   19.7300 C.3     1  UNL1        0.0244
     19 C           3.8667   -2.1842   19.0401 C.3     1  UNL1        0.0021
     20 C           4.2360   -1.4808   17.7677 C.3     1  UNL1        0.0021
     21 C           3.4093   -0.2329   17.6712 C.3     1  UNL1        0.0244
     22 S          -4.1680    4.2166   25.2576 S.O2    1  UNL1        0.0105
     23 C          -3.8777    3.9216   26.6993 C.3     1  UNL1        0.1816
     24 O          -2.7864    4.7774   25.0942 O.2     1  UNL1       -0.1686
     25 O          -5.5497    3.6558   25.4209 O.2     1  UNL1       -0.1686
     26 O          -5.3292    5.3966   19.4904 O.3     1  UNL1       -0.4702
     27 C          -6.5495    3.2049   18.8143 C.3     1  UNL1        0.0566
     28 C          -5.5353    4.2705   18.5212 C.3     1  UNL1        0.2599
     29 C          -4.7273    4.2100   17.2590 C.3     1  UNL1        0.4340
     30 F          -3.9191    4.1495   15.9968 F       1  UNL1       -0.1664
     31 F          -3.6397    3.4802   17.9902 F       1  UNL1       -0.1664
     32 F          -5.8147    4.9398   16.5277 F       1  UNL1       -0.1664
@<TRIPOS>BOND
     1    28    27    1
     2    28    26    1
     3    26     1    1
     4     1     2   ar
     5     2     3   ar
     6     3     4   ar
     7     4    22    1
     8    22    23    1
     9    22    24    2
    10    22    25    2
    11     4     5   ar
    12     5     6   ar
    13     6     7    1
    14     7     8    2
    15     7     9   am
    16     9    10    1
    17    10    11    1
    18    11    12   ar
    19    12    13   ar
    20    13    17    1
    21    17    18    1
    22    18    19    1
    23    19    20    1
    24    20    21    1
    25    13    14   ar
    26    14    15   ar
    27    15    16    1
    28    28    29    1
    29    29    30    1
    30    29    31    1
    31    29    32    1
    32     6     1   ar
    33    16     9    1
    34    15    11   ar
    35    21    17    1
