@<TRIPOS>MOLECULE
*****
 21 24 0 0 0
SMALL
GASTEIGER

@<TRIPOS>ATOM
      1 C         -11.4465  -18.3462   22.5320 C.3     1  UNL1        0.0457
      2 C         -10.4156  -18.2816   21.4444 C.3     1  UNL1        0.0712
      3 N         -10.2285  -17.0152   20.6625 N.3     1  UNL1       -0.2974
      4 C         -11.0724  -15.8134   20.9684 C.3     1  UNL1        0.0689
      5 C         -12.1033  -15.8780   22.0561 C.3     1  UNL1        0.0212
      6 C         -12.2904  -17.1444   22.8379 C.3     1  UNL1        0.0239
      7 C         -12.4774  -18.4108   23.6196 C.3     1  UNL1        0.0083
      8 H         -10.3909  -17.2473   19.6827 H       1  UNL1        0.1232
      9 C         -11.2079  -17.8010   22.0333 C.ar    1  UNL1       -0.0226
     10 C         -11.5486  -18.5137   20.7582 C.ar    1  UNL1       -0.0043
     11 C         -10.4662  -19.1703   19.9536 C.ar    1  UNL1       -0.0003
     12 C          -9.0430  -19.1142   20.4242 C.ar    1  UNL1       -0.0000
     13 C          -7.9606  -19.7707   19.6197 C.ar    1  UNL1       -0.0000
     14 C          -6.5374  -19.7146   20.0903 C.ar    1  UNL1       -0.0000
     15 C          -6.1967  -19.0019   21.3654 C.ar    1  UNL1       -0.0000
     16 C          -7.2792  -18.3453   22.1700 C.ar    1  UNL1       -0.0000
     17 C          -8.7023  -18.4014   21.6994 C.ar    1  UNL1       -0.0003
     18 C          -9.7847  -17.7449   22.5039 C.ar    1  UNL1       -0.0043
     19 C         -11.0672  -19.7713   22.8068 C.3     1  UNL1        0.1438
     20 C          -9.5159  -20.8960   24.5613 C.3     1  UNL1        0.1741
     21 O         -10.8096  -20.2208   24.2145 O.3     1  UNL1       -0.3510
@<TRIPOS>BOND
     1    20    21    1
     2    21    19    1
     3     1    19    1
     4     1     2    1
     5     2     3    1
     6     3     4    1
     7     4     5    1
     8     5     6    1
     9     6     9    1
    10     9    10   ar
    11    10    11   ar
    12    11    12   ar
    13    12    13   ar
    14    13    14   ar
    15    14    15   ar
    16    15    16   ar
    17    16    17   ar
    18    17    18   ar
    19     6     7    1
    20     6     1    1
    21    18     9   ar
    22     7     1    1
    23    17    12   ar
    24     3     8    1
@<TRIPOS>MOLECULE
*****
 21 24 0 0 0
SMALL
GASTEIGER

@<TRIPOS>ATOM
      1 C         -11.4074  -18.0589   22.2905 C.3     1  UNL1        0.0457
      2 C         -10.3092  -18.2069   23.3014 C.3     1  UNL1        0.0712
      3 N          -8.9979  -18.8153   22.9008 N.3     1  UNL1       -0.2974
      4 C          -8.7849  -19.2758   21.4892 C.3     1  UNL1        0.0689
      5 C          -9.8832  -19.1278   20.4782 C.3     1  UNL1        0.0212
      6 C         -11.1944  -18.5194   20.8789 C.3     1  UNL1        0.0239
      7 C         -12.5056  -17.9110   21.2795 C.3     1  UNL1        0.0083
      8 H          -8.8550  -19.6280   23.5003 H       1  UNL1        0.1232
      9 C         -10.6833  -18.3389   22.2776 C.ar    1  UNL1       -0.0226
     10 C         -10.8307  -19.4463   23.2786 C.ar    1  UNL1       -0.0043
     11 C         -10.3196  -19.2658   24.6773 C.ar    1  UNL1       -0.0003
     12 C          -9.6612  -17.9780   25.0749 C.ar    1  UNL1       -0.0000
     13 C          -9.1501  -17.7975   26.4735 C.ar    1  UNL1       -0.0000
     14 C          -8.4917  -16.5098   26.8711 C.ar    1  UNL1       -0.0000
     15 C          -8.3443  -15.4025   25.8701 C.ar    1  UNL1       -0.0000
     16 C          -8.8554  -15.5829   24.4714 C.ar    1  UNL1       -0.0000
     17 C          -9.5138  -16.8707   24.0738 C.ar    1  UNL1       -0.0003
     18 C         -10.0249  -17.0512   22.6752 C.ar    1  UNL1       -0.0043
     19 C         -12.2874  -17.4418   23.3368 C.3     1  UNL1        0.1438
     20 C         -14.1979  -18.3978   24.8153 C.3     1  UNL1        0.1741
     21 O         -13.7076  -17.9002   23.4879 O.3     1  UNL1       -0.3510
@<TRIPOS>BOND
     1    20    21    1
     2    21    19    1
     3     1    19    1
     4     1     2    1
     5     2     3    1
     6     3     4    1
     7     4     5    1
     8     5     6    1
     9     6     9    1
    10     9    10   ar
    11    10    11   ar
    12    11    12   ar
    13    12    13   ar
    14    13    14   ar
    15    14    15   ar
    16    15    16   ar
    17    16    17   ar
    18    17    18   ar
    19     6     7    1
    20     6     1    1
    21    18     9   ar
    22     7     1    1
    23    17    12   ar
    24     3     8    1
@<TRIPOS>MOLECULE
*****
 21 24 0 0 0
SMALL
GASTEIGER

@<TRIPOS>ATOM
      1 C         -10.1048  -18.5269   22.7195 C.3     1  UNL1        0.0457
      2 C          -9.6250  -17.2088   23.2509 C.3     1  UNL1        0.0712
      3 N         -10.5287  -16.0121   23.2158 N.3     1  UNL1       -0.2974
      4 C         -11.9123  -16.1335   22.6492 C.3     1  UNL1        0.0689
      5 C         -12.3921  -17.4516   22.1177 C.3     1  UNL1        0.0212
      6 C         -11.4884  -18.6483   22.1528 C.3     1  UNL1        0.0239
      7 C         -10.5846  -19.8449   22.1880 C.3     1  UNL1        0.0083
      8 H         -10.0488  -15.2965   22.6700 H       1  UNL1        0.1232
      9 C         -10.4125  -17.8172   22.7869 C.ar    1  UNL1       -0.0226
     10 C          -9.5115  -16.9770   21.9311 C.ar    1  UNL1       -0.0043
     11 C          -8.4356  -16.1460   22.5651 C.ar    1  UNL1       -0.0003
     12 C          -8.2608  -16.1551   24.0549 C.ar    1  UNL1       -0.0000
     13 C          -7.1850  -15.3240   24.6889 C.ar    1  UNL1       -0.0000
     14 C          -7.0102  -15.3332   26.1786 C.ar    1  UNL1       -0.0000
     15 C          -7.9112  -16.1733   27.0344 C.ar    1  UNL1       -0.0000
     16 C          -8.9871  -17.0044   26.4004 C.ar    1  UNL1       -0.0000
     17 C          -9.1619  -16.9953   24.9106 C.ar    1  UNL1       -0.0003
     18 C         -10.2377  -17.8263   24.2766 C.ar    1  UNL1       -0.0043
     19 C          -8.7842  -19.1477   23.0669 C.3     1  UNL1        0.1438
     20 C          -6.5360  -19.8132   21.9476 C.3     1  UNL1        0.1741
     21 O          -8.0288  -19.9308   22.0344 O.3     1  UNL1       -0.3510
@<TRIPOS>BOND
     1    20    21    1
     2    21    19    1
     3     1    19    1
     4     1     2    1
     5     2     3    1
     6     3     4    1
     7     4     5    1
     8     5     6    1
     9     6     9    1
    10     9    10   ar
    11    10    11   ar
    12    11    12   ar
    13    12    13   ar
    14    13    14   ar
    15    14    15   ar
    16    15    16   ar
    17    16    17   ar
    18    17    18   ar
    19     6     7    1
    20     6     1    1
    21    18     9   ar
    22     7     1    1
    23    17    12   ar
    24     3     8    1
@<TRIPOS>MOLECULE
*****
 21 24 0 0 0
SMALL
GASTEIGER

@<TRIPOS>ATOM
      1 C         -10.0485  -18.7892   21.9477 C.3     1  UNL1        0.0457
      2 C         -10.2852  -18.2532   23.3284 C.3     1  UNL1        0.0712
      3 N         -11.5835  -17.5783   23.6586 N.3     1  UNL1       -0.2974
      4 C         -12.6450  -17.4394   22.6080 C.3     1  UNL1        0.0689
      5 C         -12.4082  -17.9754   21.2271 C.3     1  UNL1        0.0212
      6 C         -11.1100  -18.6503   20.8970 C.3     1  UNL1        0.0239
      7 C          -9.8117  -19.3252   20.5669 C.3     1  UNL1        0.0083
      8 H         -11.3538  -16.6351   23.9716 H       1  UNL1        0.1232
      9 C         -10.6338  -18.4211   22.3008 C.ar    1  UNL1       -0.0226
     10 C         -10.9029  -19.4474   23.3611 C.ar    1  UNL1       -0.0043
     11 C         -10.4267  -19.2181   24.7650 C.ar    1  UNL1       -0.0003
     12 C          -9.6814  -17.9625   25.1085 C.ar    1  UNL1       -0.0000
     13 C          -9.2052  -17.7332   26.5122 C.ar    1  UNL1       -0.0000
     14 C          -8.4599  -16.4776   26.8557 C.ar    1  UNL1       -0.0000
     15 C          -8.1907  -15.4513   25.7955 C.ar    1  UNL1       -0.0000
     16 C          -8.6669  -15.6806   24.3916 C.ar    1  UNL1       -0.0000
     17 C          -9.4123  -16.9362   24.0481 C.ar    1  UNL1       -0.0003
     18 C          -9.8885  -17.1655   22.6443 C.ar    1  UNL1       -0.0043
     19 C          -8.6860  -19.2591   22.3637 C.3     1  UNL1        0.1438
     20 C          -6.3148  -20.1183   21.7400 C.3     1  UNL1        0.1741
     21 O          -7.6721  -19.6340   21.3238 O.3     1  UNL1       -0.3510
@<TRIPOS>BOND
     1    20    21    1
     2    21    19    1
     3     1    19    1
     4     1     2    1
     5     2     3    1
     6     3     4    1
     7     4     5    1
     8     5     6    1
     9     6     9    1
    10     9    10   ar
    11    10    11   ar
    12    11    12   ar
    13    12    13   ar
    14    13    14   ar
    15    14    15   ar
    16    15    16   ar
    17    16    17   ar
    18    17    18   ar
    19     6     7    1
    20     6     1    1
    21    18     9   ar
    22     7     1    1
    23    17    12   ar
    24     3     8    1
@<TRIPOS>MOLECULE
*****
 21 24 0 0 0
SMALL
GASTEIGER

@<TRIPOS>ATOM
      1 C         -11.2153  -17.7204   23.1780 C.3     1  UNL1        0.0457
      2 C          -9.8788  -17.2363   22.6990 C.3     1  UNL1        0.0712
      3 N          -9.7859  -16.3924   21.4624 N.3     1  UNL1       -0.2974
      4 C         -11.0295  -16.0327   20.7047 C.3     1  UNL1        0.0689
      5 C         -12.3660  -16.5169   21.1837 C.3     1  UNL1        0.0212
      6 C         -12.4589  -17.3607   22.4203 C.3     1  UNL1        0.0239
      7 C         -12.5518  -18.2045   23.6569 C.3     1  UNL1        0.0083
      8 H          -9.1781  -16.8897   20.8115 H       1  UNL1        0.1232
      9 C         -10.9692  -17.2889   22.5812 C.ar    1  UNL1       -0.0226
     10 C         -10.0854  -18.2218   21.8077 C.ar    1  UNL1       -0.0043
     11 C          -8.5958  -18.1500   21.9686 C.ar    1  UNL1       -0.0003
     12 C          -7.9900  -17.1452   22.9032 C.ar    1  UNL1       -0.0000
     13 C          -6.5004  -17.0733   23.0642 C.ar    1  UNL1       -0.0000
     14 C          -5.8947  -16.0685   23.9987 C.ar    1  UNL1       -0.0000
     15 C          -6.7785  -15.1355   24.7723 C.ar    1  UNL1       -0.0000
     16 C          -8.2681  -15.2074   24.6113 C.ar    1  UNL1       -0.0000
     17 C          -8.8739  -16.2122   23.6768 C.ar    1  UNL1       -0.0003
     18 C         -10.3635  -16.2840   23.5158 C.ar    1  UNL1       -0.0043
     19 C         -10.5509  -18.4153   24.3294 C.3     1  UNL1        0.1438
     20 C          -9.6001  -20.8312   24.4256 C.3     1  UNL1        0.1741
     21 O         -10.7592  -19.8859   24.5391 O.3     1  UNL1       -0.3510
@<TRIPOS>BOND
     1    20    21    1
     2    21    19    1
     3     1    19    1
     4     1     2    1
     5     2     3    1
     6     3     4    1
     7     4     5    1
     8     5     6    1
     9     6     9    1
    10     9    10   ar
    11    10    11   ar
    12    11    12   ar
    13    12    13   ar
    14    13    14   ar
    15    14    15   ar
    16    15    16   ar
    17    16    17   ar
    18    17    18   ar
    19     6     7    1
    20     6     1    1
    21    18     9   ar
    22     7     1    1
    23    17    12   ar
    24     3     8    1
@<TRIPOS>MOLECULE
*****
 21 24 0 0 0
SMALL
GASTEIGER

@<TRIPOS>ATOM
      1 C         -11.5122  -17.2982   22.5750 C.3     1  UNL1        0.0457
      2 C         -10.2603  -18.1121   22.4322 C.3     1  UNL1        0.0712
      3 N         -10.0111  -19.2721   23.3501 N.3     1  UNL1       -0.2974
      4 C         -11.0137  -19.6180   24.4108 C.3     1  UNL1        0.0689
      5 C         -12.2656  -18.8041   24.5536 C.3     1  UNL1        0.0212
      6 C         -12.5148  -17.6442   23.6357 C.3     1  UNL1        0.0239
      7 C         -12.7640  -16.4843   22.7178 C.3     1  UNL1        0.0083
      8 H          -9.1295  -19.0853   23.8280 H       1  UNL1        0.1232
      9 C         -11.2131  -17.9144   22.9408 C.ar    1  UNL1       -0.0226
     10 C          -9.9322  -17.3867   23.5160 C.ar    1  UNL1       -0.0043
     11 C          -8.6306  -17.6569   22.8212 C.ar    1  UNL1       -0.0003
     12 C          -8.6099  -18.4547   21.5511 C.ar    1  UNL1       -0.0000
     13 C          -7.3083  -18.7249   20.8562 C.ar    1  UNL1       -0.0000
     14 C          -7.2876  -19.5226   19.5861 C.ar    1  UNL1       -0.0000
     15 C          -8.5685  -20.0502   19.0109 C.ar    1  UNL1       -0.0000
     16 C          -9.8702  -19.7801   19.7058 C.ar    1  UNL1       -0.0000
     17 C          -9.8909  -18.9823   20.9759 C.ar    1  UNL1       -0.0003
     18 C         -11.1924  -18.7121   21.6707 C.ar    1  UNL1       -0.0043
     19 C         -11.0772  -16.4288   21.4326 C.3     1  UNL1        0.1438
     20 C         -11.6515  -15.5786   19.0457 C.3     1  UNL1        0.1741
     21 O         -12.0856  -15.9411   20.4350 O.3     1  UNL1       -0.3510
@<TRIPOS>BOND
     1    20    21    1
     2    21    19    1
     3     1    19    1
     4     1     2    1
     5     2     3    1
     6     3     4    1
     7     4     5    1
     8     5     6    1
     9     6     9    1
    10     9    10   ar
    11    10    11   ar
    12    11    12   ar
    13    12    13   ar
    14    13    14   ar
    15    14    15   ar
    16    15    16   ar
    17    16    17   ar
    18    17    18   ar
    19     6     7    1
    20     6     1    1
    21    18     9   ar
    22     7     1    1
    23    17    12   ar
    24     3     8    1
@<TRIPOS>MOLECULE
*****
 21 24 0 0 0
SMALL
GASTEIGER

@<TRIPOS>ATOM
      1 C          -7.9940  -17.5674   22.5457 C.3     1  UNL1        0.0457
      2 C          -9.3210  -16.9802   22.9253 C.3     1  UNL1        0.0712
      3 N          -9.3870  -15.8485   23.9077 N.3     1  UNL1       -0.2974
      4 C          -8.1259  -15.3041   24.5105 C.3     1  UNL1        0.0689
      5 C          -6.7989  -15.8914   24.1309 C.3     1  UNL1        0.0212
      6 C          -6.7329  -17.0230   23.1485 C.3     1  UNL1        0.0239
      7 C          -6.6669  -18.1546   22.1662 C.3     1  UNL1        0.0083
      8 H          -9.9710  -16.1644   24.6820 H       1  UNL1        0.1232
      9 C          -8.2272  -16.9983   23.0196 C.ar    1  UNL1       -0.0226
     10 C          -8.8779  -16.1038   22.0065 C.ar    1  UNL1       -0.0043
     11 C         -10.3722  -16.0791   21.8776 C.ar    1  UNL1       -0.0003
     12 C         -11.2157  -16.9489   22.7619 C.ar    1  UNL1       -0.0000
     13 C         -12.7099  -16.9242   22.6331 C.ar    1  UNL1       -0.0000
     14 C         -13.5535  -17.7940   23.5174 C.ar    1  UNL1       -0.0000
     15 C         -12.9028  -18.6885   24.5305 C.ar    1  UNL1       -0.0000
     16 C         -11.4085  -18.7132   24.6593 C.ar    1  UNL1       -0.0000
     17 C         -10.5649  -17.8434   23.7751 C.ar    1  UNL1       -0.0003
     18 C          -9.0707  -17.8681   23.9039 C.ar    1  UNL1       -0.0043
     19 C          -8.6840  -18.5351   21.6305 C.3     1  UNL1        0.1438
     20 C          -8.8711  -19.6435   19.2882 C.3     1  UNL1        0.1741
     21 O          -8.0770  -18.8732   20.3012 O.3     1  UNL1       -0.3510
@<TRIPOS>BOND
     1    20    21    1
     2    21    19    1
     3     1    19    1
     4     1     2    1
     5     2     3    1
     6     3     4    1
     7     4     5    1
     8     5     6    1
     9     6     9    1
    10     9    10   ar
    11    10    11   ar
    12    11    12   ar
    13    12    13   ar
    14    13    14   ar
    15    14    15   ar
    16    15    16   ar
    17    16    17   ar
    18    17    18   ar
    19     6     7    1
    20     6     1    1
    21    18     9   ar
    22     7     1    1
    23    17    12   ar
    24     3     8    1
@<TRIPOS>MOLECULE
*****
 21 24 0 0 0
SMALL
GASTEIGER

@<TRIPOS>ATOM
      1 C          -9.2857  -17.1687   24.5232 C.3     1  UNL1        0.0457
      2 C          -9.5347  -17.0529   23.0486 C.3     1  UNL1        0.0712
      3 N          -8.8336  -15.9939   22.2504 N.3     1  UNL1       -0.2974
      4 C          -7.8835  -15.0507   22.9270 C.3     1  UNL1        0.0689
      5 C          -7.6345  -15.1665   24.4017 C.3     1  UNL1        0.0212
      6 C          -8.3356  -16.2255   25.1997 C.3     1  UNL1        0.0239
      7 C          -9.0368  -17.2845   25.9978 C.3     1  UNL1        0.0083
      8 H          -9.5593  -15.4216   21.8188 H       1  UNL1        0.1232
      9 C          -9.0280  -16.7032   23.9577 C.ar    1  UNL1       -0.0226
     10 C         -10.3953  -16.1896   23.6165 C.ar    1  UNL1       -0.0043
     11 C         -11.0876  -16.6673   22.3745 C.ar    1  UNL1       -0.0003
     12 C         -10.4125  -17.6587   21.4737 C.ar    1  UNL1       -0.0000
     13 C         -11.1047  -18.1364   20.2317 C.ar    1  UNL1       -0.0000
     14 C         -10.4296  -19.1277   19.3309 C.ar    1  UNL1       -0.0000
     15 C          -9.0622  -19.6414   19.6721 C.ar    1  UNL1       -0.0000
     16 C          -8.3699  -19.1636   20.9142 C.ar    1  UNL1       -0.0000
     17 C          -9.0451  -18.1723   21.8149 C.ar    1  UNL1       -0.0003
     18 C          -8.3528  -17.6946   23.0569 C.ar    1  UNL1       -0.0043
     19 C         -10.2391  -18.3247   24.5933 C.3     1  UNL1        0.1438
     20 C          -9.5939  -20.8383   24.4697 C.3     1  UNL1        0.1741
     21 O          -9.8280  -19.5954   25.2761 O.3     1  UNL1       -0.3510
@<TRIPOS>BOND
     1    20    21    1
     2    21    19    1
     3     1    19    1
     4     1     2    1
     5     2     3    1
     6     3     4    1
     7     4     5    1
     8     5     6    1
     9     6     9    1
    10     9    10   ar
    11    10    11   ar
    12    11    12   ar
    13    12    13   ar
    14    13    14   ar
    15    14    15   ar
    16    15    16   ar
    17    16    17   ar
    18    17    18   ar
    19     6     7    1
    20     6     1    1
    21    18     9   ar
    22     7     1    1
    23    17    12   ar
    24     3     8    1
@<TRIPOS>MOLECULE
*****
 21 24 0 0 0
SMALL
GASTEIGER

@<TRIPOS>ATOM
      1 C         -11.3659  -17.7125   23.0906 C.3     1  UNL1        0.0457
      2 C         -10.0055  -17.3512   22.5722 C.3     1  UNL1        0.0712
      3 N          -9.8696  -16.6104   21.2749 N.3     1  UNL1       -0.2974
      4 C         -11.0942  -16.2308   20.4962 C.3     1  UNL1        0.0689
      5 C         -12.4546  -16.5922   21.0147 C.3     1  UNL1        0.0212
      6 C         -12.5904  -17.3330   22.3118 C.3     1  UNL1        0.0239
      7 C         -12.7263  -18.0738   23.6090 C.3     1  UNL1        0.0083
      8 H          -9.2994  -17.1926   20.6616 H       1  UNL1        0.1232
      9 C         -11.0980  -17.3435   22.4622 C.ar    1  UNL1       -0.0226
     10 C         -10.4182  -16.2794   23.2717 C.ar    1  UNL1       -0.0043
     11 C          -8.9257  -16.2899   23.4221 C.ar    1  UNL1       -0.0003
     12 C          -8.1131  -17.3646   22.7628 C.ar    1  UNL1       -0.0000
     13 C          -6.6207  -17.3752   22.9131 C.ar    1  UNL1       -0.0000
     14 C          -5.8081  -18.4499   22.2538 C.ar    1  UNL1       -0.0000
     15 C          -6.4879  -19.5141   21.4442 C.ar    1  UNL1       -0.0000
     16 C          -7.9804  -19.5035   21.2939 C.ar    1  UNL1       -0.0000
     17 C          -8.7930  -18.4288   21.9532 C.ar    1  UNL1       -0.0003
     18 C         -10.2854  -18.4182   21.8029 C.ar    1  UNL1       -0.0043
     19 C         -10.7373  -18.3594   24.2891 C.3     1  UNL1        0.1438
     20 C          -9.8022  -20.7662   24.5765 C.3     1  UNL1        0.1741
     21 O         -10.9637  -19.8173   24.5597 O.3     1  UNL1       -0.3510
@<TRIPOS>BOND
     1    20    21    1
     2    21    19    1
     3     1    19    1
     4     1     2    1
     5     2     3    1
     6     3     4    1
     7     4     5    1
     8     5     6    1
     9     6     9    1
    10     9    10   ar
    11    10    11   ar
    12    11    12   ar
    13    12    13   ar
    14    13    14   ar
    15    14    15   ar
    16    15    16   ar
    17    16    17   ar
    18    17    18   ar
    19     6     7    1
    20     6     1    1
    21    18     9   ar
    22     7     1    1
    23    17    12   ar
    24     3     8    1
