@<TRIPOS>MOLECULE
*****
 23 25 0 0 0
SMALL
GASTEIGER

@<TRIPOS>ATOM
      1 C          -7.9852  -18.0206   21.6422 C.3     1  UNL1        0.1199
      2 O          -6.6829  -17.3671   21.9984 O.3     1  UNL1       -0.3839
      3 C          -9.1044  -18.8945   21.1586 C.3     1  UNL1        0.0555
      4 C         -10.4000  -18.2439   21.5434 C.ar    1  UNL1       -0.0228
      5 C         -11.8285  -18.6485   21.3301 C.ar    1  UNL1       -0.0045
      6 C         -12.9387  -17.7771   21.8383 C.ar    1  UNL1       -0.0003
      7 C         -12.6203  -16.5011   22.5597 C.ar    1  UNL1       -0.0003
      8 C         -11.1917  -16.0965   22.7730 C.ar    1  UNL1       -0.0037
      9 C         -10.0816  -16.9679   22.2649 C.ar    1  UNL1       -0.0137
     10 C          -8.5892  -16.8299   22.3259 C.3     1  UNL1        0.0999
     11 H          -5.9485  -17.9143   21.6788 H       1  UNL1        0.2104
     12 C          -7.1091  -19.0747   21.0329 C.3     1  UNL1        0.0973
     13 C          -4.7910  -19.2707   19.8760 C.3     1  UNL1        0.0859
     14 N          -6.1871  -18.7227   19.9033 N.3     1  UNL1       -0.2943
     15 H          -6.6419  -19.0326   19.0445 H       1  UNL1        0.1234
     16 S          -7.8334  -15.6997   22.9594 S.3     1  UNL1       -0.1080
     17 C          -7.5387  -15.7256   24.4299 C.ar    1  UNL1        0.0216
     18 C          -8.6473  -15.9587   25.4131 C.ar    1  UNL1        0.0058
     19 C          -8.3526  -15.9847   26.8836 C.ar    1  UNL1        0.0005
     20 C          -6.9491  -15.7775   27.3710 C.ar    1  UNL1       -0.0003
     21 C          -5.8405  -15.5444   26.3878 C.ar    1  UNL1       -0.0038
     22 C          -6.1353  -15.5185   24.9173 C.ar    1  UNL1       -0.0162
     23 C          -5.0266  -15.2854   23.9342 C.3     1  UNL1        0.0315
@<TRIPOS>BOND
     1    13    14    1
     2    14    12    1
     3    12     1    1
     4     1     2    1
     5     1     3    1
     6     3     4    1
     7     4     5   ar
     8     5     6   ar
     9     6     7   ar
    10     7     8   ar
    11     8     9   ar
    12     9    10    1
    13    10    16    1
    14    16    17    1
    15    17    18   ar
    16    18    19   ar
    17    19    20   ar
    18    20    21   ar
    19    21    22   ar
    20    22    23    1
    21    10     1    1
    22    22    17   ar
    23     9     4   ar
    24    14    15    1
    25     2    11    1
@<TRIPOS>MOLECULE
*****
 23 25 0 0 0
SMALL
GASTEIGER

@<TRIPOS>ATOM
      1 C          -9.5818  -17.1804   21.7295 C.3     1  UNL1        0.1199
      2 O          -9.9789  -15.8432   22.2810 O.3     1  UNL1       -0.3839
      3 C          -9.4820  -18.5283   21.0792 C.3     1  UNL1        0.0555
      4 C          -8.0808  -19.0304   21.2655 C.ar    1  UNL1       -0.0228
      5 C          -7.4037  -20.2983   20.8370 C.ar    1  UNL1       -0.0045
      6 C          -5.9603  -20.5286   21.1740 C.ar    1  UNL1       -0.0003
      7 C          -5.1941  -19.4909   21.9395 C.ar    1  UNL1       -0.0003
      8 C          -5.8712  -18.2229   22.3680 C.ar    1  UNL1       -0.0037
      9 C          -7.3146  -17.9926   22.0310 C.ar    1  UNL1       -0.0137
     10 C          -8.2423  -16.8493   22.3178 C.3     1  UNL1        0.0999
     11 H         -10.9111  -15.6722   22.0746 H       1  UNL1        0.2104
     12 C         -11.0043  -17.2319   21.2565 C.3     1  UNL1        0.0973
     13 C         -11.7187  -15.7092   19.2764 C.3     1  UNL1        0.0859
     14 N         -11.3173  -17.0563   19.8001 N.3     1  UNL1       -0.2943
     15 H         -10.4833  -17.3363   19.2839 H       1  UNL1        0.1234
     16 S          -7.8918  -15.5951   23.0622 S.3     1  UNL1       -0.1080
     17 C          -7.5263  -15.6626   24.5153 C.ar    1  UNL1        0.0216
     18 C          -8.5899  -15.9004   25.5460 C.ar    1  UNL1        0.0058
     19 C          -8.2245  -15.9679   26.9992 C.ar    1  UNL1        0.0005
     20 C          -6.7953  -15.7977   27.4218 C.ar    1  UNL1       -0.0003
     21 C          -5.7317  -15.5600   26.3912 C.ar    1  UNL1       -0.0038
     22 C          -6.0972  -15.4924   24.9380 C.ar    1  UNL1       -0.0162
     23 C          -5.0335  -15.2546   23.9074 C.3     1  UNL1        0.0315
@<TRIPOS>BOND
     1    13    14    1
     2    14    12    1
     3    12     1    1
     4     1     2    1
     5     1     3    1
     6     3     4    1
     7     4     5   ar
     8     5     6   ar
     9     6     7   ar
    10     7     8   ar
    11     8     9   ar
    12     9    10    1
    13    10    16    1
    14    16    17    1
    15    17    18   ar
    16    18    19   ar
    17    19    20   ar
    18    20    21   ar
    19    21    22   ar
    20    22    23    1
    21    10     1    1
    22    22    17   ar
    23     9     4   ar
    24    14    15    1
    25     2    11    1
@<TRIPOS>MOLECULE
*****
 23 25 0 0 0
SMALL
GASTEIGER

@<TRIPOS>ATOM
      1 C          -7.0132  -16.0836   23.4262 C.3     1  UNL1        0.1199
      2 O          -8.0481  -15.0066   23.5644 O.3     1  UNL1       -0.3839
      3 C          -5.8246  -16.9952   23.5054 C.3     1  UNL1        0.0555
      4 C          -6.0419  -18.1251   22.5430 C.ar    1  UNL1       -0.0228
      5 C          -5.2061  -19.3205   22.1934 C.ar    1  UNL1       -0.0045
      6 C          -5.6932  -20.3027   21.1698 C.ar    1  UNL1       -0.0003
      7 C          -7.0162  -20.0895   20.4957 C.ar    1  UNL1       -0.0003
      8 C          -7.8520  -18.8941   20.8454 C.ar    1  UNL1       -0.0037
      9 C          -7.3649  -17.9119   21.8690 C.ar    1  UNL1       -0.0137
     10 C          -7.9652  -16.6502   22.4148 C.3     1  UNL1        0.0999
     11 H          -7.7539  -14.3582   24.2230 H       1  UNL1        0.2104
     12 C          -6.2776  -15.2920   24.4664 C.3     1  UNL1        0.0973
     13 C          -6.6471  -15.5701   27.0230 C.3     1  UNL1        0.0859
     14 N          -6.9748  -14.8836   25.7302 N.3     1  UNL1       -0.2943
     15 H          -6.7808  -13.8915   25.8662 H       1  UNL1        0.1234
     16 S          -9.2856  -16.0589   22.0188 S.3     1  UNL1       -0.1080
     17 C         -10.5582  -16.7887   22.3315 C.ar    1  UNL1        0.0216
     18 C         -10.7151  -17.4934   23.6463 C.ar    1  UNL1        0.0058
     19 C         -11.9877  -18.2232   23.9591 C.ar    1  UNL1        0.0005
     20 C         -13.1035  -18.2483   22.9569 C.ar    1  UNL1       -0.0003
     21 C         -12.9467  -17.5436   21.6421 C.ar    1  UNL1       -0.0038
     22 C         -11.6740  -16.8138   21.3293 C.ar    1  UNL1       -0.0162
     23 C         -11.5173  -16.1091   20.0145 C.3     1  UNL1        0.0315
@<TRIPOS>BOND
     1    13    14    1
     2    14    12    1
     3    12     1    1
     4     1     2    1
     5     1     3    1
     6     3     4    1
     7     4     5   ar
     8     5     6   ar
     9     6     7   ar
    10     7     8   ar
    11     8     9   ar
    12     9    10    1
    13    10    16    1
    14    16    17    1
    15    17    18   ar
    16    18    19   ar
    17    19    20   ar
    18    20    21   ar
    19    21    22   ar
    20    22    23    1
    21    10     1    1
    22    22    17   ar
    23     9     4   ar
    24    14    15    1
    25     2    11    1
@<TRIPOS>MOLECULE
*****
 23 25 0 0 0
SMALL
GASTEIGER

@<TRIPOS>ATOM
      1 C          -6.7907  -18.7800   21.7538 C.3     1  UNL1        0.1199
      2 O          -7.4938  -19.8647   20.9928 O.3     1  UNL1       -0.3839
      3 C          -5.8319  -17.8049   22.3702 C.3     1  UNL1        0.0555
      4 C          -6.6095  -16.9047   23.2839 C.ar    1  UNL1       -0.0228
      5 C          -6.1928  -15.7578   24.1562 C.ar    1  UNL1       -0.0045
      6 C          -7.2156  -15.0296   24.9769 C.ar    1  UNL1       -0.0003
      7 C          -8.6551  -15.4483   24.9253 C.ar    1  UNL1       -0.0003
      8 C          -9.0717  -16.5952   24.0530 C.ar    1  UNL1       -0.0037
      9 C          -8.0489  -17.3234   23.2323 C.ar    1  UNL1       -0.0137
     10 C          -8.1609  -18.4824   22.2866 C.3     1  UNL1        0.0999
     11 H          -6.8504  -20.3504   20.4534 H       1  UNL1        0.2104
     12 C          -5.5674  -19.3043   21.0619 C.3     1  UNL1        0.0973
     13 C          -3.6243  -18.7434   19.4311 C.3     1  UNL1        0.0859
     14 N          -5.0721  -18.6427   19.8102 N.3     1  UNL1       -0.2943
     15 H          -5.6071  -19.0377   19.0368 H       1  UNL1        0.1234
     16 S          -9.4218  -19.2151   21.9355 S.3     1  UNL1       -0.1080
     17 C         -10.7351  -18.7610   22.5000 C.ar    1  UNL1        0.0216
     18 C         -11.6354  -17.8778   21.6879 C.ar    1  UNL1        0.0058
     19 C         -12.9489  -17.4237   22.2524 C.ar    1  UNL1        0.0005
     20 C         -13.3621  -17.8529   23.6291 C.ar    1  UNL1       -0.0003
     21 C         -12.4618  -18.7361   24.4411 C.ar    1  UNL1       -0.0038
     22 C         -11.1484  -19.1902   23.8766 C.ar    1  UNL1       -0.0162
     23 C         -10.2482  -20.0734   24.6887 C.3     1  UNL1        0.0315
@<TRIPOS>BOND
     1    13    14    1
     2    14    12    1
     3    12     1    1
     4     1     2    1
     5     1     3    1
     6     3     4    1
     7     4     5   ar
     8     5     6   ar
     9     6     7   ar
    10     7     8   ar
    11     8     9   ar
    12     9    10    1
    13    10    16    1
    14    16    17    1
    15    17    18   ar
    16    18    19   ar
    17    19    20   ar
    18    20    21   ar
    19    21    22   ar
    20    22    23    1
    21    10     1    1
    22    22    17   ar
    23     9     4   ar
    24    14    15    1
    25     2    11    1
@<TRIPOS>MOLECULE
*****
 23 25 0 0 0
SMALL
GASTEIGER

@<TRIPOS>ATOM
      1 C          -7.0963  -18.5538   21.4794 C.3     1  UNL1        0.1199
      2 O          -8.0055  -19.3019   20.5502 O.3     1  UNL1       -0.3839
      3 C          -5.9606  -17.9681   22.2650 C.3     1  UNL1        0.0555
      4 C          -6.5320  -16.9852   23.2434 C.ar    1  UNL1       -0.0228
      5 C          -5.8890  -16.1072   24.2757 C.ar    1  UNL1       -0.0045
      6 C          -6.7348  -15.2074   25.1270 C.ar    1  UNL1       -0.0003
      7 C          -8.2237  -15.1855   24.9461 C.ar    1  UNL1       -0.0003
      8 C          -8.8667  -16.0635   23.9138 C.ar    1  UNL1       -0.0037
      9 C          -8.0209  -16.9633   23.0625 C.ar    1  UNL1       -0.0137
     10 C          -8.3696  -17.9328   21.9723 C.3     1  UNL1        0.0999
     11 H          -7.4792  -19.8919   19.9882 H       1  UNL1        0.2104
     12 C          -6.0130  -19.3312   20.7923 C.3     1  UNL1        0.0973
     13 C          -3.7600  -19.0567   19.5279 C.3     1  UNL1        0.0859
     14 N          -5.2034  -18.6892   19.7049 N.3     1  UNL1       -0.2943
     15 H          -5.6717  -18.9024   18.8242 H       1  UNL1        0.1234
     16 S          -9.7495  -18.2291   21.4642 S.3     1  UNL1       -0.1080
     17 C         -10.9117  -18.2393   22.4122 C.ar    1  UNL1        0.0216
     18 C         -10.8619  -19.0839   23.6509 C.ar    1  UNL1        0.0058
     19 C         -12.0242  -19.0942   24.5990 C.ar    1  UNL1        0.0005
     20 C         -13.2364  -18.2597   24.3085 C.ar    1  UNL1       -0.0003
     21 C         -13.2862  -17.4151   23.0699 C.ar    1  UNL1       -0.0038
     22 C         -12.1240  -17.4049   22.1217 C.ar    1  UNL1       -0.0162
     23 C         -12.1739  -16.5603   20.8832 C.3     1  UNL1        0.0315
@<TRIPOS>BOND
     1    13    14    1
     2    14    12    1
     3    12     1    1
     4     1     2    1
     5     1     3    1
     6     3     4    1
     7     4     5   ar
     8     5     6   ar
     9     6     7   ar
    10     7     8   ar
    11     8     9   ar
    12     9    10    1
    13    10    16    1
    14    16    17    1
    15    17    18   ar
    16    18    19   ar
    17    19    20   ar
    18    20    21   ar
    19    21    22   ar
    20    22    23    1
    21    10     1    1
    22    22    17   ar
    23     9     4   ar
    24    14    15    1
    25     2    11    1
@<TRIPOS>MOLECULE
*****
 23 25 0 0 0
SMALL
GASTEIGER

@<TRIPOS>ATOM
      1 C          -6.5591  -18.1817   22.2848 C.3     1  UNL1        0.1199
      2 O          -6.6070  -17.3003   23.4976 O.3     1  UNL1       -0.3839
      3 C          -6.2038  -19.0739   21.1326 C.3     1  UNL1        0.0555
      4 C          -7.4649  -19.3889   20.3841 C.ar    1  UNL1       -0.0228
      5 C          -7.7266  -20.2208   19.1637 C.ar    1  UNL1       -0.0045
      6 C          -9.1230  -20.3551   18.6329 C.ar    1  UNL1       -0.0003
      7 C         -10.2578  -19.6575   19.3225 C.ar    1  UNL1       -0.0003
      8 C          -9.9962  -18.8256   20.5429 C.ar    1  UNL1       -0.0037
      9 C          -8.5997  -18.6913   21.0737 C.ar    1  UNL1       -0.0137
     10 C          -8.0399  -17.9452   22.2484 C.3     1  UNL1        0.0999
     11 H          -5.7126  -17.1988   23.8591 H       1  UNL1        0.2104
     12 C          -5.0883  -18.2339   22.5748 C.3     1  UNL1        0.0973
     13 C          -2.7206  -18.9649   21.7942 C.3     1  UNL1        0.0859
     14 N          -4.1156  -18.5197   21.4693 N.3     1  UNL1       -0.2943
     15 H          -4.5315  -19.2514   20.8930 H       1  UNL1        0.1234
     16 S          -8.8233  -17.1093   23.2167 S.3     1  UNL1       -0.1080
     17 C         -10.3120  -17.2668   23.3100 C.ar    1  UNL1        0.0216
     18 C         -11.2138  -16.3307   22.5611 C.ar    1  UNL1        0.0058
     19 C         -12.7025  -16.4882   22.6545 C.ar    1  UNL1        0.0005
     20 C         -13.2897  -17.5818   23.4967 C.ar    1  UNL1       -0.0003
     21 C         -12.3880  -18.5179   24.2455 C.ar    1  UNL1       -0.0038
     22 C         -10.8992  -18.3604   24.1522 C.ar    1  UNL1       -0.0162
     23 C          -9.9976  -19.2965   24.9011 C.3     1  UNL1        0.0315
@<TRIPOS>BOND
     1    13    14    1
     2    14    12    1
     3    12     1    1
     4     1     2    1
     5     1     3    1
     6     3     4    1
     7     4     5   ar
     8     5     6   ar
     9     6     7   ar
    10     7     8   ar
    11     8     9   ar
    12     9    10    1
    13    10    16    1
    14    16    17    1
    15    17    18   ar
    16    18    19   ar
    17    19    20   ar
    18    20    21   ar
    19    21    22   ar
    20    22    23    1
    21    10     1    1
    22    22    17   ar
    23     9     4   ar
    24    14    15    1
    25     2    11    1
@<TRIPOS>MOLECULE
*****
 23 25 0 0 0
SMALL
GASTEIGER

@<TRIPOS>ATOM
      1 C          -5.9621  -16.4488   23.6451 C.3     1  UNL1        0.1199
      2 O          -7.2597  -15.7309   23.8703 O.3     1  UNL1       -0.3839
      3 C          -4.5524  -16.9613   23.6285 C.3     1  UNL1        0.0555
      4 C          -4.4885  -18.1113   22.6675 C.ar    1  UNL1       -0.0228
      5 C          -3.3597  -19.0034   22.2436 C.ar    1  UNL1       -0.0045
      6 C          -3.6010  -20.0939   21.2424 C.ar    1  UNL1       -0.0003
      7 C          -4.9712  -20.2922   20.6650 C.ar    1  UNL1       -0.0003
      8 C          -6.1000  -19.4000   21.0889 C.ar    1  UNL1       -0.0037
      9 C          -5.8586  -18.3096   22.0902 C.ar    1  UNL1       -0.0137
     10 C          -6.7694  -17.2821   22.6944 C.3     1  UNL1        0.0999
     11 H          -7.1276  -15.0192   24.5161 H       1  UNL1        0.2104
     12 C          -5.4260  -15.4655   24.6429 C.3     1  UNL1        0.0973
     13 C          -6.4538  -15.3108   27.0240 C.3     1  UNL1        0.0859
     14 N          -6.3551  -14.8026   25.6162 N.3     1  UNL1       -0.2943
     15 H          -6.0709  -13.8248   25.6754 H       1  UNL1        0.1234
     16 S          -8.2308  -17.1170   22.3995 S.3     1  UNL1       -0.1080
     17 C          -9.2077  -18.1674   22.8379 C.ar    1  UNL1        0.0216
     18 C          -9.4949  -18.3623   24.2972 C.ar    1  UNL1        0.0058
     19 C         -10.4719  -19.4127   24.7357 C.ar    1  UNL1        0.0005
     20 C         -11.1617  -20.2682   23.7147 C.ar    1  UNL1       -0.0003
     21 C         -10.8746  -20.0733   22.2555 C.ar    1  UNL1       -0.0038
     22 C          -9.8976  -19.0229   21.8170 C.ar    1  UNL1       -0.0162
     23 C          -9.6105  -18.8281   20.3577 C.3     1  UNL1        0.0315
@<TRIPOS>BOND
     1    13    14    1
     2    14    12    1
     3    12     1    1
     4     1     2    1
     5     1     3    1
     6     3     4    1
     7     4     5   ar
     8     5     6   ar
     9     6     7   ar
    10     7     8   ar
    11     8     9   ar
    12     9    10    1
    13    10    16    1
    14    16    17    1
    15    17    18   ar
    16    18    19   ar
    17    19    20   ar
    18    20    21   ar
    19    21    22   ar
    20    22    23    1
    21    10     1    1
    22    22    17   ar
    23     9     4   ar
    24    14    15    1
    25     2    11    1
@<TRIPOS>MOLECULE
*****
 23 25 0 0 0
SMALL
GASTEIGER

@<TRIPOS>ATOM
      1 C          -4.6377  -18.9027   22.1655 C.3     1  UNL1        0.1199
      2 O          -4.9660  -20.0395   21.2437 O.3     1  UNL1       -0.3839
      3 C          -4.0168  -17.8769   23.0667 C.3     1  UNL1        0.0555
      4 C          -5.1010  -16.9493   23.5294 C.ar    1  UNL1       -0.0228
      5 C          -5.0795  -15.7511   24.4314 C.ar    1  UNL1       -0.0045
      6 C          -6.3490  -15.0053   24.7181 C.ar    1  UNL1       -0.0003
      7 C          -7.6399  -15.4577   24.1027 C.ar    1  UNL1       -0.0003
      8 C          -7.6614  -16.6560   23.2007 C.ar    1  UNL1       -0.0037
      9 C          -6.3920  -17.4017   22.9140 C.ar    1  UNL1       -0.0137
     10 C          -6.1056  -18.6090   22.0711 C.3     1  UNL1        0.0999
     11 H          -4.1580  -20.5375   21.0438 H       1  UNL1        0.2104
     12 C          -3.2384  -19.4340   22.0672 C.3     1  UNL1        0.0973
     13 C          -1.5366  -18.6936   20.2490 C.3     1  UNL1        0.0859
     14 N          -2.6049  -19.6342   20.7224 N.3     1  UNL1       -0.2943
     15 H          -2.1944  -20.5680   20.7263 H       1  UNL1        0.1234
     16 S          -7.1107  -19.3861   21.2737 S.3     1  UNL1       -0.1080
     17 C          -8.4879  -19.6153   21.8221 C.ar    1  UNL1        0.0216
     18 C          -8.6662  -20.0283   23.2532 C.ar    1  UNL1        0.0058
     19 C         -10.0433  -20.2575   23.8017 C.ar    1  UNL1        0.0005
     20 C         -11.2423  -20.0738   22.9191 C.ar    1  UNL1       -0.0003
     21 C         -11.0640  -19.6609   21.4882 C.ar    1  UNL1       -0.0038
     22 C          -9.6868  -19.4317   20.9397 C.ar    1  UNL1       -0.0162
     23 C          -9.5086  -19.0188   19.5087 C.3     1  UNL1        0.0315
@<TRIPOS>BOND
     1    13    14    1
     2    14    12    1
     3    12     1    1
     4     1     2    1
     5     1     3    1
     6     3     4    1
     7     4     5   ar
     8     5     6   ar
     9     6     7   ar
    10     7     8   ar
    11     8     9   ar
    12     9    10    1
    13    10    16    1
    14    16    17    1
    15    17    18   ar
    16    18    19   ar
    17    19    20   ar
    18    20    21   ar
    19    21    22   ar
    20    22    23    1
    21    10     1    1
    22    22    17   ar
    23     9     4   ar
    24    14    15    1
    25     2    11    1
@<TRIPOS>MOLECULE
*****
 23 25 0 0 0
SMALL
GASTEIGER

@<TRIPOS>ATOM
      1 C          -5.3604  -17.2830   23.0753 C.3     1  UNL1        0.1199
      2 O          -5.6610  -18.0397   21.8155 O.3     1  UNL1       -0.3839
      3 C          -4.7609  -16.5677   24.2496 C.3     1  UNL1        0.0555
      4 C          -5.8828  -16.0861   25.1211 C.ar    1  UNL1       -0.0228
      5 C          -5.8942  -15.3212   26.4113 C.ar    1  UNL1       -0.0045
      6 C          -7.1984  -14.9740   27.0658 C.ar    1  UNL1       -0.0003
      7 C          -8.4912  -15.3916   26.4301 C.ar    1  UNL1       -0.0003
      8 C          -8.4799  -16.1565   25.1398 C.ar    1  UNL1       -0.0037
      9 C          -7.1757  -16.5038   24.4853 C.ar    1  UNL1       -0.0137
     10 C          -6.8527  -17.2435   23.2210 C.3     1  UNL1        0.0999
     11 H          -4.8301  -18.2755   21.3739 H       1  UNL1        0.2104
     12 C          -3.9308  -17.4808   22.6663 C.3     1  UNL1        0.0973
     13 C          -1.9357  -16.4049   21.3967 C.3     1  UNL1        0.0859
     14 N          -3.0607  -16.2923   22.3823 N.3     1  UNL1       -0.2943
     15 H          -3.6752  -15.5516   22.0445 H       1  UNL1        0.1234
     16 S          -7.8476  -17.8391   22.2694 S.3     1  UNL1       -0.1080
     17 C          -9.3166  -17.7174   22.5468 C.ar    1  UNL1        0.0216
     18 C         -10.0624  -16.4898   22.1143 C.ar    1  UNL1        0.0058
     19 C         -11.5315  -16.3680   22.3916 C.ar    1  UNL1        0.0005
     20 C         -12.2549  -17.4738   23.1014 C.ar    1  UNL1       -0.0003
     21 C         -11.5092  -18.7014   23.5339 C.ar    1  UNL1       -0.0038
     22 C         -10.0401  -18.8232   23.2566 C.ar    1  UNL1       -0.0162
     23 C          -9.2945  -20.0507   23.6891 C.3     1  UNL1        0.0315
@<TRIPOS>BOND
     1    13    14    1
     2    14    12    1
     3    12     1    1
     4     1     2    1
     5     1     3    1
     6     3     4    1
     7     4     5   ar
     8     5     6   ar
     9     6     7   ar
    10     7     8   ar
    11     8     9   ar
    12     9    10    1
    13    10    16    1
    14    16    17    1
    15    17    18   ar
    16    18    19   ar
    17    19    20   ar
    18    20    21   ar
    19    21    22   ar
    20    22    23    1
    21    10     1    1
    22    22    17   ar
    23     9     4   ar
    24    14    15    1
    25     2    11    1
