@<TRIPOS>MOLECULE
*****
 21 23 0 0 0
SMALL
GASTEIGER

@<TRIPOS>ATOM
      1 C         -10.0082  -18.0073   21.7172 C.ar    1  UNL1        0.0252
      2 C         -11.1351  -18.4840   20.8495 C.ar    1  UNL1        0.0993
      3 N         -12.4443  -17.7518   20.8511 N.ar    1  UNL1       -0.2423
      4 C         -12.6266  -16.5430   21.7204 C.ar    1  UNL1        0.0989
      5 C         -11.4997  -16.0664   22.5880 C.ar    1  UNL1        0.0207
      6 C         -10.1905  -16.7985   22.5864 C.ar    1  UNL1        0.0050
      7 C          -9.0635  -16.3218   23.4541 C.ar    1  UNL1        0.0193
      8 C          -9.0871  -16.5914   24.9294 C.ar    1  UNL1        0.0031
      9 C          -7.9602  -16.1148   25.7971 C.ar    1  UNL1        0.0207
     10 C          -6.8096  -15.3685   25.1894 C.ar    1  UNL1        0.0989
     11 N          -6.7860  -15.0988   23.7140 N.ar    1  UNL1       -0.2423
     12 C          -7.9130  -15.5755   22.8463 C.ar    1  UNL1        0.0988
     13 C          -6.4706  -19.4824   21.1052 C.ar    1  UNL1        0.0230
     14 C          -6.8981  -20.2496   22.3213 C.ar    1  UNL1        0.0040
     15 C          -8.2754  -19.7904   22.6985 C.ar    1  UNL1        0.0067
     16 C          -8.6990  -18.7394   21.7156 C.ar    1  UNL1        0.0307
     17 S          -7.5836  -18.5491   20.7309 S.2     1  UNL1       -0.0899
     18 N          -4.6978  -18.5480   19.4517 N.3     1  UNL1       -0.3170
     19 C          -5.1601  -19.6238   20.3892 C.3     1  UNL1        0.0987
     20 H          -3.7940  -18.8070   19.0561 H       1  UNL1        0.1192
     21 H          -4.6066  -17.6691   19.9612 H       1  UNL1        0.1192
@<TRIPOS>BOND
     1    18    19    1
     2    19    13    1
     3    13    14   ar
     4    14    15   ar
     5    15    16   ar
     6    16     1    1
     7     1     2   ar
     8     2     3   ar
     9     3     4   ar
    10     4     5   ar
    11     5     6   ar
    12     6     7    1
    13     7     8   ar
    14     8     9   ar
    15     9    10   ar
    16    10    11   ar
    17    11    12   ar
    18    16    17   ar
    19    17    13   ar
    20     6     1   ar
    21    12     7   ar
    22    18    20    1
    23    18    21    1
@<TRIPOS>MOLECULE
*****
 21 23 0 0 0
SMALL
GASTEIGER

@<TRIPOS>ATOM
      1 C          -9.7335  -18.3214   21.3920 C.ar    1  UNL1        0.0252
      2 C          -9.8146  -19.2012   20.1799 C.ar    1  UNL1        0.0993
      3 N          -8.5584  -19.7092   19.5364 N.ar    1  UNL1       -0.2423
      4 C          -7.2212  -19.3373   20.1052 C.ar    1  UNL1        0.0989
      5 C          -7.1401  -18.4575   21.3173 C.ar    1  UNL1        0.0207
      6 C          -8.3962  -17.9495   21.9607 C.ar    1  UNL1        0.0050
      7 C          -8.3152  -17.0696   23.1729 C.ar    1  UNL1        0.0193
      8 C          -8.8610  -17.5488   24.4853 C.ar    1  UNL1        0.0031
      9 C          -8.7800  -16.6690   25.6974 C.ar    1  UNL1        0.0207
     10 C          -8.1531  -15.3100   25.5972 C.ar    1  UNL1        0.0989
     11 N          -7.6072  -14.8308   24.2848 N.ar    1  UNL1       -0.2423
     12 C          -7.6882  -15.7107   23.0726 C.ar    1  UNL1        0.0988
     13 C         -13.0531  -17.7135   23.3094 C.ar    1  UNL1        0.0230
     14 C         -12.7923  -16.3497   22.7417 C.ar    1  UNL1        0.0040
     15 C         -11.5171  -16.4115   21.9544 C.ar    1  UNL1        0.0067
     16 C         -10.9897  -17.8134   22.0354 C.ar    1  UNL1        0.0307
     17 S         -11.9390  -18.6181   22.8729 S.2     1  UNL1       -0.0899
     18 N         -14.0015  -18.5560   25.5768 N.3     1  UNL1       -0.3170
     19 C         -14.2226  -18.1041   24.1636 C.3     1  UNL1        0.0987
     20 H         -14.8990  -18.7803   26.0064 H       1  UNL1        0.1192
     21 H         -13.5485  -17.8103   26.1052 H       1  UNL1        0.1192
@<TRIPOS>BOND
     1    18    19    1
     2    19    13    1
     3    13    14   ar
     4    14    15   ar
     5    15    16   ar
     6    16     1    1
     7     1     2   ar
     8     2     3   ar
     9     3     4   ar
    10     4     5   ar
    11     5     6   ar
    12     6     7    1
    13     7     8   ar
    14     8     9   ar
    15     9    10   ar
    16    10    11   ar
    17    11    12   ar
    18    16    17   ar
    19    17    13   ar
    20     6     1   ar
    21    12     7   ar
    22    18    20    1
    23    18    21    1
@<TRIPOS>MOLECULE
*****
 21 23 0 0 0
SMALL
GASTEIGER

@<TRIPOS>ATOM
      1 C          -9.3629  -19.3200   22.8090 C.ar    1  UNL1        0.0252
      2 C          -9.2114  -20.3056   23.9295 C.ar    1  UNL1        0.0993
      3 N         -10.1728  -20.2860   25.0806 N.ar    1  UNL1       -0.2423
      4 C         -11.2858  -19.2808   25.1112 C.ar    1  UNL1        0.0989
      5 C         -11.4373  -18.2953   23.9907 C.ar    1  UNL1        0.0207
      6 C         -10.4758  -18.3149   22.8396 C.ar    1  UNL1        0.0050
      7 C         -10.6273  -17.3293   21.7189 C.ar    1  UNL1        0.0193
      8 C         -11.6658  -17.5519   20.6596 C.ar    1  UNL1        0.0031
      9 C         -11.8173  -16.5663   19.5390 C.ar    1  UNL1        0.0207
     10 C         -10.9303  -15.3582   19.4777 C.ar    1  UNL1        0.0989
     11 N          -9.8919  -15.1356   20.5370 N.ar    1  UNL1       -0.2423
     12 C          -9.7404  -16.1212   21.6576 C.ar    1  UNL1        0.0988
     13 C          -6.3491  -19.2863   20.3632 C.ar    1  UNL1        0.0230
     14 C          -7.4947  -19.4531   19.4092 C.ar    1  UNL1        0.0040
     15 C          -8.7630  -19.4861   20.2094 C.ar    1  UNL1        0.0067
     16 C          -8.4014  -19.3396   21.6577 C.ar    1  UNL1        0.0307
     17 S          -6.9095  -19.2161   21.7528 S.2     1  UNL1       -0.0899
     18 N          -4.4069  -18.0800   19.1291 N.3     1  UNL1       -0.3170
     19 C          -4.8979  -19.2040   19.9925 C.3     1  UNL1        0.0987
     20 H          -3.4031  -18.1804   18.9786 H       1  UNL1        0.1192
     21 H          -4.5942  -17.1899   19.5907 H       1  UNL1        0.1192
@<TRIPOS>BOND
     1    18    19    1
     2    19    13    1
     3    13    14   ar
     4    14    15   ar
     5    15    16   ar
     6    16     1    1
     7     1     2   ar
     8     2     3   ar
     9     3     4   ar
    10     4     5   ar
    11     5     6   ar
    12     6     7    1
    13     7     8   ar
    14     8     9   ar
    15     9    10   ar
    16    10    11   ar
    17    11    12   ar
    18    16    17   ar
    19    17    13   ar
    20     6     1   ar
    21    12     7   ar
    22    18    20    1
    23    18    21    1
@<TRIPOS>MOLECULE
*****
 21 23 0 0 0
SMALL
GASTEIGER

@<TRIPOS>ATOM
      1 C         -10.3744  -16.9427   22.9159 C.ar    1  UNL1        0.0252
      2 C         -11.7193  -16.2969   22.7604 C.ar    1  UNL1        0.0993
      3 N         -12.4299  -16.3526   21.4406 N.ar    1  UNL1       -0.2423
      4 C         -11.7956  -17.0541   20.2763 C.ar    1  UNL1        0.0989
      5 C         -10.4507  -17.6999   20.4318 C.ar    1  UNL1        0.0207
      6 C          -9.7401  -17.6442   21.7516 C.ar    1  UNL1        0.0050
      7 C          -8.3952  -18.2900   21.9071 C.ar    1  UNL1        0.0193
      8 C          -8.2960  -19.7664   22.1524 C.ar    1  UNL1        0.0031
      9 C          -6.9512  -20.4123   22.3079 C.ar    1  UNL1        0.0207
     10 C          -5.7053  -19.5816   22.2181 C.ar    1  UNL1        0.0989
     11 N          -5.8045  -18.1051   21.9728 N.ar    1  UNL1       -0.2423
     12 C          -7.1494  -17.4593   21.8173 C.ar    1  UNL1        0.0988
     13 C          -8.2815  -16.1339   26.0831 C.ar    1  UNL1        0.0230
     14 C          -8.8588  -17.4689   26.4503 C.ar    1  UNL1        0.0040
     15 C          -9.7130  -17.9343   25.3085 C.ar    1  UNL1        0.0067
     16 C          -9.6637  -16.8870   24.2357 C.ar    1  UNL1        0.0307
     17 S          -8.7790  -15.7744   24.7145 S.2     1  UNL1       -0.0899
     18 N          -6.1873  -14.6142   26.3174 N.3     1  UNL1       -0.3170
     19 C          -7.3672  -15.3043   26.9351 C.3     1  UNL1        0.0987
     20 H          -5.6798  -14.0991   27.0367 H       1  UNL1        0.1192
     21 H          -6.5101  -13.9662   25.5989 H       1  UNL1        0.1192
@<TRIPOS>BOND
     1    18    19    1
     2    19    13    1
     3    13    14   ar
     4    14    15   ar
     5    15    16   ar
     6    16     1    1
     7     1     2   ar
     8     2     3   ar
     9     3     4   ar
    10     4     5   ar
    11     5     6   ar
    12     6     7    1
    13     7     8   ar
    14     8     9   ar
    15     9    10   ar
    16    10    11   ar
    17    11    12   ar
    18    16    17   ar
    19    17    13   ar
    20     6     1   ar
    21    12     7   ar
    22    18    20    1
    23    18    21    1
@<TRIPOS>MOLECULE
*****
 21 23 0 0 0
SMALL
GASTEIGER

@<TRIPOS>ATOM
      1 C          -7.0711  -16.8115   23.5054 C.ar    1  UNL1        0.0252
      2 C          -5.7633  -16.1236   23.7629 C.ar    1  UNL1        0.0993
      3 N          -5.6595  -15.0910   24.8460 N.ar    1  UNL1       -0.2423
      4 C          -6.8636  -14.7463   25.6714 C.ar    1  UNL1        0.0989
      5 C          -8.1714  -15.4342   25.4139 C.ar    1  UNL1        0.0207
      6 C          -8.2752  -16.4668   24.3309 C.ar    1  UNL1        0.0050
      7 C          -9.5831  -17.1547   24.0734 C.ar    1  UNL1        0.0193
      8 C          -9.8680  -18.4849   24.7053 C.ar    1  UNL1        0.0031
      9 C         -11.1758  -19.1729   24.4478 C.ar    1  UNL1        0.0207
     10 C         -12.1987  -18.5306   23.5583 C.ar    1  UNL1        0.0989
     11 N         -11.9138  -17.2004   22.9264 N.ar    1  UNL1       -0.2423
     12 C         -10.6059  -16.5124   23.1839 C.ar    1  UNL1        0.0988
     13 C          -6.6684  -19.7118   20.9576 C.ar    1  UNL1        0.0230
     14 C          -8.0012  -19.1544   20.5539 C.ar    1  UNL1        0.0040
     15 C          -8.3143  -18.0001   21.4592 C.ar    1  UNL1        0.0067
     16 C          -7.1750  -17.8441   22.4224 C.ar    1  UNL1        0.0307
     17 S          -6.1578  -18.9020   22.1123 S.2     1  UNL1       -0.0899
     18 N          -4.4920  -20.8142   20.0643 N.3     1  UNL1       -0.3170
     19 C          -5.9690  -20.8749   20.3187 C.3     1  UNL1        0.0987
     20 H          -4.1862  -21.6839   19.6278 H       1  UNL1        0.1192
     21 H          -3.9997  -20.6861   20.9484 H       1  UNL1        0.1192
@<TRIPOS>BOND
     1    18    19    1
     2    19    13    1
     3    13    14   ar
     4    14    15   ar
     5    15    16   ar
     6    16     1    1
     7     1     2   ar
     8     2     3   ar
     9     3     4   ar
    10     4     5   ar
    11     5     6   ar
    12     6     7    1
    13     7     8   ar
    14     8     9   ar
    15     9    10   ar
    16    10    11   ar
    17    11    12   ar
    18    16    17   ar
    19    17    13   ar
    20     6     1   ar
    21    12     7   ar
    22    18    20    1
    23    18    21    1
@<TRIPOS>MOLECULE
*****
 21 23 0 0 0
SMALL
GASTEIGER

@<TRIPOS>ATOM
      1 C          -8.1263  -18.9449   21.1005 C.ar    1  UNL1        0.0252
      2 C          -7.6030  -19.9198   20.0877 C.ar    1  UNL1        0.0993
      3 N          -6.1598  -20.3276   20.1152 N.ar    1  UNL1       -0.2423
      4 C          -5.2399  -19.7606   21.1555 C.ar    1  UNL1        0.0989
      5 C          -5.7631  -18.7857   22.1683 C.ar    1  UNL1        0.0207
      6 C          -7.2063  -18.3779   22.1408 C.ar    1  UNL1        0.0050
      7 C          -7.7297  -17.4030   23.1536 C.ar    1  UNL1        0.0193
      8 C          -7.2136  -15.9947   23.1754 C.ar    1  UNL1        0.0031
      9 C          -7.7369  -15.0198   24.1882 C.ar    1  UNL1        0.0207
     10 C          -8.7763  -15.4531   25.1792 C.ar    1  UNL1        0.0989
     11 N          -9.2923  -16.8614   25.1573 N.ar    1  UNL1       -0.2423
     12 C          -8.7690  -17.8363   24.1445 C.ar    1  UNL1        0.0988
     13 C         -11.5973  -17.2454   20.7403 C.ar    1  UNL1        0.0230
     14 C         -11.9836  -18.5733   21.3213 C.ar    1  UNL1        0.0040
     15 C         -10.7304  -19.3715   21.5269 C.ar    1  UNL1        0.0067
     16 C          -9.5695  -18.5370   21.0730 C.ar    1  UNL1        0.0307
     17 S         -10.1053  -17.2230   20.5869 S.2     1  UNL1       -0.0899
     18 N         -12.4432  -15.4831   19.0289 N.3     1  UNL1       -0.3170
     19 C         -12.5378  -16.1349   20.3766 C.3     1  UNL1        0.0987
     20 H         -13.1531  -14.7546   18.9531 H       1  UNL1        0.1192
     21 H         -12.5945  -16.1822   18.3018 H       1  UNL1        0.1192
@<TRIPOS>BOND
     1    18    19    1
     2    19    13    1
     3    13    14   ar
     4    14    15   ar
     5    15    16   ar
     6    16     1    1
     7     1     2   ar
     8     2     3   ar
     9     3     4   ar
    10     4     5   ar
    11     5     6   ar
    12     6     7    1
    13     7     8   ar
    14     8     9   ar
    15     9    10   ar
    16    10    11   ar
    17    11    12   ar
    18    16    17   ar
    19    17    13   ar
    20     6     1   ar
    21    12     7   ar
    22    18    20    1
    23    18    21    1
@<TRIPOS>MOLECULE
*****
 21 23 0 0 0
SMALL
GASTEIGER

@<TRIPOS>ATOM
      1 C         -11.2286   -2.4091   17.6327 C.ar    1  UNL1        0.0252
      2 C         -10.2871   -1.5056   16.8930 C.ar    1  UNL1        0.0993
      3 N         -10.6829   -0.0892   16.5984 N.ar    1  UNL1       -0.2423
      4 C         -12.0203    0.4239   17.0435 C.ar    1  UNL1        0.0989
      5 C         -12.9619   -0.4796   17.7832 C.ar    1  UNL1        0.0207
      6 C         -12.5660   -1.8961   18.0778 C.ar    1  UNL1        0.0050
      7 C         -13.5076   -2.7996   18.8175 C.ar    1  UNL1        0.0193
      8 C         -13.3341   -3.0191   20.2912 C.ar    1  UNL1        0.0031
      9 C         -14.2756   -3.9226   21.0309 C.ar    1  UNL1        0.0207
     10 C         -15.3907   -4.6066   20.2970 C.ar    1  UNL1        0.0989
     11 N         -15.5643   -4.3871   18.8233 N.ar    1  UNL1       -0.2423
     12 C         -14.6227   -3.4836   18.0836 C.ar    1  UNL1        0.0988
     13 C         -10.6375   -6.2416   17.8015 C.ar    1  UNL1        0.0230
     14 C          -9.8098   -5.7693   18.9599 C.ar    1  UNL1        0.0040
     15 C          -9.9305   -4.2762   19.0377 C.ar    1  UNL1        0.0067
     16 C         -10.8328   -3.8257   17.9273 C.ar    1  UNL1        0.0307
     17 S         -11.2698   -5.0403   17.1634 S.2     1  UNL1       -0.0899
     18 N          -9.8929   -8.7288   17.8962 N.3     1  UNL1       -0.3170
     19 C         -10.8038   -7.6651   17.3590 C.3     1  UNL1        0.0987
     20 H         -10.1467   -9.6301   17.4916 H       1  UNL1        0.1192
     21 H          -9.9843   -8.7740   18.9111 H       1  UNL1        0.1192
@<TRIPOS>BOND
     1    18    19    1
     2    19    13    1
     3    13    14   ar
     4    14    15   ar
     5    15    16   ar
     6    16     1    1
     7     1     2   ar
     8     2     3   ar
     9     3     4   ar
    10     4     5   ar
    11     5     6   ar
    12     6     7    1
    13     7     8   ar
    14     8     9   ar
    15     9    10   ar
    16    10    11   ar
    17    11    12   ar
    18    16    17   ar
    19    17    13   ar
    20     6     1   ar
    21    12     7   ar
    22    18    20    1
    23    18    21    1
@<TRIPOS>MOLECULE
*****
 21 23 0 0 0
SMALL
GASTEIGER

@<TRIPOS>ATOM
      1 C         -14.3230   -7.4855   18.5570 C.ar    1  UNL1        0.0252
      2 C         -14.5019   -8.9659   18.3945 C.ar    1  UNL1        0.0993
      3 N         -15.7427   -9.6324   18.9104 N.ar    1  UNL1       -0.2423
      4 C         -16.8045   -8.8186   19.5887 C.ar    1  UNL1        0.0989
      5 C         -16.6256   -7.3383   19.7512 C.ar    1  UNL1        0.0207
      6 C         -15.3849   -6.6717   19.2353 C.ar    1  UNL1        0.0050
      7 C         -15.2059   -5.1913   19.3978 C.ar    1  UNL1        0.0193
      8 C         -14.4765   -4.6506   20.5918 C.ar    1  UNL1        0.0031
      9 C         -14.2975   -3.1702   20.7543 C.ar    1  UNL1        0.0207
     10 C         -14.8480   -2.2304   19.7228 C.ar    1  UNL1        0.0989
     11 N         -15.5774   -2.7711   18.5288 N.ar    1  UNL1       -0.2423
     12 C         -15.7564   -4.2516   18.3664 C.ar    1  UNL1        0.0988
     13 C         -10.8928   -5.7762   17.9427 C.ar    1  UNL1        0.0230
     14 C         -11.4530   -5.8100   16.5516 C.ar    1  UNL1        0.0040
     15 C         -12.8061   -6.4544   16.6125 C.ar    1  UNL1        0.0067
     16 C         -13.0822   -6.8189   18.0411 C.ar    1  UNL1        0.0307
     17 S         -11.8997   -6.3997   18.8632 S.2     1  UNL1       -0.0899
     18 N          -9.4879   -4.0367   19.2659 N.3     1  UNL1       -0.3170
     19 C          -9.5597   -5.2170   18.3430 C.3     1  UNL1        0.0987
     20 H          -8.5113   -3.7921   19.4298 H       1  UNL1        0.1192
     21 H          -9.9332   -4.2713   20.1531 H       1  UNL1        0.1192
@<TRIPOS>BOND
     1    18    19    1
     2    19    13    1
     3    13    14   ar
     4    14    15   ar
     5    15    16   ar
     6    16     1    1
     7     1     2   ar
     8     2     3   ar
     9     3     4   ar
    10     4     5   ar
    11     5     6   ar
    12     6     7    1
    13     7     8   ar
    14     8     9   ar
    15     9    10   ar
    16    10    11   ar
    17    11    12   ar
    18    16    17   ar
    19    17    13   ar
    20     6     1   ar
    21    12     7   ar
    22    18    20    1
    23    18    21    1
@<TRIPOS>MOLECULE
*****
 21 23 0 0 0
SMALL
GASTEIGER

@<TRIPOS>ATOM
      1 C          -8.0044  -16.6197   24.2426 C.ar    1  UNL1        0.0252
      2 C          -7.8448  -15.5855   25.3172 C.ar    1  UNL1        0.0993
      3 N          -6.5234  -14.9027   25.5107 N.ar    1  UNL1       -0.2423
      4 C          -5.3615  -15.2540   24.6295 C.ar    1  UNL1        0.0989
      5 C          -5.5210  -16.2882   23.5548 C.ar    1  UNL1        0.0207
      6 C          -6.8425  -16.9710   23.3613 C.ar    1  UNL1        0.0050
      7 C          -7.0020  -18.0053   22.2866 C.ar    1  UNL1        0.0193
      8 C          -6.1391  -19.2322   22.2924 C.ar    1  UNL1        0.0031
      9 C          -6.2986  -20.2664   21.2177 C.ar    1  UNL1        0.0207
     10 C          -7.3211  -20.0737   20.1372 C.ar    1  UNL1        0.0989
     11 N          -8.1841  -18.8468   20.1315 N.ar    1  UNL1       -0.2423
     12 C          -8.0245  -17.8126   21.2062 C.ar    1  UNL1        0.0988
     13 C         -11.5821  -17.7953   23.3027 C.ar    1  UNL1        0.0230
     14 C         -11.1365  -18.9118   24.1999 C.ar    1  UNL1        0.0040
     15 C          -9.7420  -18.6073   24.6611 C.ar    1  UNL1        0.0067
     16 C          -9.3258  -17.3026   24.0491 C.ar    1  UNL1        0.0307
     17 S         -10.4631  -16.8008   23.2095 S.2     1  UNL1       -0.0899
     18 N         -12.9797  -17.4498   21.1400 N.3     1  UNL1       -0.3170
     19 C         -12.9131  -17.6916   22.6189 C.3     1  UNL1        0.0987
     20 H         -13.9555  -17.4077   20.8459 H       1  UNL1        0.1192
     21 H         -12.5094  -18.2105   20.6496 H       1  UNL1        0.1192
@<TRIPOS>BOND
     1    18    19    1
     2    19    13    1
     3    13    14   ar
     4    14    15   ar
     5    15    16   ar
     6    16     1    1
     7     1     2   ar
     8     2     3   ar
     9     3     4   ar
    10     4     5   ar
    11     5     6   ar
    12     6     7    1
    13     7     8   ar
    14     8     9   ar
    15     9    10   ar
    16    10    11   ar
    17    11    12   ar
    18    16    17   ar
    19    17    13   ar
    20     6     1   ar
    21    12     7   ar
    22    18    20    1
    23    18    21    1
