@<TRIPOS>MOLECULE
*****
 26 28 0 0 0
SMALL
GASTEIGER

@<TRIPOS>ATOM
      1 C          -6.0000  -15.9785   23.9212 C.ar    1  UNL1        0.0274
      2 C          -5.6476  -17.3364   23.3905 C.ar    1  UNL1        0.0013
      3 C          -6.5939  -18.0517   22.4724 C.ar    1  UNL1        0.0145
      4 C          -7.8927  -17.4090   22.0850 C.ar    1  UNL1        0.0513
      5 C          -8.2452  -16.0510   22.6158 C.ar    1  UNL1        0.0509
      6 C          -7.2989  -15.3357   23.5339 C.ar    1  UNL1        0.1322
      7 O          -7.6514  -13.9778   24.0646 O.3     1  UNL1       -0.5057
      8 H          -8.4627  -13.5763   23.8226 H       1  UNL1        0.2922
      9 N          -8.8390  -18.1243   21.1670 N.pl3   1  UNL1       -0.3124
     10 H          -8.5268  -18.8969   20.6428 H       1  UNL1        0.1522
     11 C         -10.2611  -17.6622   21.0475 C.ar    1  UNL1        0.0513
     12 C         -10.7201  -16.9621   19.8029 C.ar    1  UNL1        0.0353
     13 C         -12.1422  -16.5001   19.6834 C.ar    1  UNL1        0.1001
     14 N         -13.1052  -16.7382   20.8085 N.ar    1  UNL1       -0.2437
     15 C         -12.6461  -17.4384   22.0531 C.ar    1  UNL1        0.0833
     16 C         -13.6091  -17.6765   23.1783 C.ar    1  UNL1        0.0305
     17 C         -13.1501  -18.3767   24.4228 C.ar    1  UNL1        0.0592
     18 CL        -14.1131  -18.6148   25.5480 Cl      1  UNL1       -0.0822
     19 C         -11.7280  -18.8387   24.5424 C.ar    1  UNL1        0.0115
     20 C         -10.7650  -18.6006   23.4172 C.ar    1  UNL1        0.0036
     21 C         -11.2241  -17.9004   22.1726 C.ar    1  UNL1        0.0312
     22 C          -5.0537  -15.2632   24.8393 C.3     1  UNL1        0.0987
     23 N          -5.5631  -14.6428   26.1064 N.3     1  UNL1       -0.2937
     24 H          -4.7537  -14.2531   26.5895 H       1  UNL1        0.1236
     25 C          -7.8016  -15.4449   27.1532 C.3     1  UNL1        0.0185
     26 C          -6.3027  -15.4805   27.1070 C.3     1  UNL1        0.0689
@<TRIPOS>BOND
     1    25    26    1
     2    26    23    1
     3    23    22    1
     4    22     1    1
     5     1     2   ar
     6     2     3   ar
     7     3     4   ar
     8     4     9    1
     9     9    11    1
    10    11    12   ar
    11    12    13   ar
    12    13    14   ar
    13    14    15   ar
    14    15    16   ar
    15    16    17   ar
    16    17    18    1
    17    17    19   ar
    18    19    20   ar
    19    20    21   ar
    20     4     5   ar
    21     5     6   ar
    22     6     7    1
    23     6     1   ar
    24    21    11   ar
    25    21    15   ar
    26    23    24    1
    27     9    10    1
    28     7     8    1
@<TRIPOS>MOLECULE
*****
 26 28 0 0 0
SMALL
GASTEIGER

@<TRIPOS>ATOM
      1 C          -3.8147  -19.3499   20.7560 C.ar    1  UNL1        0.0274
      2 C          -4.6425  -20.4819   20.2238 C.ar    1  UNL1        0.0013
      3 C          -6.0238  -20.7174   20.7594 C.ar    1  UNL1        0.0145
      4 C          -6.5772  -19.8210   21.8271 C.ar    1  UNL1        0.0513
      5 C          -5.7493  -18.6889   22.3593 C.ar    1  UNL1        0.0509
      6 C          -4.3681  -18.4533   21.8238 C.ar    1  UNL1        0.1322
      7 O          -3.5403  -17.3213   22.3559 O.3     1  UNL1       -0.5057
      8 H          -3.8860  -16.7613   23.0229 H       1  UNL1        0.2922
      9 N          -7.9584  -20.0565   22.3626 N.pl3   1  UNL1       -0.3124
     10 H          -8.0865  -20.6070   23.1687 H       1  UNL1        0.1522
     11 C          -9.1443  -19.4532   21.6699 C.ar    1  UNL1        0.0513
     12 C          -9.1022  -19.2030   20.1916 C.ar    1  UNL1        0.0353
     13 C         -10.2881  -18.5997   19.4990 C.ar    1  UNL1        0.1001
     14 N         -11.5161  -18.2468   20.2848 N.ar    1  UNL1       -0.2437
     15 C         -11.5582  -18.4971   21.7631 C.ar    1  UNL1        0.0833
     16 C         -12.7862  -18.1441   22.5489 C.ar    1  UNL1        0.0305
     17 C         -12.8283  -18.3944   24.0272 C.ar    1  UNL1        0.0592
     18 CL        -14.0564  -18.0414   24.8129 Cl      1  UNL1       -0.0822
     19 C         -11.6424  -18.9976   24.7199 C.ar    1  UNL1        0.0115
     20 C         -10.4144  -19.3506   23.9341 C.ar    1  UNL1        0.0036
     21 C         -10.3723  -19.1003   22.4557 C.ar    1  UNL1        0.0312
     22 C          -2.4335  -19.1144   20.2205 C.3     1  UNL1        0.0987
     23 N          -2.0815  -17.7902   19.6101 N.3     1  UNL1       -0.2937
     24 H          -1.9141  -17.9585   18.6181 H       1  UNL1        0.1236
     25 C           0.4688  -17.6235   20.0772 C.3     1  UNL1        0.0185
     26 C          -0.9026  -17.0175   20.1231 C.3     1  UNL1        0.0689
@<TRIPOS>BOND
     1    25    26    1
     2    26    23    1
     3    23    22    1
     4    22     1    1
     5     1     2   ar
     6     2     3   ar
     7     3     4   ar
     8     4     9    1
     9     9    11    1
    10    11    12   ar
    11    12    13   ar
    12    13    14   ar
    13    14    15   ar
    14    15    16   ar
    15    16    17   ar
    16    17    18    1
    17    17    19   ar
    18    19    20   ar
    19    20    21   ar
    20     4     5   ar
    21     5     6   ar
    22     6     7    1
    23     6     1   ar
    24    21    11   ar
    25    21    15   ar
    26    23    24    1
    27     9    10    1
    28     7     8    1
@<TRIPOS>MOLECULE
*****
 26 28 0 0 0
SMALL
GASTEIGER

@<TRIPOS>ATOM
      1 C          -5.0788  -18.1607   22.6471 C.ar    1  UNL1        0.0274
      2 C          -5.1387  -19.5220   22.0200 C.ar    1  UNL1        0.0013
      3 C          -6.4456  -20.0588   21.5160 C.ar    1  UNL1        0.0145
      4 C          -7.6925  -19.2343   21.6391 C.ar    1  UNL1        0.0513
      5 C          -7.6327  -17.8729   22.2662 C.ar    1  UNL1        0.0509
      6 C          -6.3258  -17.3362   22.7702 C.ar    1  UNL1        0.1322
      7 O          -6.2660  -15.9749   23.3973 O.3     1  UNL1       -0.5057
      8 H          -7.0449  -15.4598   23.4742 H       1  UNL1        0.2922
      9 N          -8.9994  -19.7711   21.1352 N.pl3   1  UNL1       -0.3124
     10 H          -9.0772  -20.7192   20.8817 H       1  UNL1        0.1522
     11 C         -10.1877  -18.8632   21.0173 C.ar    1  UNL1        0.0513
     12 C         -10.4143  -18.0844   19.7556 C.ar    1  UNL1        0.0353
     13 C         -11.6026  -17.1766   19.6379 C.ar    1  UNL1        0.1001
     14 N         -12.5642  -17.0476   20.7818 N.ar    1  UNL1       -0.2437
     15 C         -12.3376  -17.8265   22.0435 C.ar    1  UNL1        0.0833
     16 C         -13.2992  -17.6976   23.1875 C.ar    1  UNL1        0.0305
     17 C         -13.0726  -18.4764   24.4492 C.ar    1  UNL1        0.0592
     18 CL        -14.0343  -18.3475   25.5931 Cl      1  UNL1       -0.0822
     19 C         -11.8843  -19.3843   24.5670 C.ar    1  UNL1        0.0115
     20 C         -10.9227  -19.5132   23.4231 C.ar    1  UNL1        0.0036
     21 C         -11.1493  -18.7343   22.1613 C.ar    1  UNL1        0.0312
     22 C          -3.7720  -17.6239   23.1510 C.3     1  UNL1        0.0987
     23 N          -3.1950  -16.3739   22.5557 N.3     1  UNL1       -0.2937
     24 H          -3.9668  -15.8752   22.1129 H       1  UNL1        0.1236
     25 C          -1.6986  -17.8011   20.9827 C.3     1  UNL1        0.0185
     26 C          -2.0976  -16.4656   21.5371 C.3     1  UNL1        0.0689
@<TRIPOS>BOND
     1    25    26    1
     2    26    23    1
     3    23    22    1
     4    22     1    1
     5     1     2   ar
     6     2     3   ar
     7     3     4   ar
     8     4     9    1
     9     9    11    1
    10    11    12   ar
    11    12    13   ar
    12    13    14   ar
    13    14    15   ar
    14    15    16   ar
    15    16    17   ar
    16    17    18    1
    17    17    19   ar
    18    19    20   ar
    19    20    21   ar
    20     4     5   ar
    21     5     6   ar
    22     6     7    1
    23     6     1   ar
    24    21    11   ar
    25    21    15   ar
    26    23    24    1
    27     9    10    1
    28     7     8    1
@<TRIPOS>MOLECULE
*****
 26 28 0 0 0
SMALL
GASTEIGER

@<TRIPOS>ATOM
      1 C          -3.1208  -18.1999   22.2354 C.ar    1  UNL1        0.0274
      2 C          -4.2989  -17.4318   22.7570 C.ar    1  UNL1        0.0013
      3 C          -5.6525  -18.0763   22.8054 C.ar    1  UNL1        0.0145
      4 C          -5.8280  -19.4888   22.3323 C.ar    1  UNL1        0.0513
      5 C          -4.6499  -20.2569   21.8106 C.ar    1  UNL1        0.0509
      6 C          -3.2963  -19.6125   21.7622 C.ar    1  UNL1        0.1322
      7 O          -2.1182  -20.3805   21.2405 O.3     1  UNL1       -0.5057
      8 H          -2.2278  -21.2629   20.9449 H       1  UNL1        0.2922
      9 N          -7.1817  -20.1333   22.3807 N.pl3   1  UNL1       -0.3124
     10 H          -7.3615  -20.8526   23.0284 H       1  UNL1        0.1522
     11 C          -8.2613  -19.6817   21.4423 C.ar    1  UNL1        0.0513
     12 C          -8.0196  -19.6885   19.9620 C.ar    1  UNL1        0.0353
     13 C          -9.0992  -19.2370   19.0237 C.ar    1  UNL1        0.1001
     14 N         -10.4206  -18.7787   19.5658 N.ar    1  UNL1       -0.2437
     15 C         -10.6624  -18.7719   21.0461 C.ar    1  UNL1        0.0833
     16 C         -11.9838  -18.3136   21.5881 C.ar    1  UNL1        0.0305
     17 C         -12.2256  -18.3068   23.0685 C.ar    1  UNL1        0.0592
     18 CL        -13.5470  -17.8485   23.6105 Cl      1  UNL1       -0.0822
     19 C         -11.1459  -18.7583   24.0069 C.ar    1  UNL1        0.0115
     20 C          -9.8245  -19.2166   23.4648 C.ar    1  UNL1        0.0036
     21 C          -9.5827  -19.2234   21.9844 C.ar    1  UNL1        0.0312
     22 C          -1.7671  -17.5554   22.1869 C.3     1  UNL1        0.0987
     23 N          -0.7694  -17.9833   21.1519 N.3     1  UNL1       -0.2937
     24 H           0.1552  -17.7865   21.5351 H       1  UNL1        0.1236
     25 C          -1.8569  -17.8103   18.7987 C.3     1  UNL1        0.0185
     26 C          -0.8067  -17.3795   19.7793 C.3     1  UNL1        0.0689
@<TRIPOS>BOND
     1    25    26    1
     2    26    23    1
     3    23    22    1
     4    22     1    1
     5     1     2   ar
     6     2     3   ar
     7     3     4   ar
     8     4     9    1
     9     9    11    1
    10    11    12   ar
    11    12    13   ar
    12    13    14   ar
    13    14    15   ar
    14    15    16   ar
    15    16    17   ar
    16    17    18    1
    17    17    19   ar
    18    19    20   ar
    19    20    21   ar
    20     4     5   ar
    21     5     6   ar
    22     6     7    1
    23     6     1   ar
    24    21    11   ar
    25    21    15   ar
    26    23    24    1
    27     9    10    1
    28     7     8    1
@<TRIPOS>MOLECULE
*****
 26 28 0 0 0
SMALL
GASTEIGER

@<TRIPOS>ATOM
      1 C          -3.5545  -19.3415   21.0718 C.ar    1  UNL1        0.0274
      2 C          -4.5632  -19.7704   20.0478 C.ar    1  UNL1        0.0013
      3 C          -6.0114  -19.4256   20.2314 C.ar    1  UNL1        0.0145
      4 C          -6.4509  -18.6519   21.4389 C.ar    1  UNL1        0.0513
      5 C          -5.4422  -18.2230   22.4630 C.ar    1  UNL1        0.0509
      6 C          -3.9940  -18.5678   22.2794 C.ar    1  UNL1        0.1322
      7 O          -2.9853  -18.1390   23.3034 O.3     1  UNL1       -0.5057
      8 H          -3.2598  -17.6557   24.0577 H       1  UNL1        0.2922
      9 N          -7.8992  -18.3071   21.6225 N.pl3   1  UNL1       -0.3124
     10 H          -8.3880  -17.8384   20.9080 H       1  UNL1        0.1522
     11 C          -8.6027  -18.6765   22.8949 C.ar    1  UNL1        0.0513
     12 C          -9.3336  -19.9824   22.9958 C.ar    1  UNL1        0.0353
     13 C         -10.0370  -20.3517   24.2681 C.ar    1  UNL1        0.1001
     14 N         -10.0095  -19.4151   25.4394 N.ar    1  UNL1       -0.2437
     15 C          -9.2786  -18.1092   25.3385 C.ar    1  UNL1        0.0833
     16 C          -9.2510  -17.1725   26.5098 C.ar    1  UNL1        0.0305
     17 C          -8.5201  -15.8666   26.4088 C.ar    1  UNL1        0.0592
     18 CL         -8.4926  -14.9300   27.5801 Cl      1  UNL1       -0.0822
     19 C          -7.8166  -15.4972   25.1365 C.ar    1  UNL1        0.0115
     20 C          -7.8442  -16.4339   23.9652 C.ar    1  UNL1        0.0036
     21 C          -8.5751  -17.7399   24.0662 C.ar    1  UNL1        0.0312
     22 C          -2.1062  -19.6863   20.8882 C.3     1  UNL1        0.0987
     23 N          -1.0590  -18.6206   21.0200 N.3     1  UNL1       -0.2937
     24 H          -1.3076  -18.0628   21.8370 H       1  UNL1        0.1236
     25 C          -1.6880  -17.7087   18.6699 C.3     1  UNL1        0.0185
     26 C          -0.8227  -17.6579   19.8942 C.3     1  UNL1        0.0689
@<TRIPOS>BOND
     1    25    26    1
     2    26    23    1
     3    23    22    1
     4    22     1    1
     5     1     2   ar
     6     2     3   ar
     7     3     4   ar
     8     4     9    1
     9     9    11    1
    10    11    12   ar
    11    12    13   ar
    12    13    14   ar
    13    14    15   ar
    14    15    16   ar
    15    16    17   ar
    16    17    18    1
    17    17    19   ar
    18    19    20   ar
    19    20    21   ar
    20     4     5   ar
    21     5     6   ar
    22     6     7    1
    23     6     1   ar
    24    21    11   ar
    25    21    15   ar
    26    23    24    1
    27     9    10    1
    28     7     8    1
@<TRIPOS>MOLECULE
*****
 26 28 0 0 0
SMALL
GASTEIGER

@<TRIPOS>ATOM
      1 C          -3.7842  -18.2761   22.4532 C.ar    1  UNL1        0.0274
      2 C          -5.0256  -17.5778   22.9235 C.ar    1  UNL1        0.0013
      3 C          -6.3701  -18.2012   22.6921 C.ar    1  UNL1        0.0145
      4 C          -6.4733  -19.5229   21.9904 C.ar    1  UNL1        0.0513
      5 C          -5.2318  -20.2212   21.5200 C.ar    1  UNL1        0.0509
      6 C          -3.8873  -19.5978   21.7514 C.ar    1  UNL1        0.1322
      7 O          -2.6458  -20.2961   21.2811 O.3     1  UNL1       -0.5057
      8 H          -2.7102  -21.1217   20.8427 H       1  UNL1        0.2922
      9 N          -7.8178  -20.1463   21.7589 N.pl3   1  UNL1       -0.3124
     10 H          -7.9245  -20.8470   21.0756 H       1  UNL1        0.1522
     11 C          -8.9998  -19.7022   22.5687 C.ar    1  UNL1        0.0513
     12 C          -9.1810  -20.2060   23.9699 C.ar    1  UNL1        0.0353
     13 C         -10.3630  -19.7618   24.7796 C.ar    1  UNL1        0.1001
     14 N         -11.3638  -18.8139   24.1881 N.ar    1  UNL1       -0.2437
     15 C         -11.1826  -18.3101   22.7869 C.ar    1  UNL1        0.0833
     16 C         -12.1833  -17.3621   22.1954 C.ar    1  UNL1        0.0305
     17 C         -12.0021  -16.8583   20.7943 C.ar    1  UNL1        0.0592
     18 CL        -13.0029  -15.9104   20.2028 Cl      1  UNL1       -0.0822
     19 C         -10.8201  -17.3025   19.9845 C.ar    1  UNL1        0.0115
     20 C          -9.8194  -18.2504   20.5760 C.ar    1  UNL1        0.0036
     21 C         -10.0006  -18.7542   21.9772 C.ar    1  UNL1        0.0312
     22 C          -2.4396  -17.6527   22.6846 C.3     1  UNL1        0.0987
     23 N          -1.3449  -17.8344   21.6754 N.3     1  UNL1       -0.2937
     24 H          -0.4676  -17.6252   22.1517 H       1  UNL1        0.1236
     25 C          -1.9666  -17.5997   19.1637 C.3     1  UNL1        0.0185
     26 C          -1.3519  -17.0314   20.4085 C.3     1  UNL1        0.0689
@<TRIPOS>BOND
     1    25    26    1
     2    26    23    1
     3    23    22    1
     4    22     1    1
     5     1     2   ar
     6     2     3   ar
     7     3     4   ar
     8     4     9    1
     9     9    11    1
    10    11    12   ar
    11    12    13   ar
    12    13    14   ar
    13    14    15   ar
    14    15    16   ar
    15    16    17   ar
    16    17    18    1
    17    17    19   ar
    18    19    20   ar
    19    20    21   ar
    20     4     5   ar
    21     5     6   ar
    22     6     7    1
    23     6     1   ar
    24    21    11   ar
    25    21    15   ar
    26    23    24    1
    27     9    10    1
    28     7     8    1
@<TRIPOS>MOLECULE
*****
 26 28 0 0 0
SMALL
GASTEIGER

@<TRIPOS>ATOM
      1 C         -10.3724  -19.1831   20.9495 C.ar    1  UNL1        0.0274
      2 C          -9.2960  -19.1890   19.9049 C.ar    1  UNL1        0.0013
      3 C          -7.8637  -19.3851   20.3050 C.ar    1  UNL1        0.0145
      4 C          -7.5078  -19.5753   21.7497 C.ar    1  UNL1        0.0513
      5 C          -8.5843  -19.5694   22.7943 C.ar    1  UNL1        0.0509
      6 C         -10.0166  -19.3733   22.3942 C.ar    1  UNL1        0.1322
      7 O         -11.0930  -19.3673   23.4388 O.3     1  UNL1       -0.5057
      8 H         -10.8707  -19.4861   24.3413 H       1  UNL1        0.2922
      9 N          -6.0755  -19.7714   22.1498 N.pl3   1  UNL1       -0.3124
     10 H          -5.7081  -20.6809   22.2344 H       1  UNL1        0.1522
     11 C          -5.2029  -18.5818   22.4210 C.ar    1  UNL1        0.0513
     12 C          -5.6619  -17.5162   23.3716 C.ar    1  UNL1        0.0353
     13 C          -4.7893  -16.3266   23.6428 C.ar    1  UNL1        0.1001
     14 N          -3.4578  -16.2027   22.9633 N.ar    1  UNL1       -0.2437
     15 C          -2.9989  -17.2683   22.0126 C.ar    1  UNL1        0.0833
     16 C          -1.6674  -17.1443   21.3332 C.ar    1  UNL1        0.0305
     17 C          -1.2084  -18.2099   20.3825 C.ar    1  UNL1        0.0592
     18 CL          0.1231  -18.0860   19.7030 Cl      1  UNL1       -0.0822
     19 C          -2.0810  -19.3996   20.1113 C.ar    1  UNL1        0.0115
     20 C          -3.4125  -19.5235   20.7908 C.ar    1  UNL1        0.0036
     21 C          -3.8714  -18.4578   21.7415 C.ar    1  UNL1        0.0312
     22 C         -11.8047  -18.9870   20.5493 C.3     1  UNL1        0.0987
     23 N         -12.5916  -17.8424   21.1155 N.3     1  UNL1       -0.2937
     24 H         -13.5114  -17.8713   20.6756 H       1  UNL1        0.1236
     25 C         -11.6119  -15.9482   19.6314 C.3     1  UNL1        0.0185
     26 C         -12.0850  -16.4382   20.9679 C.3     1  UNL1        0.0689
@<TRIPOS>BOND
     1    25    26    1
     2    26    23    1
     3    23    22    1
     4    22     1    1
     5     1     2   ar
     6     2     3   ar
     7     3     4   ar
     8     4     9    1
     9     9    11    1
    10    11    12   ar
    11    12    13   ar
    12    13    14   ar
    13    14    15   ar
    14    15    16   ar
    15    16    17   ar
    16    17    18    1
    17    17    19   ar
    18    19    20   ar
    19    20    21   ar
    20     4     5   ar
    21     5     6   ar
    22     6     7    1
    23     6     1   ar
    24    21    11   ar
    25    21    15   ar
    26    23    24    1
    27     9    10    1
    28     7     8    1
@<TRIPOS>MOLECULE
*****
 26 28 0 0 0
SMALL
GASTEIGER

@<TRIPOS>ATOM
      1 C          -4.1555  -19.6606   20.4653 C.ar    1  UNL1        0.0274
      2 C          -5.1250  -20.7413   20.0882 C.ar    1  UNL1        0.0013
      3 C          -6.4480  -20.8397   20.7881 C.ar    1  UNL1        0.0145
      4 C          -6.8017  -19.8574   21.8651 C.ar    1  UNL1        0.0513
      5 C          -5.8322  -18.7766   22.2422 C.ar    1  UNL1        0.0509
      6 C          -4.5091  -18.6782   21.5423 C.ar    1  UNL1        0.1322
      7 O          -3.5397  -17.5975   21.9194 O.3     1  UNL1       -0.5057
      8 H          -3.7606  -16.9839   22.5922 H       1  UNL1        0.2922
      9 N          -8.1247  -19.9558   22.5649 N.pl3   1  UNL1       -0.3124
     10 H          -8.5288  -20.8378   22.7322 H       1  UNL1        0.1522
     11 C          -8.8322  -18.7101   23.0100 C.ar    1  UNL1        0.0513
     12 C          -8.6452  -18.2004   24.4083 C.ar    1  UNL1        0.0353
     13 C          -9.3527  -16.9549   24.8533 C.ar    1  UNL1        0.1001
     14 N         -10.2471  -16.2191   23.9001 N.ar    1  UNL1       -0.2437
     15 C         -10.4340  -16.7288   22.5018 C.ar    1  UNL1        0.0833
     16 C         -11.3284  -15.9930   21.5486 C.ar    1  UNL1        0.0305
     17 C         -11.5153  -16.5027   20.1503 C.ar    1  UNL1        0.0592
     18 CL        -12.4097  -15.7669   19.1971 Cl      1  UNL1       -0.0822
     19 C         -10.8079  -17.7483   19.7052 C.ar    1  UNL1        0.0115
     20 C          -9.9135  -18.4841   20.6585 C.ar    1  UNL1        0.0036
     21 C          -9.7266  -17.9743   22.0568 C.ar    1  UNL1        0.0312
     22 C          -2.8325  -19.5623   19.7654 C.3     1  UNL1        0.0987
     23 N          -2.4268  -18.2778   19.1055 N.3     1  UNL1       -0.2937
     24 H          -2.7895  -18.3089   18.1527 H       1  UNL1        0.1236
     25 C          -0.2742  -17.2951   20.1782 C.3     1  UNL1        0.0185
     26 C          -0.9755  -17.9122   19.0045 C.3     1  UNL1        0.0689
@<TRIPOS>BOND
     1    25    26    1
     2    26    23    1
     3    23    22    1
     4    22     1    1
     5     1     2   ar
     6     2     3   ar
     7     3     4   ar
     8     4     9    1
     9     9    11    1
    10    11    12   ar
    11    12    13   ar
    12    13    14   ar
    13    14    15   ar
    14    15    16   ar
    15    16    17   ar
    16    17    18    1
    17    17    19   ar
    18    19    20   ar
    19    20    21   ar
    20     4     5   ar
    21     5     6   ar
    22     6     7    1
    23     6     1   ar
    24    21    11   ar
    25    21    15   ar
    26    23    24    1
    27     9    10    1
    28     7     8    1
@<TRIPOS>MOLECULE
*****
 26 28 0 0 0
SMALL
GASTEIGER

@<TRIPOS>ATOM
      1 C         -11.2443  -18.7641   22.4104 C.ar    1  UNL1        0.0274
      2 C         -10.5031  -18.4342   21.1489 C.ar    1  UNL1        0.0013
      3 C          -9.0323  -18.7116   21.0487 C.ar    1  UNL1        0.0145
      4 C          -8.3029  -19.3189   22.2101 C.ar    1  UNL1        0.0513
      5 C          -9.0441  -19.6489   23.4718 C.ar    1  UNL1        0.0509
      6 C         -10.5148  -19.3715   23.5719 C.ar    1  UNL1        0.1322
      7 O         -11.2561  -19.7014   24.8335 O.3     1  UNL1       -0.5057
      8 H         -10.8004  -20.0808   25.5591 H       1  UNL1        0.2922
      9 N          -6.8321  -19.5963   22.1100 N.pl3   1  UNL1       -0.3124
     10 H          -6.5169  -20.4865   21.8317 H       1  UNL1        0.1522
     11 C          -5.8416  -18.5173   22.4337 C.ar    1  UNL1        0.0513
     12 C          -6.2136  -17.4185   23.3846 C.ar    1  UNL1        0.0353
     13 C          -5.2231  -16.3396   23.7083 C.ar    1  UNL1        0.1001
     14 N          -3.8607  -16.3595   23.0811 N.ar    1  UNL1       -0.2437
     15 C          -3.4888  -17.4582   22.1301 C.ar    1  UNL1        0.0833
     16 C          -2.1263  -17.4781   21.5029 C.ar    1  UNL1        0.0305
     17 C          -1.7544  -18.5768   20.5520 C.ar    1  UNL1        0.0592
     18 CL         -0.3920  -18.5967   19.9247 Cl      1  UNL1       -0.0822
     19 C          -2.7449  -19.6559   20.2282 C.ar    1  UNL1        0.0115
     20 C          -4.1073  -19.6360   20.8555 C.ar    1  UNL1        0.0036
     21 C          -4.4792  -18.5372   21.8065 C.ar    1  UNL1        0.0312
     22 C         -12.7150  -18.4867   22.5106 C.3     1  UNL1        0.0987
     23 N         -13.2638  -17.7739   23.7109 N.3     1  UNL1       -0.2937
     24 H         -12.5032  -17.7078   24.3873 H       1  UNL1        0.1236
     25 C         -14.4072  -18.4773   25.9353 C.3     1  UNL1        0.0185
     26 C         -14.4460  -18.3373   24.4423 C.3     1  UNL1        0.0689
@<TRIPOS>BOND
     1    25    26    1
     2    26    23    1
     3    23    22    1
     4    22     1    1
     5     1     2   ar
     6     2     3   ar
     7     3     4   ar
     8     4     9    1
     9     9    11    1
    10    11    12   ar
    11    12    13   ar
    12    13    14   ar
    13    14    15   ar
    14    15    16   ar
    15    16    17   ar
    16    17    18    1
    17    17    19   ar
    18    19    20   ar
    19    20    21   ar
    20     4     5   ar
    21     5     6   ar
    22     6     7    1
    23     6     1   ar
    24    21    11   ar
    25    21    15   ar
    26    23    24    1
    27     9    10    1
    28     7     8    1
