@<TRIPOS>MOLECULE
*****
 37 40 0 0 0
SMALL
GASTEIGER

@<TRIPOS>ATOM
      1 C          -6.1615  -19.0966   21.8754 C.ar    1  UNL1        0.0561
      2 C          -7.3814  -18.4923   22.5050 C.ar    1  UNL1        0.0196
      3 C          -7.2669  -17.2216   23.2939 C.ar    1  UNL1        0.0768
      4 N          -5.9324  -16.5554   23.4532 N.ar    1  UNL1       -0.2480
      5 C          -4.7124  -17.1597   22.8235 C.ar    1  UNL1        0.0812
      6 C          -3.3780  -16.4935   22.9828 C.ar    1  UNL1        0.0214
      7 C          -2.1581  -17.0979   22.3531 C.ar    1  UNL1        0.0312
      8 C          -2.2726  -18.3685   21.5642 C.ar    1  UNL1        0.1402
      9 F          -1.0526  -18.9729   20.9345 F       1  UNL1       -0.2042
     10 C          -3.6070  -19.0348   21.4050 C.ar    1  UNL1        0.0313
     11 C          -4.8269  -18.4304   22.0346 C.ar    1  UNL1        0.0243
     12 C          -8.7159  -19.1585   22.3458 C.ar    1  UNL1        0.0013
     13 C          -9.3262  -19.8999   23.4981 C.ar    1  UNL1        0.0000
     14 C         -10.6606  -20.5661   23.3389 C.ar    1  UNL1        0.0000
     15 C         -11.3847  -20.4910   22.0274 C.ar    1  UNL1        0.0000
     16 C         -10.7744  -19.7496   20.8751 C.ar    1  UNL1        0.0000
     17 C          -9.4399  -19.0834   21.0343 C.ar    1  UNL1        0.0000
     18 C          -6.9293  -21.6058   18.8980 C.3     1  UNL1        0.1109
     19 N          -6.8148  -20.3351   19.6869 N.am    1  UNL1       -0.2992
     20 C          -6.2760  -20.3673   21.0865 C.2     1  UNL1        0.2460
     21 O          -5.8516  -21.6700   21.6970 O.2     1  UNL1       -0.2701
     22 H          -7.0933  -19.4801   19.2862 H       1  UNL1        0.1498
     23 C          -8.4869  -16.6173   23.9236 C.3     1  UNL1        0.1109
     24 C          -8.8653  -16.9832   25.3282 C.3     1  UNL1        0.0278
     25 N          -9.3283  -15.6470   23.1487 N.pl3   1  UNL1       -0.3142
     26 H          -9.0591  -14.7020   23.0868 H       1  UNL1        0.1485
     27 C         -10.5798  -16.1164   22.4682 C.ar    1  UNL1        0.1429
     28 N         -11.5183  -17.0444   23.1812 N.ar    1  UNL1       -0.2084
     29 C         -12.7699  -17.5138   22.5006 C.ar    1  UNL1        0.2012
     30 N         -13.0830  -17.0554   21.1071 N.ar    1  UNL1       -0.2087
     31 C         -12.1446  -16.1276   20.3942 C.ar    1  UNL1        0.1396
     32 N         -12.4577  -15.6692   19.0007 N.pl3   1  UNL1       -0.3420
     33 C         -10.8930  -15.6580   21.0747 C.ar    1  UNL1        0.1308
     34 H         -13.2792  -15.9773   18.5540 H       1  UNL1        0.1437
     35 H         -11.8418  -15.0602   18.5327 H       1  UNL1        0.1437
     36 C          -9.9545  -14.7302   20.3617 C.1     1  UNL1        0.1061
     37 N          -9.0161  -13.8023   19.6488 N.1     1  UNL1       -0.1906
@<TRIPOS>BOND
     1    18    19    1
     2    19    20   am
     3    20    21    2
     4    20     1    1
     5     1     2   ar
     6     2    12    1
     7    12    13   ar
     8    13    14   ar
     9    14    15   ar
    10    15    16   ar
    11    16    17   ar
    12     2     3   ar
    13     3    23    1
    14    23    24    1
    15    23    25    1
    16    25    27    1
    17    27    28   ar
    18    28    29   ar
    19    29    30   ar
    20    30    31   ar
    21    31    32    1
    22    31    33   ar
    23    33    36    1
    24    36    37    3
    25     3     4   ar
    26     4     5   ar
    27     5     6   ar
    28     6     7   ar
    29     7     8   ar
    30     8     9    1
    31     8    10   ar
    32    10    11   ar
    33    11     1   ar
    34    17    12   ar
    35    33    27   ar
    36    11     5   ar
    37    19    22    1
    38    25    26    1
    39    32    34    1
    40    32    35    1
@<TRIPOS>MOLECULE
*****
 37 40 0 0 0
SMALL
GASTEIGER

@<TRIPOS>ATOM
      1 C           4.3933   -1.4576   23.0598 C.ar    1  UNL1        0.0561
      2 C           4.1995   -1.8185   21.6169 C.ar    1  UNL1        0.0196
      3 C           4.8171   -3.0701   21.0673 C.ar    1  UNL1        0.0768
      4 N           5.6286   -3.9608   21.9606 N.ar    1  UNL1       -0.2480
      5 C           5.8225   -3.5999   23.4036 C.ar    1  UNL1        0.0812
      6 C           6.6340   -4.4906   24.2970 C.ar    1  UNL1        0.0214
      7 C           6.8278   -4.1297   25.7399 C.ar    1  UNL1        0.0312
      8 C           6.2102   -2.8781   26.2895 C.ar    1  UNL1        0.1402
      9 F           6.4041   -2.5172   27.7325 F       1  UNL1       -0.2042
     10 C           5.3987   -1.9874   25.3962 C.ar    1  UNL1        0.0313
     11 C           5.2049   -2.3483   23.9532 C.ar    1  UNL1        0.0243
     12 C           3.3879   -0.9278   20.7235 C.ar    1  UNL1        0.0013
     13 C           4.0601    0.1572   19.9354 C.ar    1  UNL1        0.0000
     14 C           3.2487    1.0479   19.0421 C.ar    1  UNL1        0.0000
     15 C           1.7651    0.8536   18.9367 C.ar    1  UNL1        0.0000
     16 C           1.0929   -0.2314   19.7247 C.ar    1  UNL1        0.0000
     17 C           1.9043   -1.1221   20.6181 C.ar    1  UNL1        0.0000
     18 C           1.8324    0.9833   24.8581 C.3     1  UNL1        0.1109
     19 N           2.4500   -0.2683   24.3085 N.am    1  UNL1       -0.2992
     20 C           3.7757   -0.2060   23.6094 C.2     1  UNL1        0.2460
     21 O           4.4838    1.1079   23.4600 O.2     1  UNL1       -0.2701
     22 H           1.9852   -1.1306   24.4065 H       1  UNL1        0.1498
     23 C           4.6231   -3.4309   19.6242 C.3     1  UNL1        0.1109
     24 C           3.2826   -3.9005   19.1422 C.3     1  UNL1        0.0278
     25 N           5.7698   -3.3223   18.6634 N.pl3   1  UNL1       -0.3142
     26 H           6.1604   -4.1354   18.2691 H       1  UNL1        0.1485
     27 C           6.3213   -1.9747   18.3032 C.ar    1  UNL1        0.1429
     28 N           5.6439   -1.1429   17.2546 N.ar    1  UNL1       -0.2084
     29 C           6.1954    0.2047   16.8944 C.ar    1  UNL1        0.2012
     30 N           7.4242    0.7206   17.5827 N.ar    1  UNL1       -0.2087
     31 C           8.1015   -0.1111   18.6313 C.ar    1  UNL1        0.1396
     32 N           9.3304    0.4049   19.3196 N.pl3   1  UNL1       -0.3420
     33 C           7.5501   -1.4587   18.9915 C.ar    1  UNL1        0.1308
     34 H           9.6923    1.2894   19.0832 H       1  UNL1        0.1437
     35 H           9.7749   -0.1410   20.0078 H       1  UNL1        0.1437
     36 C           8.2274   -2.2904   20.0400 C.1     1  UNL1        0.1061
     37 N           8.9048   -3.1221   21.0886 N.1     1  UNL1       -0.1906
@<TRIPOS>BOND
     1    18    19    1
     2    19    20   am
     3    20    21    2
     4    20     1    1
     5     1     2   ar
     6     2    12    1
     7    12    13   ar
     8    13    14   ar
     9    14    15   ar
    10    15    16   ar
    11    16    17   ar
    12     2     3   ar
    13     3    23    1
    14    23    24    1
    15    23    25    1
    16    25    27    1
    17    27    28   ar
    18    28    29   ar
    19    29    30   ar
    20    30    31   ar
    21    31    32    1
    22    31    33   ar
    23    33    36    1
    24    36    37    3
    25     3     4   ar
    26     4     5   ar
    27     5     6   ar
    28     6     7   ar
    29     7     8   ar
    30     8     9    1
    31     8    10   ar
    32    10    11   ar
    33    11     1   ar
    34    17    12   ar
    35    33    27   ar
    36    11     5   ar
    37    19    22    1
    38    25    26    1
    39    32    34    1
    40    32    35    1
@<TRIPOS>MOLECULE
*****
 37 40 0 0 0
SMALL
GASTEIGER

@<TRIPOS>ATOM
      1 C           2.3984   -0.1420   22.3910 C.ar    1  UNL1        0.0561
      2 C           2.4787    0.2537   23.8356 C.ar    1  UNL1        0.0196
      3 C           3.3417   -0.5286   24.7807 C.ar    1  UNL1        0.0768
      4 N           4.1244   -1.7067   24.2812 N.ar    1  UNL1       -0.2480
      5 C           4.0440   -2.1025   22.8365 C.ar    1  UNL1        0.0812
      6 C           4.8267   -3.2806   22.3370 C.ar    1  UNL1        0.0214
      7 C           4.7463   -3.6763   20.8924 C.ar    1  UNL1        0.0312
      8 C           3.8834   -2.8940   19.9473 C.ar    1  UNL1        0.1402
      9 F           3.8030   -3.2898   18.5027 F       1  UNL1       -0.2042
     10 C           3.1007   -1.7159   20.4468 C.ar    1  UNL1        0.0313
     11 C           3.1811   -1.3201   21.8914 C.ar    1  UNL1        0.0243
     12 C           1.6961    1.4319   24.3351 C.ar    1  UNL1        0.0013
     13 C           0.3223    1.2331   24.9036 C.ar    1  UNL1        0.0000
     14 C          -0.4604    2.4112   25.4031 C.ar    1  UNL1        0.0000
     15 C           0.1308    3.7880   25.3343 C.ar    1  UNL1        0.0000
     16 C           1.5046    3.9868   24.7658 C.ar    1  UNL1        0.0000
     17 C           2.2872    2.8087   24.2663 C.ar    1  UNL1        0.0000
     18 C           1.2325    2.6183   19.7888 C.3     1  UNL1        0.1109
     19 N           2.0955    1.8360   20.7339 N.am    1  UNL1       -0.2992
     20 C           1.5354    0.6404   21.4459 C.2     1  UNL1        0.2460
     21 O           0.1125    0.2271   21.2128 O.2     1  UNL1       -0.2701
     22 H           3.0294    2.1072   20.8869 H       1  UNL1        0.1498
     23 C           3.4220   -0.1328   26.2253 C.3     1  UNL1        0.1109
     24 C           4.2535    1.0466   26.6347 C.3     1  UNL1        0.0278
     25 N           2.6709   -0.9164   27.2605 N.pl3   1  UNL1       -0.3142
     26 H           2.5597   -1.8891   27.1569 H       1  UNL1        0.1485
     27 C           2.0891   -0.2180   28.4537 C.ar    1  UNL1        0.1429
     28 N           0.7494    0.4493   28.3528 N.ar    1  UNL1       -0.2084
     29 C           0.1676    1.1477   29.5459 C.ar    1  UNL1        0.2012
     30 N           0.9254    1.1789   30.8401 N.ar    1  UNL1       -0.2087
     31 C           2.2650    0.5116   30.9410 C.ar    1  UNL1        0.1396
     32 N           3.0228    0.5428   32.2352 N.pl3   1  UNL1       -0.3420
     33 C           2.8469   -0.1868   29.7478 C.ar    1  UNL1        0.1308
     34 H           2.6409    1.0012   33.0183 H       1  UNL1        0.1437
     35 H           3.9020    0.1049   32.3014 H       1  UNL1        0.1437
     36 C           4.1865   -0.8541   29.8488 C.1     1  UNL1        0.1061
     37 N           5.5261   -1.5213   29.9498 N.1     1  UNL1       -0.1906
@<TRIPOS>BOND
     1    18    19    1
     2    19    20   am
     3    20    21    2
     4    20     1    1
     5     1     2   ar
     6     2    12    1
     7    12    13   ar
     8    13    14   ar
     9    14    15   ar
    10    15    16   ar
    11    16    17   ar
    12     2     3   ar
    13     3    23    1
    14    23    24    1
    15    23    25    1
    16    25    27    1
    17    27    28   ar
    18    28    29   ar
    19    29    30   ar
    20    30    31   ar
    21    31    32    1
    22    31    33   ar
    23    33    36    1
    24    36    37    3
    25     3     4   ar
    26     4     5   ar
    27     5     6   ar
    28     6     7   ar
    29     7     8   ar
    30     8     9    1
    31     8    10   ar
    32    10    11   ar
    33    11     1   ar
    34    17    12   ar
    35    33    27   ar
    36    11     5   ar
    37    19    22    1
    38    25    26    1
    39    32    34    1
    40    32    35    1
@<TRIPOS>MOLECULE
*****
 37 40 0 0 0
SMALL
GASTEIGER

@<TRIPOS>ATOM
      1 C           2.0173    0.2690   22.0534 C.ar    1  UNL1        0.0561
      2 C           1.9675    0.8258   23.4453 C.ar    1  UNL1        0.0196
      3 C           2.7353    0.1587   24.5478 C.ar    1  UNL1        0.0768
      4 N           3.5529   -1.0652   24.2584 N.ar    1  UNL1       -0.2480
      5 C           3.6026   -1.6220   22.8664 C.ar    1  UNL1        0.0812
      6 C           4.4201   -2.8458   22.5770 C.ar    1  UNL1        0.0214
      7 C           4.4699   -3.4026   21.1850 C.ar    1  UNL1        0.0312
      8 C           3.7021   -2.7355   20.0825 C.ar    1  UNL1        0.1402
      9 F           3.7518   -3.2923   18.6906 F       1  UNL1       -0.2042
     10 C           2.8845   -1.5117   20.3720 C.ar    1  UNL1        0.0313
     11 C           2.8348   -0.9549   21.7639 C.ar    1  UNL1        0.0243
     12 C           1.1500    2.0497   23.7348 C.ar    1  UNL1        0.0013
     13 C          -0.2765    1.9113   24.1774 C.ar    1  UNL1        0.0000
     14 C          -1.0941    3.1351   24.4669 C.ar    1  UNL1        0.0000
     15 C          -0.4851    4.4973   24.3138 C.ar    1  UNL1        0.0000
     16 C           0.9414    4.6357   23.8712 C.ar    1  UNL1        0.0000
     17 C           1.7590    3.4119   23.5817 C.ar    1  UNL1        0.0000
     18 C           1.1364    2.6637   19.0137 C.3     1  UNL1        0.1109
     19 N           1.9042    1.9967   20.1162 N.am    1  UNL1       -0.2992
     20 C           1.2495    0.9361   20.9509 C.2     1  UNL1        0.2460
     21 O          -0.1730    0.5426   20.6830 O.2     1  UNL1       -0.2701
     22 H           2.8378    2.2549   20.2920 H       1  UNL1        0.1498
     23 C           2.6856    0.7155   25.9398 C.3     1  UNL1        0.1109
     24 C           3.7685    1.6366   26.4182 C.3     1  UNL1        0.0278
     25 N           1.5530    0.3513   26.8532 N.pl3   1  UNL1       -0.3142
     26 H           0.6753    0.1109   26.4775 H       1  UNL1        0.1485
     27 C           1.7576    0.3532   28.3392 C.ar    1  UNL1        0.1429
     28 N           2.5012   -0.7722   28.9954 N.ar    1  UNL1       -0.2084
     29 C           2.7058   -0.7703   30.4813 C.ar    1  UNL1        0.2012
     30 N           2.1668    0.3570   31.3112 N.ar    1  UNL1       -0.2087
     31 C           1.4233    1.4824   30.6551 C.ar    1  UNL1        0.1396
     32 N           0.8843    2.6097   31.4849 N.pl3   1  UNL1       -0.3420
     33 C           1.2186    1.4805   29.1690 C.ar    1  UNL1        0.1308
     34 H           1.0186    2.6110   32.4602 H       1  UNL1        0.1437
     35 H           0.3962    3.3484   31.0543 H       1  UNL1        0.1437
     36 C           0.4750    2.6059   28.5129 C.1     1  UNL1        0.1061
     37 N          -0.2686    3.7313   27.8568 N.1     1  UNL1       -0.1906
@<TRIPOS>BOND
     1    18    19    1
     2    19    20   am
     3    20    21    2
     4    20     1    1
     5     1     2   ar
     6     2    12    1
     7    12    13   ar
     8    13    14   ar
     9    14    15   ar
    10    15    16   ar
    11    16    17   ar
    12     2     3   ar
    13     3    23    1
    14    23    24    1
    15    23    25    1
    16    25    27    1
    17    27    28   ar
    18    28    29   ar
    19    29    30   ar
    20    30    31   ar
    21    31    32    1
    22    31    33   ar
    23    33    36    1
    24    36    37    3
    25     3     4   ar
    26     4     5   ar
    27     5     6   ar
    28     6     7   ar
    29     7     8   ar
    30     8     9    1
    31     8    10   ar
    32    10    11   ar
    33    11     1   ar
    34    17    12   ar
    35    33    27   ar
    36    11     5   ar
    37    19    22    1
    38    25    26    1
    39    32    34    1
    40    32    35    1
@<TRIPOS>MOLECULE
*****
 37 40 0 0 0
SMALL
GASTEIGER

@<TRIPOS>ATOM
      1 C           3.7605   -0.7270   23.9308 C.ar    1  UNL1        0.0561
      2 C           4.7791   -1.3614   24.8308 C.ar    1  UNL1        0.0196
      3 C           5.5905   -2.5246   24.3426 C.ar    1  UNL1        0.0768
      4 N           5.3834   -3.0536   22.9544 N.ar    1  UNL1       -0.2480
      5 C           4.3648   -2.4192   22.0542 C.ar    1  UNL1        0.0812
      6 C           4.1577   -2.9481   20.6660 C.ar    1  UNL1        0.0214
      7 C           3.1392   -2.3137   19.7659 C.ar    1  UNL1        0.0312
      8 C           2.3278   -1.1505   20.2542 C.ar    1  UNL1        0.1402
      9 F           1.3092   -0.5161   19.3540 F       1  UNL1       -0.2042
     10 C           2.5349   -0.6215   21.6424 C.ar    1  UNL1        0.0313
     11 C           3.5534   -1.2559   22.5424 C.ar    1  UNL1        0.0243
     12 C           4.9862   -0.8324   26.2192 C.ar    1  UNL1        0.0013
     13 C           4.2326   -1.4307   27.3699 C.ar    1  UNL1        0.0000
     14 C           4.4397   -0.9018   28.7581 C.ar    1  UNL1        0.0000
     15 C           5.4004    0.2253   28.9957 C.ar    1  UNL1        0.0000
     16 C           6.1541    0.8235   27.8451 C.ar    1  UNL1        0.0000
     17 C           5.9470    0.2947   26.4568 C.ar    1  UNL1        0.0000
     18 C           0.8110    1.3645   25.5666 C.3     1  UNL1        0.1109
     19 N           1.6224    0.2012   25.0783 N.am    1  UNL1       -0.2992
     20 C           2.9491    0.4363   24.4190 C.2     1  UNL1        0.2460
     21 O           3.4643    1.8346   24.2479 O.2     1  UNL1       -0.2701
     22 H           1.2842   -0.7165   25.1907 H       1  UNL1        0.1498
     23 C           6.6091   -3.1590   25.2428 C.3     1  UNL1        0.1109
     24 C           7.9752   -2.5534   25.3735 C.3     1  UNL1        0.0278
     25 N           6.2616   -4.3989   26.0121 N.pl3   1  UNL1       -0.3142
     26 H           5.4668   -4.4112   26.5930 H       1  UNL1        0.1485
     27 C           7.1249   -5.6200   25.8963 C.ar    1  UNL1        0.1429
     28 N           7.5493   -6.1131   24.5447 N.ar    1  UNL1       -0.2084
     29 C           8.4127   -7.3342   24.4289 C.ar    1  UNL1        0.2012
     30 N           8.8517   -8.0622   25.6647 N.ar    1  UNL1       -0.2087
     31 C           8.4274   -7.5692   27.0163 C.ar    1  UNL1        0.1396
     32 N           8.8665   -8.2972   28.2521 N.pl3   1  UNL1       -0.3420
     33 C           7.5640   -6.3480   27.1321 C.ar    1  UNL1        0.1308
     34 H           9.4331   -9.0987   28.1761 H       1  UNL1        0.1437
     35 H           8.5880   -7.9736   29.1392 H       1  UNL1        0.1437
     36 C           7.1397   -5.8549   28.4837 C.1     1  UNL1        0.1061
     37 N           6.7153   -5.3619   29.8352 N.1     1  UNL1       -0.1906
@<TRIPOS>BOND
     1    18    19    1
     2    19    20   am
     3    20    21    2
     4    20     1    1
     5     1     2   ar
     6     2    12    1
     7    12    13   ar
     8    13    14   ar
     9    14    15   ar
    10    15    16   ar
    11    16    17   ar
    12     2     3   ar
    13     3    23    1
    14    23    24    1
    15    23    25    1
    16    25    27    1
    17    27    28   ar
    18    28    29   ar
    19    29    30   ar
    20    30    31   ar
    21    31    32    1
    22    31    33   ar
    23    33    36    1
    24    36    37    3
    25     3     4   ar
    26     4     5   ar
    27     5     6   ar
    28     6     7   ar
    29     7     8   ar
    30     8     9    1
    31     8    10   ar
    32    10    11   ar
    33    11     1   ar
    34    17    12   ar
    35    33    27   ar
    36    11     5   ar
    37    19    22    1
    38    25    26    1
    39    32    34    1
    40    32    35    1
@<TRIPOS>MOLECULE
*****
 37 40 0 0 0
SMALL
GASTEIGER

@<TRIPOS>ATOM
      1 C           1.2324    1.6231   23.6203 C.ar    1  UNL1        0.0561
      2 C           0.5298    2.1952   22.4249 C.ar    1  UNL1        0.0196
      3 C          -0.7513    2.9554   22.6005 C.ar    1  UNL1        0.0768
      4 N          -1.3299    3.1435   23.9716 N.ar    1  UNL1       -0.2480
      5 C          -0.6273    2.5714   25.1671 C.ar    1  UNL1        0.0812
      6 C          -1.2058    2.7595   26.5382 C.ar    1  UNL1        0.0214
      7 C          -0.5032    2.1874   27.7336 C.ar    1  UNL1        0.0312
      8 C           0.7779    1.4272   27.5579 C.ar    1  UNL1        0.1402
      9 F           1.4805    0.8551   28.7534 F       1  UNL1       -0.2042
     10 C           1.3564    1.2391   26.1869 C.ar    1  UNL1        0.0313
     11 C           0.6538    1.8112   24.9915 C.ar    1  UNL1        0.0243
     12 C           1.1083    2.0071   21.0537 C.ar    1  UNL1        0.0013
     13 C           0.6689    0.8499   20.2066 C.ar    1  UNL1        0.0000
     14 C           1.2473    0.6618   18.8355 C.ar    1  UNL1        0.0000
     15 C           2.2653    1.6309   18.3115 C.ar    1  UNL1        0.0000
     16 C           2.7047    2.7882   19.1587 C.ar    1  UNL1        0.0000
     17 C           2.1262    2.9763   20.5298 C.ar    1  UNL1        0.0000
     18 C           3.7604   -1.3724   22.9989 C.3     1  UNL1        0.1109
     19 N           2.4793   -0.6122   23.1746 N.am    1  UNL1       -0.2992
     20 C           2.5135    0.8630   23.4446 C.2     1  UNL1        0.2460
     21 O           3.8288    1.5778   23.5390 O.2     1  UNL1       -0.2701
     22 H           1.6160   -1.0814   23.1126 H       1  UNL1        0.1498
     23 C          -1.4539    3.5275   21.4050 C.3     1  UNL1        0.1109
     24 C          -1.1187    4.9097   20.9285 C.3     1  UNL1        0.0278
     25 N          -2.4916    2.7174   20.6862 N.pl3   1  UNL1       -0.3142
     26 H          -2.3777    1.7441   20.5914 H       1  UNL1        0.1485
     27 C          -3.7030    3.3902   20.1117 C.ar    1  UNL1        0.1429
     28 N          -3.7360    3.7625   18.6590 N.ar    1  UNL1       -0.2084
     29 C          -4.9473    4.4353   18.0846 C.ar    1  UNL1        0.2012
     30 N          -6.1256    4.7358   18.9628 N.ar    1  UNL1       -0.2087
     31 C          -6.0926    4.3635   20.4155 C.ar    1  UNL1        0.1396
     32 N          -7.2709    4.6641   21.2937 N.pl3   1  UNL1       -0.3420
     33 C          -4.8813    3.6907   20.9900 C.ar    1  UNL1        0.1308
     34 H          -8.0660    5.1057   20.9167 H       1  UNL1        0.1437
     35 H          -7.2492    4.4197   22.2472 H       1  UNL1        0.1437
     36 C          -4.8482    3.3185   22.4426 C.1     1  UNL1        0.1061
     37 N          -4.8152    2.9462   23.8953 N.1     1  UNL1       -0.1906
@<TRIPOS>BOND
     1    18    19    1
     2    19    20   am
     3    20    21    2
     4    20     1    1
     5     1     2   ar
     6     2    12    1
     7    12    13   ar
     8    13    14   ar
     9    14    15   ar
    10    15    16   ar
    11    16    17   ar
    12     2     3   ar
    13     3    23    1
    14    23    24    1
    15    23    25    1
    16    25    27    1
    17    27    28   ar
    18    28    29   ar
    19    29    30   ar
    20    30    31   ar
    21    31    32    1
    22    31    33   ar
    23    33    36    1
    24    36    37    3
    25     3     4   ar
    26     4     5   ar
    27     5     6   ar
    28     6     7   ar
    29     7     8   ar
    30     8     9    1
    31     8    10   ar
    32    10    11   ar
    33    11     1   ar
    34    17    12   ar
    35    33    27   ar
    36    11     5   ar
    37    19    22    1
    38    25    26    1
    39    32    34    1
    40    32    35    1
@<TRIPOS>MOLECULE
*****
 37 40 0 0 0
SMALL
GASTEIGER

@<TRIPOS>ATOM
      1 C           4.8062   -2.2623   22.0041 C.ar    1  UNL1        0.0561
      2 C           3.9280   -1.1098   22.3920 C.ar    1  UNL1        0.0196
      3 C           3.8404   -0.6835   23.8274 C.ar    1  UNL1        0.0768
      4 N           4.6310   -1.4097   24.8751 N.ar    1  UNL1       -0.2480
      5 C           5.5092   -2.5623   24.4872 C.ar    1  UNL1        0.0812
      6 C           6.2998   -3.2885   25.5348 C.ar    1  UNL1        0.0214
      7 C           7.1780   -4.4410   25.1469 C.ar    1  UNL1        0.0312
      8 C           7.2656   -4.8673   23.7115 C.ar    1  UNL1        0.1402
      9 F           8.1438   -6.0199   23.3236 F       1  UNL1       -0.2042
     10 C           6.4750   -4.1411   22.6638 C.ar    1  UNL1        0.0313
     11 C           5.5968   -2.9886   23.0517 C.ar    1  UNL1        0.0243
     12 C           3.1374   -0.3835   21.3443 C.ar    1  UNL1        0.0013
     13 C           1.7885   -0.8952   20.9337 C.ar    1  UNL1        0.0000
     14 C           0.9979   -0.1690   19.8861 C.ar    1  UNL1        0.0000
     15 C           1.5561    1.0690   19.2492 C.ar    1  UNL1        0.0000
     16 C           2.9050    1.5807   19.6598 C.ar    1  UNL1        0.0000
     17 C           3.6957    0.8545   20.7074 C.ar    1  UNL1        0.0000
     18 C           6.0250   -2.5180   18.2359 C.3     1  UNL1        0.1109
     19 N           5.9374   -2.0918   19.6714 N.am    1  UNL1       -0.2992
     20 C           4.8938   -2.6885   20.5686 C.2     1  UNL1        0.2460
     21 O           3.9380   -3.7115   20.0303 O.2     1  UNL1       -0.2701
     22 H           6.5647   -1.4203   20.0247 H       1  UNL1        0.1498
     23 C           2.9622    0.4691   24.2153 C.3     1  UNL1        0.1109
     24 C           3.5443    1.8455   24.3436 C.3     1  UNL1        0.0278
     25 N           1.5019    0.2451   24.4748 N.pl3   1  UNL1       -0.3142
     26 H           1.1918   -0.6197   24.8285 H       1  UNL1        0.1485
     27 C           0.5142    1.3389   24.1955 C.ar    1  UNL1        0.1429
     28 N           0.3986    1.9101   22.8133 N.ar    1  UNL1       -0.2084
     29 C          -0.5891    3.0039   22.5340 C.ar    1  UNL1        0.2012
     30 N          -1.4613    3.5265   23.6368 N.ar    1  UNL1       -0.2087
     31 C          -1.3457    2.9553   25.0190 C.ar    1  UNL1        0.1396
     32 N          -2.2179    3.4779   26.1218 N.pl3   1  UNL1       -0.3420
     33 C          -0.3580    1.8615   25.2984 C.ar    1  UNL1        0.1308
     34 H          -2.8661    4.1958   25.9385 H       1  UNL1        0.1437
     35 H          -2.1420    3.1030   27.0290 H       1  UNL1        0.1437
     36 C          -0.2424    1.2903   26.6805 C.1     1  UNL1        0.1061
     37 N          -0.1268    0.7192   28.0626 N.1     1  UNL1       -0.1906
@<TRIPOS>BOND
     1    18    19    1
     2    19    20   am
     3    20    21    2
     4    20     1    1
     5     1     2   ar
     6     2    12    1
     7    12    13   ar
     8    13    14   ar
     9    14    15   ar
    10    15    16   ar
    11    16    17   ar
    12     2     3   ar
    13     3    23    1
    14    23    24    1
    15    23    25    1
    16    25    27    1
    17    27    28   ar
    18    28    29   ar
    19    29    30   ar
    20    30    31   ar
    21    31    32    1
    22    31    33   ar
    23    33    36    1
    24    36    37    3
    25     3     4   ar
    26     4     5   ar
    27     5     6   ar
    28     6     7   ar
    29     7     8   ar
    30     8     9    1
    31     8    10   ar
    32    10    11   ar
    33    11     1   ar
    34    17    12   ar
    35    33    27   ar
    36    11     5   ar
    37    19    22    1
    38    25    26    1
    39    32    34    1
    40    32    35    1
@<TRIPOS>MOLECULE
*****
 37 40 0 0 0
SMALL
GASTEIGER

@<TRIPOS>ATOM
      1 C           1.5688    0.7950   22.7176 C.ar    1  UNL1        0.0561
      2 C           2.8320   -0.0121   22.6641 C.ar    1  UNL1        0.0196
      3 C           3.5212   -0.4117   23.9350 C.ar    1  UNL1        0.0768
      4 N           2.9472   -0.0041   25.2595 N.ar    1  UNL1       -0.2480
      5 C           1.6840    0.8031   25.3132 C.ar    1  UNL1        0.0812
      6 C           1.1100    1.2106   26.6377 C.ar    1  UNL1        0.0214
      7 C          -0.1531    2.0178   26.6912 C.ar    1  UNL1        0.0312
      8 C          -0.8423    2.4173   25.4203 C.ar    1  UNL1        0.1402
      9 F          -2.1056    3.2245   25.4739 F       1  UNL1       -0.2042
     10 C          -0.2684    2.0098   24.0957 C.ar    1  UNL1        0.0313
     11 C           0.9948    1.2026   24.0422 C.ar    1  UNL1        0.0243
     12 C           3.4060   -0.4197   21.3395 C.ar    1  UNL1        0.0013
     13 C           4.4713    0.4165   20.6945 C.ar    1  UNL1        0.0000
     14 C           5.0453    0.0089   19.3700 C.ar    1  UNL1        0.0000
     15 C           4.5541   -1.2348   18.6905 C.ar    1  UNL1        0.0000
     16 C           3.4888   -2.0710   19.3355 C.ar    1  UNL1        0.0000
     17 C           2.9148   -1.6634   20.6600 C.ar    1  UNL1        0.0000
     18 C           0.5134    2.9084   19.5286 C.3     1  UNL1        0.1109
     19 N           1.2026    2.5088   20.7995 N.am    1  UNL1       -0.2992
     20 C           0.8796    1.1946   21.4466 C.2     1  UNL1        0.2460
     21 O          -0.1324    0.2800   20.8228 O.2     1  UNL1       -0.2701
     22 H           1.8669    3.1091   21.2090 H       1  UNL1        0.1498
     23 C           4.7844   -1.2188   23.8814 C.3     1  UNL1        0.1109
     24 C           6.1166   -0.5309   23.9286 C.3     1  UNL1        0.0278
     25 N           4.7155   -2.7138   23.7806 N.pl3   1  UNL1       -0.3142
     26 H           3.9642   -3.2007   24.1900 H       1  UNL1        0.1485
     27 C           5.7913   -3.4670   23.0558 C.ar    1  UNL1        0.1429
     28 N           5.8531   -3.4307   21.5575 N.ar    1  UNL1       -0.2084
     29 C           6.9290   -4.1838   20.8328 C.ar    1  UNL1        0.2012
     30 N           7.9430   -4.9734   21.6063 N.ar    1  UNL1       -0.2087
     31 C           7.8813   -5.0097   23.1046 C.ar    1  UNL1        0.1396
     32 N           8.8953   -5.7992   23.8781 N.pl3   1  UNL1       -0.3420
     33 C           6.8054   -4.2565   23.8294 C.ar    1  UNL1        0.1308
     34 H           9.6014   -6.2936   23.4024 H       1  UNL1        0.1437
     35 H           8.8547   -5.8231   24.8615 H       1  UNL1        0.1437
     36 C           6.7436   -4.2929   25.3276 C.1     1  UNL1        0.1061
     37 N           6.6818   -4.3292   26.8259 N.1     1  UNL1       -0.1906
@<TRIPOS>BOND
     1    18    19    1
     2    19    20   am
     3    20    21    2
     4    20     1    1
     5     1     2   ar
     6     2    12    1
     7    12    13   ar
     8    13    14   ar
     9    14    15   ar
    10    15    16   ar
    11    16    17   ar
    12     2     3   ar
    13     3    23    1
    14    23    24    1
    15    23    25    1
    16    25    27    1
    17    27    28   ar
    18    28    29   ar
    19    29    30   ar
    20    30    31   ar
    21    31    32    1
    22    31    33   ar
    23    33    36    1
    24    36    37    3
    25     3     4   ar
    26     4     5   ar
    27     5     6   ar
    28     6     7   ar
    29     7     8   ar
    30     8     9    1
    31     8    10   ar
    32    10    11   ar
    33    11     1   ar
    34    17    12   ar
    35    33    27   ar
    36    11     5   ar
    37    19    22    1
    38    25    26    1
    39    32    34    1
    40    32    35    1
@<TRIPOS>MOLECULE
*****
 37 40 0 0 0
SMALL
GASTEIGER

@<TRIPOS>ATOM
      1 C           3.2220    1.2164   32.3938 C.ar    1  UNL1        0.0561
      2 C           4.1268    0.0740   32.7490 C.ar    1  UNL1        0.0196
      3 C           4.1964   -1.1321   31.8599 C.ar    1  UNL1        0.0768
      4 N           3.3611   -1.1958   30.6157 N.ar    1  UNL1       -0.2480
      5 C           2.4563   -0.0534   30.2604 C.ar    1  UNL1        0.0812
      6 C           1.6210   -0.1171   29.0161 C.ar    1  UNL1        0.0214
      7 C           0.7162    1.0253   28.6609 C.ar    1  UNL1        0.0312
      8 C           0.6467    2.2314   29.5500 C.ar    1  UNL1        0.1402
      9 F          -0.2582    3.3738   29.1947 F       1  UNL1       -0.2042
     10 C           1.4819    2.2951   30.7942 C.ar    1  UNL1        0.0313
     11 C           2.3867    1.1527   31.1494 C.ar    1  UNL1        0.0243
     12 C           4.9622    0.1377   33.9933 C.ar    1  UNL1        0.0013
     13 C           6.3827    0.6137   33.9194 C.ar    1  UNL1        0.0000
     14 C           7.2180    0.6774   35.1637 C.ar    1  UNL1        0.0000
     15 C           6.6328    0.2651   36.4818 C.ar    1  UNL1        0.0000
     16 C           5.2122   -0.2109   36.5556 C.ar    1  UNL1        0.0000
     17 C           4.3769   -0.2746   35.3114 C.ar    1  UNL1        0.0000
     18 C           2.0554    3.6983   35.2624 C.3     1  UNL1        0.1109
     19 N           2.1249    2.4922   34.3734 N.am    1  UNL1       -0.2992
     20 C           3.1525    2.4226   33.2828 C.2     1  UNL1        0.2460
     21 O           4.1105    3.5590   33.0813 O.2     1  UNL1       -0.2701
     22 H           1.4961    1.7463   34.5056 H       1  UNL1        0.1498
     23 C           5.1012   -2.2746   32.2152 C.3     1  UNL1        0.1109
     24 C           4.6770   -3.2732   33.2509 C.3     1  UNL1        0.0278
     25 N           6.4302   -2.4183   31.5348 N.pl3   1  UNL1       -0.3142
     26 H           7.2584   -2.2030   32.0216 H       1  UNL1        0.1485
     27 C           6.4974   -2.8902   30.1125 C.ar    1  UNL1        0.1429
     28 N           6.3642   -1.9057   28.9886 N.ar    1  UNL1       -0.2084
     29 C           6.4314   -2.3776   27.5664 C.ar    1  UNL1        0.2012
     30 N           6.6319   -3.8338   27.2680 N.ar    1  UNL1       -0.2087
     31 C           6.7651   -4.8183   28.3918 C.ar    1  UNL1        0.1396
     32 N           6.9656   -6.2746   28.0935 N.pl3   1  UNL1       -0.3420
     33 C           6.6979   -4.3464   29.8142 C.ar    1  UNL1        0.1308
     34 H           7.0097   -6.5843   27.1600 H       1  UNL1        0.1437
     35 H           7.0531   -6.9207   28.8311 H       1  UNL1        0.1437
     36 C           6.8312   -5.3309   30.9380 C.1     1  UNL1        0.1061
     37 N           6.9644   -6.3153   32.0619 N.1     1  UNL1       -0.1906
@<TRIPOS>BOND
     1    18    19    1
     2    19    20   am
     3    20    21    2
     4    20     1    1
     5     1     2   ar
     6     2    12    1
     7    12    13   ar
     8    13    14   ar
     9    14    15   ar
    10    15    16   ar
    11    16    17   ar
    12     2     3   ar
    13     3    23    1
    14    23    24    1
    15    23    25    1
    16    25    27    1
    17    27    28   ar
    18    28    29   ar
    19    29    30   ar
    20    30    31   ar
    21    31    32    1
    22    31    33   ar
    23    33    36    1
    24    36    37    3
    25     3     4   ar
    26     4     5   ar
    27     5     6   ar
    28     6     7   ar
    29     7     8   ar
    30     8     9    1
    31     8    10   ar
    32    10    11   ar
    33    11     1   ar
    34    17    12   ar
    35    33    27   ar
    36    11     5   ar
    37    19    22    1
    38    25    26    1
    39    32    34    1
    40    32    35    1
