@<TRIPOS>MOLECULE
*****
 40 44 0 0 0
SMALL
GASTEIGER

@<TRIPOS>ATOM
      1 C           3.3464   -0.5268   24.6349 C.ar    1  UNL1        0.0782
      2 N           4.1536   -1.7132   24.1982 N.ar    1  UNL1       -0.2480
      3 C           4.1020   -2.1711   22.7707 C.ar    1  UNL1        0.0812
      4 C           4.9093   -3.3575   22.3340 C.ar    1  UNL1        0.0214
      5 C           4.8576   -3.8155   20.9066 C.ar    1  UNL1        0.0312
      6 C           3.9987   -3.0870   19.9159 C.ar    1  UNL1        0.1402
      7 F           3.9471   -3.5450   18.4884 F       1  UNL1       -0.2042
      8 C           3.1915   -1.9006   20.3525 C.ar    1  UNL1        0.0313
      9 C           3.2431   -1.4427   21.7799 C.ar    1  UNL1        0.0243
     10 C           2.4358   -0.2562   22.2167 C.ar    1  UNL1        0.0577
     11 C           2.4874    0.2017   23.6441 C.ar    1  UNL1        0.0372
     12 C           1.5769    0.4723   21.2259 C.2     1  UNL1        0.2493
     13 O           0.1031    0.1995   21.1675 O.2     1  UNL1       -0.2699
     14 N           2.1919    1.4736   20.2935 N.am    1  UNL1       -0.2710
     15 C           3.5790    1.9955   20.0625 C.3     1  UNL1        0.1247
     16 C           3.0614    2.8896   18.9749 C.3     1  UNL1        0.1500
     17 O           3.6763    3.8908   18.0425 O.3     1  UNL1       -0.3810
     18 C           1.6743    2.3676   19.2059 C.3     1  UNL1        0.1247
     19 H           4.6300    3.9463   18.2108 H       1  UNL1        0.2105
     20 C           1.6801    1.3882   24.0808 C.ar    1  UNL1        0.0826
     21 C           0.3415    1.1876   24.7273 C.ar    1  UNL1        0.0192
     22 C          -0.4658    2.3740   25.1640 C.ar    1  UNL1        0.0031
     23 C           0.0656    3.7609   24.9543 C.ar    1  UNL1        0.0207
     24 C           1.4042    3.9615   24.3079 C.ar    1  UNL1        0.0988
     25 N           2.2115    2.7751   23.8711 N.ar    1  UNL1       -0.2438
     26 C           4.1077    1.2044   26.4163 C.3     1  UNL1        0.0278
     27 C           3.3980   -0.0688   26.0624 C.3     1  UNL1        0.1110
     28 N           2.7398   -0.8839   27.1358 N.pl3   1  UNL1       -0.3141
     29 H           2.7062   -1.8648   27.0582 H       1  UNL1        0.1485
     30 C           2.1329   -0.2046   28.3275 C.ar    1  UNL1        0.1429
     31 N           0.7855    0.4449   28.2150 N.ar    1  UNL1       -0.2084
     32 C           0.1785    1.1242   29.4067 C.ar    1  UNL1        0.2012
     33 N           0.9189    1.1540   30.7108 N.ar    1  UNL1       -0.2087
     34 C           2.2663    0.5045   30.8234 C.ar    1  UNL1        0.1396
     35 N           3.0067    0.5343   32.1276 N.pl3   1  UNL1       -0.3420
     36 C           2.8733   -0.1748   29.6317 C.ar    1  UNL1        0.1308
     37 H           2.6083    0.9802   32.9097 H       1  UNL1        0.1437
     38 H           3.8910    0.1080   32.2014 H       1  UNL1        0.1437
     39 C           4.2207   -0.8243   29.7442 C.1     1  UNL1        0.1061
     40 N           5.5680   -1.4739   29.8567 N.1     1  UNL1       -0.1906
@<TRIPOS>BOND
     1    26    27    1
     2    27    28    1
     3    28    30    1
     4    30    31   ar
     5    31    32   ar
     6    32    33   ar
     7    33    34   ar
     8    34    35    1
     9    34    36   ar
    10    36    39    1
    11    39    40    3
    12    27     1    1
    13     1     2   ar
    14     2     3   ar
    15     3     4   ar
    16     4     5   ar
    17     5     6   ar
    18     6     7    1
    19     6     8   ar
    20     8     9   ar
    21     9    10   ar
    22    10    12    1
    23    12    13    2
    24    12    14   am
    25    14    15    1
    26    15    16    1
    27    16    17    1
    28    16    18    1
    29    10    11   ar
    30    11    20    1
    31    20    21   ar
    32    21    22   ar
    33    22    23   ar
    34    23    24   ar
    35    24    25   ar
    36    36    30   ar
    37    11     1   ar
    38    25    20   ar
    39     9     3   ar
    40    18    14    1
    41    28    29    1
    42    35    37    1
    43    35    38    1
    44    17    19    1
@<TRIPOS>MOLECULE
*****
 40 44 0 0 0
SMALL
GASTEIGER

@<TRIPOS>ATOM
      1 C           2.6982    0.2616   24.3580 C.ar    1  UNL1        0.0782
      2 N           3.5159   -0.9749   24.1291 N.ar    1  UNL1       -0.2480
      3 C           3.5810   -1.5885   22.7618 C.ar    1  UNL1        0.0812
      4 C           4.3987   -2.8250   22.5328 C.ar    1  UNL1        0.0214
      5 C           4.4638   -3.4385   21.1656 C.ar    1  UNL1        0.0312
      6 C           3.7111   -2.8156   20.0274 C.ar    1  UNL1        0.1402
      7 F           3.7763   -3.4292   18.6602 F       1  UNL1       -0.2042
      8 C           2.8935   -1.5791   20.2564 C.ar    1  UNL1        0.0313
      9 C           2.8284   -0.9656   21.6236 C.ar    1  UNL1        0.0243
     10 C           2.0106    0.2709   21.8526 C.ar    1  UNL1        0.0577
     11 C           1.9456    0.8845   23.2198 C.ar    1  UNL1        0.0372
     12 C           1.2580    0.8939   20.7144 C.2     1  UNL1        0.2493
     13 O          -0.1870    0.5557   20.4964 O.2     1  UNL1       -0.2699
     14 N           1.9505    1.8550   19.7942 N.am    1  UNL1       -0.2710
     15 C           3.3373    2.4184   19.6971 C.3     1  UNL1        0.1247
     16 C           2.9297    3.2142   18.4927 C.3     1  UNL1        0.1500
     17 O           3.6220    4.1753   17.5725 O.3     1  UNL1       -0.3810
     18 C           1.5429    2.6508   18.5898 C.3     1  UNL1        0.1247
     19 H           4.5449    4.2823   17.8515 H       1  UNL1        0.2105
     20 C           1.1278    2.1210   23.4489 C.ar    1  UNL1        0.0826
     21 C           1.7000    3.4692   23.1248 C.ar    1  UNL1        0.0192
     22 C           0.8823    4.7057   23.3538 C.ar    1  UNL1        0.0031
     23 C          -0.5075    4.5940   23.9069 C.ar    1  UNL1        0.0207
     24 C          -1.0796    3.2458   24.2309 C.ar    1  UNL1        0.0988
     25 N          -0.2620    2.0093   24.0019 N.ar    1  UNL1       -0.2438
     26 C           3.7671    1.7221   26.2221 C.3     1  UNL1        0.0278
     27 C           2.6331    0.8752   25.7253 C.3     1  UNL1        0.1110
     28 N           1.4340    0.6419   26.5957 N.pl3   1  UNL1       -0.3141
     29 H           0.5458    0.5216   26.1883 H       1  UNL1        0.1485
     30 C           1.5880    0.5921   28.0869 C.ar    1  UNL1        0.1429
     31 N           2.2829   -0.5710   28.7307 N.ar    1  UNL1       -0.2084
     32 C           2.4369   -0.6209   30.2219 C.ar    1  UNL1        0.2012
     33 N           1.8961    0.4923   31.0694 N.ar    1  UNL1       -0.2087
     34 C           1.2012    1.6554   30.4257 C.ar    1  UNL1        0.1396
     35 N           0.6604    2.7686   31.2732 N.pl3   1  UNL1       -0.3420
     36 C           1.0472    1.7053   28.9344 C.ar    1  UNL1        0.1308
     37 H           0.7615    2.7358   32.2520 H       1  UNL1        0.1437
     38 H           0.2043    3.5320   30.8507 H       1  UNL1        0.1437
     39 C           0.3523    2.8684   28.2907 C.1     1  UNL1        0.1061
     40 N          -0.3426    4.0314   27.6470 N.1     1  UNL1       -0.1906
@<TRIPOS>BOND
     1    26    27    1
     2    27    28    1
     3    28    30    1
     4    30    31   ar
     5    31    32   ar
     6    32    33   ar
     7    33    34   ar
     8    34    35    1
     9    34    36   ar
    10    36    39    1
    11    39    40    3
    12    27     1    1
    13     1     2   ar
    14     2     3   ar
    15     3     4   ar
    16     4     5   ar
    17     5     6   ar
    18     6     7    1
    19     6     8   ar
    20     8     9   ar
    21     9    10   ar
    22    10    12    1
    23    12    13    2
    24    12    14   am
    25    14    15    1
    26    15    16    1
    27    16    17    1
    28    16    18    1
    29    10    11   ar
    30    11    20    1
    31    20    21   ar
    32    21    22   ar
    33    22    23   ar
    34    23    24   ar
    35    24    25   ar
    36    36    30   ar
    37    11     1   ar
    38    25    20   ar
    39     9     3   ar
    40    18    14    1
    41    28    29    1
    42    35    37    1
    43    35    38    1
    44    17    19    1
@<TRIPOS>MOLECULE
*****
 40 44 0 0 0
SMALL
GASTEIGER

@<TRIPOS>ATOM
      1 C           6.1573   -2.3052   25.0010 C.ar    1  UNL1        0.0782
      2 N           5.1685   -1.2219   25.3149 N.ar    1  UNL1       -0.2480
      3 C           4.1127   -0.8569   24.3138 C.ar    1  UNL1        0.0812
      4 C           3.1239    0.2265   24.6277 C.ar    1  UNL1        0.0214
      5 C           2.0682    0.5914   23.6266 C.ar    1  UNL1        0.0312
      6 C           2.0013   -0.1271   22.3115 C.ar    1  UNL1        0.1402
      7 F           0.9455    0.2379   21.3104 F       1  UNL1       -0.2042
      8 C           2.9901   -1.2104   21.9976 C.ar    1  UNL1        0.0313
      9 C           4.0458   -1.5754   22.9987 C.ar    1  UNL1        0.0243
     10 C           5.0346   -2.6588   22.6848 C.ar    1  UNL1        0.0577
     11 C           6.0903   -3.0237   23.6859 C.ar    1  UNL1        0.0372
     12 C           4.9677   -3.3772   21.3698 C.2     1  UNL1        0.2493
     13 O           4.3733   -4.7524   21.2959 O.2     1  UNL1       -0.2699
     14 N           5.4952   -2.7204   20.1286 N.am    1  UNL1       -0.2710
     15 C           6.1381   -1.4013   19.8180 C.3     1  UNL1        0.1247
     16 C           6.2411   -1.7916   18.3733 C.3     1  UNL1        0.1500
     17 O           6.7685   -1.1349   17.1322 O.3     1  UNL1       -0.3810
     18 C           5.5981   -3.1108   18.6840 C.3     1  UNL1        0.1247
     19 H           7.1149   -0.2563   17.3536 H       1  UNL1        0.2105
     20 C           7.0792   -4.1071   23.3720 C.ar    1  UNL1        0.0826
     21 C           8.1133   -3.8930   22.3068 C.ar    1  UNL1        0.0192
     22 C           9.1021   -4.9763   21.9929 C.ar    1  UNL1        0.0031
     23 C           9.0568   -6.2738   22.7442 C.ar    1  UNL1        0.0207
     24 C           8.0226   -6.4879   23.8094 C.ar    1  UNL1        0.0988
     25 N           7.0338   -5.4046   24.1233 N.ar    1  UNL1       -0.2438
     26 C           8.5338   -1.9592   25.9922 C.3     1  UNL1        0.0278
     27 C           7.2130   -2.6702   26.0021 C.3     1  UNL1        0.1110
     28 N           6.9480   -3.7461   27.0131 N.pl3   1  UNL1       -0.3141
     29 H           6.9906   -4.6930   26.7470 H       1  UNL1        0.1485
     30 C           6.6182   -3.3793   28.4297 C.ar    1  UNL1        0.1429
     31 N           6.0174   -2.0396   28.7371 N.ar    1  UNL1       -0.2084
     32 C           5.6875   -1.6728   30.1536 C.ar    1  UNL1        0.2012
     33 N           5.9584   -2.6456   31.2628 N.ar    1  UNL1       -0.2087
     34 C           6.5592   -3.9852   30.9555 C.ar    1  UNL1        0.1396
     35 N           6.8301   -4.9580   32.0646 N.pl3   1  UNL1       -0.3420
     36 C           6.8891   -4.3521   29.5389 C.ar    1  UNL1        0.1308
     37 H           6.6136   -4.7172   32.9944 H       1  UNL1        0.1437
     38 H           7.2244   -5.8372   31.8629 H       1  UNL1        0.1437
     39 C           7.4898   -5.6917   29.2315 C.1     1  UNL1        0.1061
     40 N           8.0905   -7.0313   28.9242 N.1     1  UNL1       -0.1906
@<TRIPOS>BOND
     1    26    27    1
     2    27    28    1
     3    28    30    1
     4    30    31   ar
     5    31    32   ar
     6    32    33   ar
     7    33    34   ar
     8    34    35    1
     9    34    36   ar
    10    36    39    1
    11    39    40    3
    12    27     1    1
    13     1     2   ar
    14     2     3   ar
    15     3     4   ar
    16     4     5   ar
    17     5     6   ar
    18     6     7    1
    19     6     8   ar
    20     8     9   ar
    21     9    10   ar
    22    10    12    1
    23    12    13    2
    24    12    14   am
    25    14    15    1
    26    15    16    1
    27    16    17    1
    28    16    18    1
    29    10    11   ar
    30    11    20    1
    31    20    21   ar
    32    21    22   ar
    33    22    23   ar
    34    23    24   ar
    35    24    25   ar
    36    36    30   ar
    37    11     1   ar
    38    25    20   ar
    39     9     3   ar
    40    18    14    1
    41    28    29    1
    42    35    37    1
    43    35    38    1
    44    17    19    1
@<TRIPOS>MOLECULE
*****
 40 44 0 0 0
SMALL
GASTEIGER

@<TRIPOS>ATOM
      1 C           4.9115   -3.1610   20.9692 C.ar    1  UNL1        0.0782
      2 N           5.7266   -4.0825   21.8272 N.ar    1  UNL1       -0.2480
      3 C           5.9693   -3.7463   23.2689 C.ar    1  UNL1        0.0812
      4 C           6.7844   -4.6679   24.1269 C.ar    1  UNL1        0.0214
      5 C           7.0271   -4.3317   25.5685 C.ar    1  UNL1        0.0312
      6 C           6.4546   -3.0740   26.1519 C.ar    1  UNL1        0.1402
      7 F           6.6973   -2.7378   27.5935 F       1  UNL1       -0.2042
      8 C           5.6395   -2.1524   25.2939 C.ar    1  UNL1        0.0313
      9 C           5.3969   -2.4886   23.8523 C.ar    1  UNL1        0.0243
     10 C           4.5817   -1.5671   22.9942 C.ar    1  UNL1        0.0577
     11 C           4.3391   -1.9033   21.5526 C.ar    1  UNL1        0.0372
     12 C           4.0092   -0.3094   23.5776 C.2     1  UNL1        0.2493
     13 O           2.6434   -0.3241   24.1974 O.2     1  UNL1       -0.2699
     14 N           4.8027    0.9631   23.5414 N.am    1  UNL1       -0.2710
     15 C           6.1551    1.3555   23.0245 C.3     1  UNL1        0.1247
     16 C           5.9248    2.7627   23.4901 C.3     1  UNL1        0.1500
     17 O           6.7182    4.0351   23.4538 O.3     1  UNL1       -0.3810
     18 C           4.5724    2.3703   24.0069 C.3     1  UNL1        0.1247
     19 H           7.5716    3.8719   23.0225 H       1  UNL1        0.2105
     20 C           3.5239   -0.9817   20.6945 C.ar    1  UNL1        0.0826
     21 C           2.0480   -1.2045   20.5463 C.ar    1  UNL1        0.0192
     22 C           1.2328   -0.2830   19.6882 C.ar    1  UNL1        0.0031
     23 C           1.8936    0.8612   18.9783 C.ar    1  UNL1        0.0207
     24 C           3.3695    1.0840   19.1265 C.ar    1  UNL1        0.0988
     25 N           4.1847    0.1625   19.9846 N.ar    1  UNL1       -0.2438
     26 C           3.3230   -3.9940   19.0896 C.3     1  UNL1        0.0278
     27 C           4.6688   -3.4971   19.5276 C.3     1  UNL1        0.1110
     28 N           5.7720   -3.3364   18.5240 N.pl3   1  UNL1       -0.3141
     29 H           6.1431   -4.1270   18.0695 H       1  UNL1        0.1485
     30 C           6.3097   -1.9712   18.2128 C.ar    1  UNL1        0.1429
     31 N           5.6045   -1.0957   17.2196 N.ar    1  UNL1       -0.2084
     32 C           6.1422    0.2695   16.9085 C.ar    1  UNL1        0.2012
     33 N           7.3852    0.7594   17.5904 N.ar    1  UNL1       -0.2087
     34 C           8.0904   -0.1159   18.5835 C.ar    1  UNL1        0.1396
     35 N           9.3334    0.3739   19.2655 N.pl3   1  UNL1       -0.3420
     36 C           7.5527   -1.4813   18.8948 C.ar    1  UNL1        0.1308
     37 H           9.6863    1.2700   19.0613 H       1  UNL1        0.1437
     38 H           9.7962   -0.2006   19.9173 H       1  UNL1        0.1437
     39 C           8.2579   -2.3567   19.8879 C.1     1  UNL1        0.1061
     40 N           8.9631   -3.2320   20.8810 N.1     1  UNL1       -0.1906
@<TRIPOS>BOND
     1    26    27    1
     2    27    28    1
     3    28    30    1
     4    30    31   ar
     5    31    32   ar
     6    32    33   ar
     7    33    34   ar
     8    34    35    1
     9    34    36   ar
    10    36    39    1
    11    39    40    3
    12    27     1    1
    13     1     2   ar
    14     2     3   ar
    15     3     4   ar
    16     4     5   ar
    17     5     6   ar
    18     6     7    1
    19     6     8   ar
    20     8     9   ar
    21     9    10   ar
    22    10    12    1
    23    12    13    2
    24    12    14   am
    25    14    15    1
    26    15    16    1
    27    16    17    1
    28    16    18    1
    29    10    11   ar
    30    11    20    1
    31    20    21   ar
    32    21    22   ar
    33    22    23   ar
    34    23    24   ar
    35    24    25   ar
    36    36    30   ar
    37    11     1   ar
    38    25    20   ar
    39     9     3   ar
    40    18    14    1
    41    28    29    1
    42    35    37    1
    43    35    38    1
    44    17    19    1
@<TRIPOS>MOLECULE
*****
 40 44 0 0 0
SMALL
GASTEIGER

@<TRIPOS>ATOM
      1 C           5.0908   -2.1861   24.0828 C.ar    1  UNL1        0.0782
      2 N           4.0592   -1.5293   24.9513 N.ar    1  UNL1       -0.2480
      3 C           4.2845   -1.4180   26.4302 C.ar    1  UNL1        0.0812
      4 C           3.2529   -0.7611   27.2986 C.ar    1  UNL1        0.0214
      5 C           3.4782   -0.6498   28.7774 C.ar    1  UNL1        0.0312
      6 C           4.7352   -1.1954   29.3877 C.ar    1  UNL1        0.1402
      7 F           4.9605   -1.0841   30.8665 F       1  UNL1       -0.2042
      8 C           5.7668   -1.8522   28.5192 C.ar    1  UNL1        0.0313
      9 C           5.5414   -1.9635   27.0405 C.ar    1  UNL1        0.0243
     10 C           6.5731   -2.6204   26.1719 C.ar    1  UNL1        0.0577
     11 C           6.3477   -2.7317   24.6931 C.ar    1  UNL1        0.0372
     12 C           7.8300   -3.1660   26.7822 C.2     1  UNL1        0.2493
     13 O           9.0285   -2.2797   26.9496 O.2     1  UNL1       -0.2699
     14 N           7.8884   -4.5980   27.2252 N.am    1  UNL1       -0.2710
     15 C           6.9273   -5.7496   27.2209 C.3     1  UNL1        0.1247
     16 C           7.9711   -6.6230   27.8516 C.3     1  UNL1        0.1500
     17 O           8.0295   -8.0549   28.2945 O.3     1  UNL1       -0.3810
     18 C           8.9322   -5.4714   27.8558 C.3     1  UNL1        0.1247
     19 H           7.1778   -8.4835   28.1163 H       1  UNL1        0.2105
     20 C           7.3794   -3.3886   23.8246 C.ar    1  UNL1        0.0826
     21 C           7.3823   -4.8796   23.6605 C.ar    1  UNL1        0.0192
     22 C           8.4139   -5.5365   22.7920 C.ar    1  UNL1        0.0031
     23 C           9.4425   -4.7024   22.0876 C.ar    1  UNL1        0.0207
     24 C           9.4395   -3.2114   22.2517 C.ar    1  UNL1        0.0988
     25 N           8.4080   -2.5545   23.1202 N.ar    1  UNL1       -0.2438
     26 C           4.3737   -3.5864   22.0152 C.3     1  UNL1        0.0278
     27 C           4.8655   -2.2975   22.6040 C.3     1  UNL1        0.1110
     28 N           5.1320   -1.1198   21.7140 N.pl3   1  UNL1       -0.3141
     29 H           5.0588   -0.2057   22.0720 H       1  UNL1        0.1485
     30 C           5.5101   -1.3350   20.2785 C.ar    1  UNL1        0.1429
     31 N           6.9253   -1.6787   19.9190 N.ar    1  UNL1       -0.2084
     32 C           7.3033   -1.8939   18.4835 C.ar    1  UNL1        0.2012
     33 N           6.2662   -1.7654   17.4074 N.ar    1  UNL1       -0.2087
     34 C           4.8511   -1.4218   17.7669 C.ar    1  UNL1        0.1396
     35 N           3.8140   -1.2934   16.6908 N.pl3   1  UNL1       -0.3420
     36 C           4.4730   -1.2066   19.2024 C.ar    1  UNL1        0.1308
     37 H           4.0622   -1.4347   15.7486 H       1  UNL1        0.1437
     38 H           2.8852   -1.0679   16.9267 H       1  UNL1        0.1437
     39 C           3.0578   -0.8630   19.5618 C.1     1  UNL1        0.1061
     40 N           1.6427   -0.5194   19.9213 N.1     1  UNL1       -0.1906
@<TRIPOS>BOND
     1    26    27    1
     2    27    28    1
     3    28    30    1
     4    30    31   ar
     5    31    32   ar
     6    32    33   ar
     7    33    34   ar
     8    34    35    1
     9    34    36   ar
    10    36    39    1
    11    39    40    3
    12    27     1    1
    13     1     2   ar
    14     2     3   ar
    15     3     4   ar
    16     4     5   ar
    17     5     6   ar
    18     6     7    1
    19     6     8   ar
    20     8     9   ar
    21     9    10   ar
    22    10    12    1
    23    12    13    2
    24    12    14   am
    25    14    15    1
    26    15    16    1
    27    16    17    1
    28    16    18    1
    29    10    11   ar
    30    11    20    1
    31    20    21   ar
    32    21    22   ar
    33    22    23   ar
    34    23    24   ar
    35    24    25   ar
    36    36    30   ar
    37    11     1   ar
    38    25    20   ar
    39     9     3   ar
    40    18    14    1
    41    28    29    1
    42    35    37    1
    43    35    38    1
    44    17    19    1
@<TRIPOS>MOLECULE
*****
 40 44 0 0 0
SMALL
GASTEIGER

@<TRIPOS>ATOM
      1 C           4.4431   -1.3234   23.4318 C.ar    1  UNL1        0.0782
      2 N           3.8723   -0.6977   24.6698 N.ar    1  UNL1       -0.2480
      3 C           2.6515    0.1690   24.5776 C.ar    1  UNL1        0.0812
      4 C           2.0806    0.7947   25.8155 C.ar    1  UNL1        0.0214
      5 C           0.8599    1.6614   25.7233 C.ar    1  UNL1        0.0312
      6 C           0.2099    1.9023   24.3930 C.ar    1  UNL1        0.1402
      7 F          -1.0109    2.7691   24.3008 F       1  UNL1       -0.2042
      8 C           0.7808    1.2767   23.1551 C.ar    1  UNL1        0.0313
      9 C           2.0015    0.4100   23.2473 C.ar    1  UNL1        0.0243
     10 C           2.5724   -0.2158   22.0093 C.ar    1  UNL1        0.0577
     11 C           3.7932   -1.0824   22.1016 C.ar    1  UNL1        0.0372
     12 C           1.9225    0.0252   20.6791 C.2     1  UNL1        0.2493
     13 O           0.8218   -0.8781   20.2075 O.2     1  UNL1       -0.2699
     14 N           2.3733    1.1696   19.8204 N.am    1  UNL1       -0.2710
     15 C           3.4068    2.2491   19.9488 C.3     1  UNL1        0.1247
     16 C           3.0108    2.7878   18.6060 C.3     1  UNL1        0.1500
     17 O           3.4616    3.9321   17.7473 O.3     1  UNL1       -0.3810
     18 C           1.9774    1.7083   18.4776 C.3     1  UNL1        0.1247
     19 H           4.1751    4.4119   18.1964 H       1  UNL1        0.2105
     20 C           4.3641   -1.7082   20.8636 C.ar    1  UNL1        0.0826
     21 C           3.9206   -3.0779   20.4427 C.ar    1  UNL1        0.0192
     22 C           4.4915   -3.7037   19.2048 C.ar    1  UNL1        0.0031
     23 C           5.5058   -2.9597   18.3877 C.ar    1  UNL1        0.0207
     24 C           5.9492   -1.5899   18.8086 C.ar    1  UNL1        0.0988
     25 N           5.3784   -0.9642   20.0465 N.ar    1  UNL1       -0.2438
     26 C           7.0176   -1.6121   23.2351 C.3     1  UNL1        0.0278
     27 C           5.6640   -2.1901   23.5240 C.3     1  UNL1        0.1110
     28 N           5.5311   -3.6348   23.9051 N.pl3   1  UNL1       -0.3141
     29 H           4.6384   -4.0404   23.9939 H       1  UNL1        0.1485
     30 C           6.7583   -4.4615   24.1510 C.ar    1  UNL1        0.1429
     31 N           7.4092   -5.1939   23.0152 N.ar    1  UNL1       -0.2084
     32 C           8.6364   -6.0206   23.2610 C.ar    1  UNL1        0.2012
     33 N           9.2128   -6.1149   24.6426 N.ar    1  UNL1       -0.2087
     34 C           8.5620   -5.3825   25.7784 C.ar    1  UNL1        0.1396
     35 N           9.1384   -5.4768   27.1600 N.pl3   1  UNL1       -0.3420
     36 C           7.3347   -4.5558   25.5326 C.ar    1  UNL1        0.1308
     37 H           9.9439   -6.0194   27.3214 H       1  UNL1        0.1437
     38 H           8.7112   -4.9961   27.9055 H       1  UNL1        0.1437
     39 C           6.6839   -3.8234   26.6684 C.1     1  UNL1        0.1061
     40 N           6.0331   -3.0910   27.8041 N.1     1  UNL1       -0.1906
@<TRIPOS>BOND
     1    26    27    1
     2    27    28    1
     3    28    30    1
     4    30    31   ar
     5    31    32   ar
     6    32    33   ar
     7    33    34   ar
     8    34    35    1
     9    34    36   ar
    10    36    39    1
    11    39    40    3
    12    27     1    1
    13     1     2   ar
    14     2     3   ar
    15     3     4   ar
    16     4     5   ar
    17     5     6   ar
    18     6     7    1
    19     6     8   ar
    20     8     9   ar
    21     9    10   ar
    22    10    12    1
    23    12    13    2
    24    12    14   am
    25    14    15    1
    26    15    16    1
    27    16    17    1
    28    16    18    1
    29    10    11   ar
    30    11    20    1
    31    20    21   ar
    32    21    22   ar
    33    22    23   ar
    34    23    24   ar
    35    24    25   ar
    36    36    30   ar
    37    11     1   ar
    38    25    20   ar
    39     9     3   ar
    40    18    14    1
    41    28    29    1
    42    35    37    1
    43    35    38    1
    44    17    19    1
@<TRIPOS>MOLECULE
*****
 40 44 0 0 0
SMALL
GASTEIGER

@<TRIPOS>ATOM
      1 C          -0.9583    2.4970   21.3138 C.ar    1  UNL1        0.0782
      2 N          -0.3970    1.3556   20.5188 N.ar    1  UNL1       -0.2480
      3 C           0.8014    0.6077   21.0234 C.ar    1  UNL1        0.0812
      4 C           1.3627   -0.5336   20.2283 C.ar    1  UNL1        0.0214
      5 C           2.5611   -1.2814   20.7329 C.ar    1  UNL1        0.0312
      6 C           3.1982   -0.8878   22.0326 C.ar    1  UNL1        0.1402
      7 F           4.3966   -1.6357   22.5372 F       1  UNL1       -0.2042
      8 C           2.6369    0.2536   22.8277 C.ar    1  UNL1        0.0313
      9 C           1.4385    1.0013   22.3230 C.ar    1  UNL1        0.0243
     10 C           0.8772    2.1428   23.1181 C.ar    1  UNL1        0.0577
     11 C          -0.3212    2.8906   22.6135 C.ar    1  UNL1        0.0372
     12 C           1.5143    2.5364   24.4178 C.2     1  UNL1        0.2493
     13 O           2.7267    3.4195   24.4216 O.2     1  UNL1       -0.2699
     14 N           0.9389    2.0469   25.7137 N.am    1  UNL1       -0.2710
     15 C          -0.2231    1.1795   26.0979 C.3     1  UNL1        0.1247
     16 C           0.1252    1.3546   27.5464 C.3     1  UNL1        0.1500
     17 O          -0.4502    0.8651   28.8423 O.3     1  UNL1       -0.3810
     18 C           1.2871    2.2220   27.1622 C.3     1  UNL1        0.1247
     19 H          -1.2252    0.3102   28.6628 H       1  UNL1        0.2105
     20 C          -0.8825    4.0320   23.4086 C.ar    1  UNL1        0.0826
     21 C          -2.0438    3.8045   24.3303 C.ar    1  UNL1        0.0192
     22 C          -2.6052    4.9458   25.1254 C.ar    1  UNL1        0.0031
     23 C          -2.0052    6.3147   24.9987 C.ar    1  UNL1        0.0207
     24 C          -0.8439    6.5423   24.0770 C.ar    1  UNL1        0.0988
     25 N          -0.2825    5.4009   23.2819 N.ar    1  UNL1       -0.2438
     26 C          -2.0146    4.6644   20.3460 C.3     1  UNL1        0.0278
     27 C          -2.1567    3.2448   20.8092 C.3     1  UNL1        0.1110
     28 N          -3.4972    2.5731   20.7679 N.pl3   1  UNL1       -0.3141
     29 H          -3.5729    1.6443   20.4502 H       1  UNL1        0.1485
     30 C          -4.7225    3.3164   21.2106 C.ar    1  UNL1        0.1429
     31 N          -5.0560    3.4110   22.6700 N.ar    1  UNL1       -0.2084
     32 C          -6.2813    4.1543   23.1127 C.ar    1  UNL1        0.2012
     33 N          -7.1732    4.8031   22.0961 N.ar    1  UNL1       -0.2087
     34 C          -6.8398    4.7086   20.6367 C.ar    1  UNL1        0.1396
     35 N          -7.7317    5.3573   19.6200 N.pl3   1  UNL1       -0.3420
     36 C          -5.6144    3.9652   20.1939 C.ar    1  UNL1        0.1308
     37 H          -8.5359    5.8452   19.9106 H       1  UNL1        0.1437
     38 H          -7.5128    5.2953   18.6622 H       1  UNL1        0.1437
     39 C          -5.2810    3.8706   18.7345 C.1     1  UNL1        0.1061
     40 N          -4.9476    3.7761   17.2751 N.1     1  UNL1       -0.1906
@<TRIPOS>BOND
     1    26    27    1
     2    27    28    1
     3    28    30    1
     4    30    31   ar
     5    31    32   ar
     6    32    33   ar
     7    33    34   ar
     8    34    35    1
     9    34    36   ar
    10    36    39    1
    11    39    40    3
    12    27     1    1
    13     1     2   ar
    14     2     3   ar
    15     3     4   ar
    16     4     5   ar
    17     5     6   ar
    18     6     7    1
    19     6     8   ar
    20     8     9   ar
    21     9    10   ar
    22    10    12    1
    23    12    13    2
    24    12    14   am
    25    14    15    1
    26    15    16    1
    27    16    17    1
    28    16    18    1
    29    10    11   ar
    30    11    20    1
    31    20    21   ar
    32    21    22   ar
    33    22    23   ar
    34    23    24   ar
    35    24    25   ar
    36    36    30   ar
    37    11     1   ar
    38    25    20   ar
    39     9     3   ar
    40    18    14    1
    41    28    29    1
    42    35    37    1
    43    35    38    1
    44    17    19    1
@<TRIPOS>MOLECULE
*****
 40 44 0 0 0
SMALL
GASTEIGER

@<TRIPOS>ATOM
      1 C           4.2796    2.7467   32.9890 C.ar    1  UNL1        0.0782
      2 N           2.8295    2.9056   32.6399 N.ar    1  UNL1       -0.2480
      3 C           2.2108    2.0318   31.5893 C.ar    1  UNL1        0.0812
      4 C           0.7607    2.1908   31.2402 C.ar    1  UNL1        0.0214
      5 C           0.1421    1.3170   30.1896 C.ar    1  UNL1        0.0312
      6 C           0.9736    0.2843   29.4880 C.ar    1  UNL1        0.1402
      7 F           0.3550   -0.5895   28.4374 F       1  UNL1       -0.2042
      8 C           2.4237    0.1254   29.8371 C.ar    1  UNL1        0.0313
      9 C           3.0423    0.9992   30.8877 C.ar    1  UNL1        0.0243
     10 C           4.4925    0.8403   31.2368 C.ar    1  UNL1        0.0577
     11 C           5.1111    1.7141   32.2874 C.ar    1  UNL1        0.0372
     12 C           5.3240   -0.1924   30.5353 C.2     1  UNL1        0.2493
     13 O           5.9063    0.1043   29.1852 O.2     1  UNL1       -0.2699
     14 N           5.5732   -1.5218   31.1840 N.am    1  UNL1       -0.2710
     15 C           5.1723   -2.1613   32.4802 C.3     1  UNL1        0.1247
     16 C           5.9257   -3.4018   32.1012 C.3     1  UNL1        0.1500
     17 O           6.1750   -4.7311   32.7498 O.3     1  UNL1       -0.3810
     18 C           6.3267   -2.7622   30.8050 C.3     1  UNL1        0.1247
     19 H           5.7310   -4.7586   33.6118 H       1  UNL1        0.2105
     20 C           6.5613    1.5552   32.6366 C.ar    1  UNL1        0.0826
     21 C           7.6112    2.2300   31.8046 C.ar    1  UNL1        0.0192
     22 C           9.0614    2.0712   32.1537 C.ar    1  UNL1        0.0031
     23 C           9.4615    1.2375   33.3347 C.ar    1  UNL1        0.0207
     24 C           8.4115    0.5626   34.1666 C.ar    1  UNL1        0.0988
     25 N           6.9614    0.7215   33.8176 N.ar    1  UNL1       -0.2438
     26 C           5.3140    5.0213   33.7006 C.3     1  UNL1        0.0278
     27 C           4.8982    3.6205   34.0396 C.3     1  UNL1        0.1110
     28 N           5.1011    3.0935   35.4292 N.pl3   1  UNL1       -0.3141
     29 H           6.0059    2.8622   35.7408 H       1  UNL1        0.1485
     30 C           3.9254    2.9189   36.3442 C.ar    1  UNL1        0.1429
     31 N           2.8973    4.0051   36.4600 N.ar    1  UNL1       -0.2084
     32 C           1.7216    3.8306   37.3750 C.ar    1  UNL1        0.2012
     33 N           1.5739    2.5698   38.1742 N.ar    1  UNL1       -0.2087
     34 C           2.6020    1.4837   38.0585 C.ar    1  UNL1        0.1396
     35 N           2.4543    0.2230   38.8577 N.pl3   1  UNL1       -0.3420
     36 C           3.7777    1.6582   37.1434 C.ar    1  UNL1        0.1308
     37 H           1.6826    0.1084   39.4582 H       1  UNL1        0.1437
     38 H           3.1290   -0.4899   38.7817 H       1  UNL1        0.1437
     39 C           4.8057    0.5721   37.0277 C.1     1  UNL1        0.1061
     40 N           5.8337   -0.5141   36.9120 N.1     1  UNL1       -0.1906
@<TRIPOS>BOND
     1    26    27    1
     2    27    28    1
     3    28    30    1
     4    30    31   ar
     5    31    32   ar
     6    32    33   ar
     7    33    34   ar
     8    34    35    1
     9    34    36   ar
    10    36    39    1
    11    39    40    3
    12    27     1    1
    13     1     2   ar
    14     2     3   ar
    15     3     4   ar
    16     4     5   ar
    17     5     6   ar
    18     6     7    1
    19     6     8   ar
    20     8     9   ar
    21     9    10   ar
    22    10    12    1
    23    12    13    2
    24    12    14   am
    25    14    15    1
    26    15    16    1
    27    16    17    1
    28    16    18    1
    29    10    11   ar
    30    11    20    1
    31    20    21   ar
    32    21    22   ar
    33    22    23   ar
    34    23    24   ar
    35    24    25   ar
    36    36    30   ar
    37    11     1   ar
    38    25    20   ar
    39     9     3   ar
    40    18    14    1
    41    28    29    1
    42    35    37    1
    43    35    38    1
    44    17    19    1
@<TRIPOS>MOLECULE
*****
 40 44 0 0 0
SMALL
GASTEIGER

@<TRIPOS>ATOM
      1 C          -0.8598    2.9437   22.5550 C.ar    1  UNL1        0.0782
      2 N          -1.4363    3.1560   23.9234 N.ar    1  UNL1       -0.2480
      3 C          -0.7389    2.5936   25.1266 C.ar    1  UNL1        0.0812
      4 C          -1.3154    2.8058   26.4950 C.ar    1  UNL1        0.0214
      5 C          -0.6180    2.2435   27.6980 C.ar    1  UNL1        0.0312
      6 C           0.6558    1.4689   27.5327 C.ar    1  UNL1        0.1402
      7 F           1.3532    0.9065   28.7358 F       1  UNL1       -0.2042
      8 C           1.2323    1.2567   26.1643 C.ar    1  UNL1        0.0313
      9 C           0.5350    1.8190   24.9612 C.ar    1  UNL1        0.0243
     10 C           1.1114    1.6068   23.5927 C.ar    1  UNL1        0.0577
     11 C           0.4141    2.1691   22.3897 C.ar    1  UNL1        0.0372
     12 C           2.3853    0.8322   23.4274 C.2     1  UNL1        0.2493
     13 O           2.3375   -0.6482   23.1905 O.2     1  UNL1       -0.2699
     14 N           3.7069    1.5381   23.4989 N.am    1  UNL1       -0.2710
     15 C           4.1410    2.9578   23.7137 C.3     1  UNL1        0.1247
     16 C           5.5760    2.5363   23.6000 C.3     1  UNL1        0.1500
     17 O           6.8976    3.2420   23.6716 O.3     1  UNL1       -0.3810
     18 C           5.1420    1.1166   23.3853 C.3     1  UNL1        0.1247
     19 H           6.7509    4.1880   23.8286 H       1  UNL1        0.2105
     20 C           0.9905    1.9569   21.0212 C.ar    1  UNL1        0.0826
     21 C           0.5251    0.8042   20.1818 C.ar    1  UNL1        0.0192
     22 C           1.1015    0.5920   18.8133 C.ar    1  UNL1        0.0031
     23 C           2.1434    1.5324   18.2843 C.ar    1  UNL1        0.0207
     24 C           2.6088    2.6851   19.1237 C.ar    1  UNL1        0.0988
     25 N           2.0324    2.8974   20.4921 N.ar    1  UNL1       -0.2438
     26 C          -1.0392    4.7536   20.6997 C.3     1  UNL1        0.0278
     27 C          -1.5572    3.5061   21.3518 C.3     1  UNL1        0.1110
     28 N          -2.7724    2.8209   20.8009 N.pl3   1  UNL1       -0.3141
     29 H          -2.6715    2.0519   20.1945 H       1  UNL1        0.1485
     30 C          -4.1414    3.3074   21.1738 C.ar    1  UNL1        0.1429
     31 N          -4.5545    3.3527   22.6152 N.ar    1  UNL1       -0.2084
     32 C          -5.9235    3.8391   22.9881 C.ar    1  UNL1        0.2012
     33 N          -6.8795    4.2803   21.9197 N.ar    1  UNL1       -0.2087
     34 C          -6.4665    4.2351   20.4785 C.ar    1  UNL1        0.1396
     35 N          -7.4225    4.6763   19.4101 N.pl3   1  UNL1       -0.3420
     36 C          -5.0974    3.7486   20.1055 C.ar    1  UNL1        0.1308
     37 H          -8.3210    4.9956   19.6549 H       1  UNL1        0.1437
     38 H          -7.1514    4.6465   18.4641 H       1  UNL1        0.1437
     39 C          -4.6844    3.7033   18.6642 C.1     1  UNL1        0.1061
     40 N          -4.2714    3.6580   17.2229 N.1     1  UNL1       -0.1906
@<TRIPOS>BOND
     1    26    27    1
     2    27    28    1
     3    28    30    1
     4    30    31   ar
     5    31    32   ar
     6    32    33   ar
     7    33    34   ar
     8    34    35    1
     9    34    36   ar
    10    36    39    1
    11    39    40    3
    12    27     1    1
    13     1     2   ar
    14     2     3   ar
    15     3     4   ar
    16     4     5   ar
    17     5     6   ar
    18     6     7    1
    19     6     8   ar
    20     8     9   ar
    21     9    10   ar
    22    10    12    1
    23    12    13    2
    24    12    14   am
    25    14    15    1
    26    15    16    1
    27    16    17    1
    28    16    18    1
    29    10    11   ar
    30    11    20    1
    31    20    21   ar
    32    21    22   ar
    33    22    23   ar
    34    23    24   ar
    35    24    25   ar
    36    36    30   ar
    37    11     1   ar
    38    25    20   ar
    39     9     3   ar
    40    18    14    1
    41    28    29    1
    42    35    37    1
    43    35    38    1
    44    17    19    1
