@<TRIPOS>MOLECULE
*****
 30 33 0 0 0
SMALL
GASTEIGER

@<TRIPOS>ATOM
      1 N          -7.4139  -19.5774   22.4115 N.pl3   1  UNL1       -0.3101
      2 H          -7.7373  -20.4726   22.6631 H       1  UNL1        0.1523
      3 C          -8.2000  -18.3599   22.7984 C.ar    1  UNL1        0.0512
      4 C          -7.5076  -17.1906   23.4336 C.ar    1  UNL1        0.0311
      5 C          -6.0291  -17.2389   23.6819 C.ar    1  UNL1        0.0027
      6 C          -5.3367  -16.0697   24.3171 C.ar    1  UNL1        0.0001
      7 C          -6.1228  -14.8522   24.7040 C.ar    1  UNL1        0.0015
      8 C          -7.6013  -14.8039   24.4557 C.ar    1  UNL1        0.0191
      9 C          -8.2937  -15.9731   23.8205 C.ar    1  UNL1        0.0824
     10 N          -9.7723  -15.9249   23.5722 N.ar    1  UNL1       -0.2453
     11 C         -10.4646  -17.0941   22.9370 C.ar    1  UNL1        0.0824
     12 C         -11.9432  -17.0458   22.6887 C.ar    1  UNL1        0.0191
     13 C         -12.6356  -18.2150   22.0535 C.ar    1  UNL1        0.0015
     14 C         -11.8495  -19.4325   21.6666 C.ar    1  UNL1        0.0001
     15 C         -10.3710  -19.4808   21.9149 C.ar    1  UNL1        0.0027
     16 C          -9.6785  -18.3116   22.5501 C.ar    1  UNL1        0.0311
     17 C          -6.1735  -19.0689   20.1860 C.ar    1  UNL1        0.1532
     18 C          -4.8946  -18.9225   19.4157 C.ar    1  UNL1        0.0540
     19 C          -3.5777  -19.1381   20.1006 C.ar    1  UNL1        0.0675
     20 C          -3.5394  -19.5002   21.5557 C.ar    1  UNL1        0.0173
     21 C          -4.8182  -19.6467   22.3260 C.ar    1  UNL1        0.0190
     22 C          -6.1352  -19.4310   21.6412 C.ar    1  UNL1        0.0828
     23 C          -8.2878  -20.0296   19.0213 C.3     1  UNL1        0.2525
     24 O          -7.4904  -18.8532   19.5012 O.3     1  UNL1       -0.4701
     25 N          -2.2990  -18.9917   19.3303 N.pl3   1  UNL1       -0.2186
     26 H          -2.1215  -19.5732   18.5559 H       1  UNL1        0.1734
     27 S          -1.2907  -17.9593   19.7398 S.O2    1  UNL1        0.0558
     28 C          -0.2824  -16.9271   20.1493 C.3     1  UNL1        0.1996
     29 O          -0.2257  -19.0149   19.7783 O.2     1  UNL1       -0.1544
     30 O          -2.3557  -16.9038   19.7013 O.2     1  UNL1       -0.1544
@<TRIPOS>BOND
     1    23    24    1
     2    24    17    1
     3    17    18   ar
     4    18    19   ar
     5    19    25    1
     6    25    27    1
     7    27    28    1
     8    27    29    2
     9    27    30    2
    10    19    20   ar
    11    20    21   ar
    12    21    22   ar
    13    22     1    1
    14     1     3    1
    15     3     4   ar
    16     4     5   ar
    17     5     6   ar
    18     6     7   ar
    19     7     8   ar
    20     8     9   ar
    21     9    10   ar
    22    10    11   ar
    23    11    12   ar
    24    12    13   ar
    25    13    14   ar
    26    14    15   ar
    27    15    16   ar
    28    22    17   ar
    29    16     3   ar
    30     9     4   ar
    31    16    11   ar
    32    25    26    1
    33     1     2    1
@<TRIPOS>MOLECULE
*****
 30 33 0 0 0
SMALL
GASTEIGER

@<TRIPOS>ATOM
      1 N          -7.4136  -19.5745   22.4120 N.pl3   1  UNL1       -0.3101
      2 H          -7.7362  -20.4689   22.6674 H       1  UNL1        0.1523
      3 C          -8.2023  -18.3562   22.7911 C.ar    1  UNL1        0.0512
      4 C          -9.6782  -18.3062   22.5277 C.ar    1  UNL1        0.0311
      5 C         -10.3653  -19.4745   21.8851 C.ar    1  UNL1        0.0027
      6 C         -11.8411  -19.4245   21.6217 C.ar    1  UNL1        0.0001
      7 C         -12.6298  -18.2062   22.0009 C.ar    1  UNL1        0.0015
      8 C         -11.9426  -17.0379   22.6434 C.ar    1  UNL1        0.0191
      9 C         -10.4668  -17.0879   22.9068 C.ar    1  UNL1        0.0824
     10 N          -9.7796  -15.9196   23.5494 N.ar    1  UNL1       -0.2453
     11 C          -8.3038  -15.9696   23.8128 C.ar    1  UNL1        0.0824
     12 C          -7.6165  -14.8013   24.4554 C.ar    1  UNL1        0.0191
     13 C          -6.1407  -14.8514   24.7188 C.ar    1  UNL1        0.0015
     14 C          -5.3521  -16.0697   24.3397 C.ar    1  UNL1        0.0001
     15 C          -6.0392  -17.2379   23.6971 C.ar    1  UNL1        0.0027
     16 C          -7.5151  -17.1880   23.4337 C.ar    1  UNL1        0.0311
     17 C          -6.1688  -19.0679   20.1885 C.ar    1  UNL1        0.1532
     18 C          -4.8885  -18.9235   19.4203 C.ar    1  UNL1        0.0540
     19 C          -3.5730  -19.1414   20.1072 C.ar    1  UNL1        0.0675
     20 C          -3.5376  -19.5036   21.5624 C.ar    1  UNL1        0.0173
     21 C          -4.8178  -19.6480   22.3306 C.ar    1  UNL1        0.0190
     22 C          -6.1334  -19.4301   21.6437 C.ar    1  UNL1        0.0828
     23 C          -8.2755  -20.0243   19.0067 C.3     1  UNL1        0.2525
     24 O          -7.4843  -18.8500   19.5016 O.3     1  UNL1       -0.4701
     25 N          -2.2928  -18.9970   19.3390 N.pl3   1  UNL1       -0.2186
     26 H          -2.1115  -19.5839   18.5696 H       1  UNL1        0.1734
     27 S          -1.2887  -17.9583   19.7429 S.O2    1  UNL1        0.0558
     28 C          -0.2847  -16.9197   20.1468 C.3     1  UNL1        0.1996
     29 O          -0.2187  -19.0087   19.7839 O.2     1  UNL1       -0.1544
     30 O          -2.3588  -16.9079   19.7018 O.2     1  UNL1       -0.1544
@<TRIPOS>BOND
     1    23    24    1
     2    24    17    1
     3    17    18   ar
     4    18    19   ar
     5    19    25    1
     6    25    27    1
     7    27    28    1
     8    27    29    2
     9    27    30    2
    10    19    20   ar
    11    20    21   ar
    12    21    22   ar
    13    22     1    1
    14     1     3    1
    15     3     4   ar
    16     4     5   ar
    17     5     6   ar
    18     6     7   ar
    19     7     8   ar
    20     8     9   ar
    21     9    10   ar
    22    10    11   ar
    23    11    12   ar
    24    12    13   ar
    25    13    14   ar
    26    14    15   ar
    27    15    16   ar
    28    22    17   ar
    29    16     3   ar
    30     9     4   ar
    31    16    11   ar
    32    25    26    1
    33     1     2    1
@<TRIPOS>MOLECULE
*****
 30 33 0 0 0
SMALL
GASTEIGER

@<TRIPOS>ATOM
      1 N          -8.1918  -18.5112   21.5728 N.pl3   1  UNL1       -0.3101
      2 H          -8.3344  -18.7063   20.6184 H       1  UNL1        0.1523
      3 C          -6.8147  -18.1944   22.0760 C.ar    1  UNL1        0.0512
      4 C          -6.6231  -17.1342   23.1197 C.ar    1  UNL1        0.0311
      5 C          -7.8085  -16.3908   23.6602 C.ar    1  UNL1        0.0027
      6 C          -7.6168  -15.3307   24.7039 C.ar    1  UNL1        0.0001
      7 C          -6.2397  -15.0139   25.2071 C.ar    1  UNL1        0.0015
      8 C          -5.0543  -15.7573   24.6666 C.ar    1  UNL1        0.0191
      9 C          -5.2460  -16.8174   23.6229 C.ar    1  UNL1        0.0824
     10 N          -4.0605  -17.5608   23.0824 N.ar    1  UNL1       -0.2453
     11 C          -4.2522  -18.6209   22.0387 C.ar    1  UNL1        0.0824
     12 C          -3.0667  -19.3643   21.4981 C.ar    1  UNL1        0.0191
     13 C          -3.2584  -20.4245   20.4544 C.ar    1  UNL1        0.0015
     14 C          -4.6355  -20.7412   19.9512 C.ar    1  UNL1        0.0001
     15 C          -5.8210  -19.9979   20.4917 C.ar    1  UNL1        0.0027
     16 C          -5.6293  -18.9377   21.5355 C.ar    1  UNL1        0.0311
     17 C         -10.4090  -17.4700   22.4387 C.ar    1  UNL1        0.1532
     18 C         -11.5690  -17.4895   23.3897 C.ar    1  UNL1        0.0540
     19 C         -11.6716  -18.5695   24.4255 C.ar    1  UNL1        0.0675
     20 C         -10.6143  -19.6301   24.5104 C.ar    1  UNL1        0.0173
     21 C          -9.4544  -19.6107   23.5595 C.ar    1  UNL1        0.0190
     22 C          -9.3517  -18.5306   22.5237 C.ar    1  UNL1        0.0828
     23 C         -11.4150  -16.1937   20.4116 C.3     1  UNL1        0.2525
     24 O         -10.3064  -16.3900   21.4029 O.3     1  UNL1       -0.4701
     25 N         -12.8315  -18.5889   25.3763 N.pl3   1  UNL1       -0.2186
     26 H         -12.6716  -18.6191   26.3473 H       1  UNL1        0.1734
     27 S         -14.2351  -18.5624   24.8479 S.O2    1  UNL1        0.0558
     28 C         -15.6387  -18.5359   24.3194 C.3     1  UNL1        0.1996
     29 O         -14.7556  -18.9006   26.2134 O.2     1  UNL1       -0.1544
     30 O         -13.7146  -18.2242   23.4823 O.2     1  UNL1       -0.1544
@<TRIPOS>BOND
     1    23    24    1
     2    24    17    1
     3    17    18   ar
     4    18    19   ar
     5    19    25    1
     6    25    27    1
     7    27    28    1
     8    27    29    2
     9    27    30    2
    10    19    20   ar
    11    20    21   ar
    12    21    22   ar
    13    22     1    1
    14     1     3    1
    15     3     4   ar
    16     4     5   ar
    17     5     6   ar
    18     6     7   ar
    19     7     8   ar
    20     8     9   ar
    21     9    10   ar
    22    10    11   ar
    23    11    12   ar
    24    12    13   ar
    25    13    14   ar
    26    14    15   ar
    27    15    16   ar
    28    22    17   ar
    29    16     3   ar
    30     9     4   ar
    31    16    11   ar
    32    25    26    1
    33     1     2    1
@<TRIPOS>MOLECULE
*****
 30 33 0 0 0
SMALL
GASTEIGER

@<TRIPOS>ATOM
      1 N          -8.2054  -18.4718   21.5717 N.pl3   1  UNL1       -0.3101
      2 H          -8.3510  -18.6451   20.6136 H       1  UNL1        0.1523
      3 C          -6.8248  -18.1785   22.0795 C.ar    1  UNL1        0.0512
      4 C          -5.6498  -18.9389   21.5397 C.ar    1  UNL1        0.0311
      5 C          -5.8555  -19.9927   20.4922 C.ar    1  UNL1        0.0027
      6 C          -4.6806  -20.7531   19.9525 C.ar    1  UNL1        0.0001
      7 C          -3.3000  -20.4597   20.4603 C.ar    1  UNL1        0.0015
      8 C          -3.0943  -19.4060   21.5079 C.ar    1  UNL1        0.0191
      9 C          -4.2692  -18.6456   22.0475 C.ar    1  UNL1        0.0824
     10 N          -4.0636  -17.5918   23.0951 N.ar    1  UNL1       -0.2453
     11 C          -5.2385  -16.8314   23.6348 C.ar    1  UNL1        0.0824
     12 C          -5.0328  -15.7776   24.6824 C.ar    1  UNL1        0.0191
     13 C          -6.2077  -15.0172   25.2221 C.ar    1  UNL1        0.0015
     14 C          -7.5883  -15.3106   24.7143 C.ar    1  UNL1        0.0001
     15 C          -7.7940  -16.3643   23.6668 C.ar    1  UNL1        0.0027
     16 C          -6.6191  -17.1248   23.1270 C.ar    1  UNL1        0.0311
     17 C         -10.4321  -17.4513   22.4378 C.ar    1  UNL1        0.1532
     18 C         -11.5910  -17.4806   23.3899 C.ar    1  UNL1        0.0540
     19 C         -11.6818  -18.5598   24.4277 C.ar    1  UNL1        0.0675
     20 C         -10.6139  -19.6096   24.5136 C.ar    1  UNL1        0.0173
     21 C          -9.4551  -19.5803   23.5616 C.ar    1  UNL1        0.0190
     22 C          -9.3642  -18.5011   22.5237 C.ar    1  UNL1        0.0828
     23 C         -11.4049  -16.2506   20.3493 C.3     1  UNL1        0.2525
     24 O         -10.3413  -16.3721   21.4000 O.3     1  UNL1       -0.4701
     25 N         -12.8406  -18.5891   25.3797 N.pl3   1  UNL1       -0.2186
     26 H         -12.6795  -18.6249   26.3503 H       1  UNL1        0.1734
     27 S         -14.2449  -18.5639   24.8529 S.O2    1  UNL1        0.0558
     28 C         -15.6491  -18.5387   24.3262 C.3     1  UNL1        0.1996
     29 O         -14.7638  -18.8964   26.2204 O.2     1  UNL1       -0.1544
     30 O         -13.7260  -18.2314   23.4854 O.2     1  UNL1       -0.1544
@<TRIPOS>BOND
     1    23    24    1
     2    24    17    1
     3    17    18   ar
     4    18    19   ar
     5    19    25    1
     6    25    27    1
     7    27    28    1
     8    27    29    2
     9    27    30    2
    10    19    20   ar
    11    20    21   ar
    12    21    22   ar
    13    22     1    1
    14     1     3    1
    15     3     4   ar
    16     4     5   ar
    17     5     6   ar
    18     6     7   ar
    19     7     8   ar
    20     8     9   ar
    21     9    10   ar
    22    10    11   ar
    23    11    12   ar
    24    12    13   ar
    25    13    14   ar
    26    14    15   ar
    27    15    16   ar
    28    22    17   ar
    29    16     3   ar
    30     9     4   ar
    31    16    11   ar
    32    25    26    1
    33     1     2    1
@<TRIPOS>MOLECULE
*****
 30 33 0 0 0
SMALL
GASTEIGER

@<TRIPOS>ATOM
      1 N          -6.3925  -19.3005   22.1473 N.pl3   1  UNL1       -0.3101
      2 H          -6.4919  -20.1425   22.6476 H       1  UNL1        0.1523
      3 C          -7.5016  -18.2906   22.1508 C.ar    1  UNL1        0.0512
      4 C          -8.6831  -18.4711   21.2443 C.ar    1  UNL1        0.0311
      5 C          -8.7553  -19.6614   20.3344 C.ar    1  UNL1        0.0027
      6 C          -9.9367  -19.8418   19.4279 C.ar    1  UNL1        0.0001
      7 C         -11.0459  -18.8320   19.4314 C.ar    1  UNL1        0.0015
      8 C         -10.9736  -17.6417   20.3413 C.ar    1  UNL1        0.0191
      9 C          -9.7922  -17.4613   21.2478 C.ar    1  UNL1        0.0824
     10 N          -9.7199  -16.2709   22.1577 N.ar    1  UNL1       -0.2453
     11 C          -8.5385  -16.0905   23.0642 C.ar    1  UNL1        0.0824
     12 C          -8.4662  -14.9002   23.9742 C.ar    1  UNL1        0.0191
     13 C          -7.2848  -14.7198   24.8806 C.ar    1  UNL1        0.0015
     14 C          -6.1757  -15.7296   24.8772 C.ar    1  UNL1        0.0001
     15 C          -6.2479  -16.9199   23.9672 C.ar    1  UNL1        0.0027
     16 C          -7.4294  -17.1003   23.0607 C.ar    1  UNL1        0.0311
     17 C          -3.8336  -18.8524   22.1123 C.ar    1  UNL1        0.1532
     18 C          -2.5730  -18.5792   21.3465 C.ar    1  UNL1        0.0540
     19 C          -2.6107  -18.4811   19.8502 C.ar    1  UNL1        0.0675
     20 C          -3.9090  -18.6560   19.1196 C.ar    1  UNL1        0.0173
     21 C          -5.1696  -18.9291   19.8853 C.ar    1  UNL1        0.0190
     22 C          -5.1319  -19.0273   21.3817 C.ar    1  UNL1        0.0828
     23 C          -3.1206  -17.8801   24.4136 C.3     1  UNL1        0.2525
     24 O          -3.7959  -18.9506   23.6086 O.3     1  UNL1       -0.4701
     25 N          -1.3501  -18.2079   19.0846 N.pl3   1  UNL1       -0.2186
     26 H          -1.3390  -18.3028   18.1047 H       1  UNL1        0.1734
     27 S          -0.1064  -17.7903   19.8118 S.O2    1  UNL1        0.0558
     28 C           1.1373  -17.3728   20.5390 C.3     1  UNL1        0.1996
     29 O           0.4713  -19.1598   19.6102 O.2     1  UNL1       -0.1544
     30 O          -0.6841  -16.4208   20.0134 O.2     1  UNL1       -0.1544
@<TRIPOS>BOND
     1    23    24    1
     2    24    17    1
     3    17    18   ar
     4    18    19   ar
     5    19    25    1
     6    25    27    1
     7    27    28    1
     8    27    29    2
     9    27    30    2
    10    19    20   ar
    11    20    21   ar
    12    21    22   ar
    13    22     1    1
    14     1     3    1
    15     3     4   ar
    16     4     5   ar
    17     5     6   ar
    18     6     7   ar
    19     7     8   ar
    20     8     9   ar
    21     9    10   ar
    22    10    11   ar
    23    11    12   ar
    24    12    13   ar
    25    13    14   ar
    26    14    15   ar
    27    15    16   ar
    28    22    17   ar
    29    16     3   ar
    30     9     4   ar
    31    16    11   ar
    32    25    26    1
    33     1     2    1
@<TRIPOS>MOLECULE
*****
 30 33 0 0 0
SMALL
GASTEIGER

@<TRIPOS>ATOM
      1 N          -6.3851  -19.3075   22.1646 N.pl3   1  UNL1       -0.3101
      2 H          -6.4926  -20.1512   22.6605 H       1  UNL1        0.1523
      3 C          -7.4810  -18.2835   22.1804 C.ar    1  UNL1        0.0512
      4 C          -7.3826  -17.0935   23.0884 C.ar    1  UNL1        0.0311
      5 C          -6.1882  -16.9277   23.9806 C.ar    1  UNL1        0.0027
      6 C          -6.0898  -15.7378   24.8885 C.ar    1  UNL1        0.0001
      7 C          -7.1857  -14.7138   24.9043 C.ar    1  UNL1        0.0015
      8 C          -8.3800  -14.8796   24.0122 C.ar    1  UNL1        0.0191
      9 C          -8.4785  -16.0695   23.1042 C.ar    1  UNL1        0.0824
     10 N          -9.6729  -16.2353   22.2120 N.ar    1  UNL1       -0.2453
     11 C          -9.7713  -17.4252   21.3041 C.ar    1  UNL1        0.0824
     12 C         -10.9657  -17.5911   20.4118 C.ar    1  UNL1        0.0191
     13 C         -11.0642  -18.7810   19.5039 C.ar    1  UNL1        0.0015
     14 C          -9.9683  -19.8050   19.4881 C.ar    1  UNL1        0.0001
     15 C          -8.7739  -19.6392   20.3802 C.ar    1  UNL1        0.0027
     16 C          -8.6754  -18.4493   21.2883 C.ar    1  UNL1        0.0311
     17 C          -3.8225  -18.8828   22.1180 C.ar    1  UNL1        0.1532
     18 C          -2.5628  -18.6214   21.3465 C.ar    1  UNL1        0.0540
     19 C          -2.6063  -18.5236   19.8504 C.ar    1  UNL1        0.0675
     20 C          -3.9094  -18.6871   19.1256 C.ar    1  UNL1        0.0173
     21 C          -5.1690  -18.9484   19.8970 C.ar    1  UNL1        0.0190
     22 C          -5.1255  -19.0462   21.3932 C.ar    1  UNL1        0.0828
     23 C          -3.0727  -17.9267   24.4145 C.3     1  UNL1        0.2525
     24 O          -3.7790  -18.9806   23.6141 O.3     1  UNL1       -0.4701
     25 N          -1.3467  -18.2623   19.0790 N.pl3   1  UNL1       -0.2186
     26 H          -1.3331  -18.3853   18.1023 H       1  UNL1        0.1734
     27 S          -0.1077  -17.8135   19.7957 S.O2    1  UNL1        0.0558
     28 C           1.1312  -17.3648   20.5124 C.3     1  UNL1        0.1996
     29 O           0.4933  -19.1751   19.6093 O.2     1  UNL1       -0.1544
     30 O          -0.7087  -16.4519   19.9821 O.2     1  UNL1       -0.1544
@<TRIPOS>BOND
     1    23    24    1
     2    24    17    1
     3    17    18   ar
     4    18    19   ar
     5    19    25    1
     6    25    27    1
     7    27    28    1
     8    27    29    2
     9    27    30    2
    10    19    20   ar
    11    20    21   ar
    12    21    22   ar
    13    22     1    1
    14     1     3    1
    15     3     4   ar
    16     4     5   ar
    17     5     6   ar
    18     6     7   ar
    19     7     8   ar
    20     8     9   ar
    21     9    10   ar
    22    10    11   ar
    23    11    12   ar
    24    12    13   ar
    25    13    14   ar
    26    14    15   ar
    27    15    16   ar
    28    22    17   ar
    29    16     3   ar
    30     9     4   ar
    31    16    11   ar
    32    25    26    1
    33     1     2    1
@<TRIPOS>MOLECULE
*****
 30 33 0 0 0
SMALL
GASTEIGER

@<TRIPOS>ATOM
      1 N          -8.0905  -17.5451   21.4037 N.pl3   1  UNL1       -0.3101
      2 H          -7.9650  -16.6432   21.0296 H       1  UNL1        0.1523
      3 C          -7.1659  -18.6574   21.0062 C.ar    1  UNL1        0.0512
      4 C          -5.7961  -18.7464   21.6111 C.ar    1  UNL1        0.0311
      5 C          -5.3510  -17.7232   22.6135 C.ar    1  UNL1        0.0027
      6 C          -3.9813  -17.8122   23.2184 C.ar    1  UNL1        0.0001
      7 C          -3.0567  -18.9244   22.8208 C.ar    1  UNL1        0.0015
      8 C          -3.5018  -19.9476   21.8184 C.ar    1  UNL1        0.0191
      9 C          -4.8715  -19.8586   21.2135 C.ar    1  UNL1        0.0824
     10 N          -5.3167  -20.8818   20.2110 N.ar    1  UNL1       -0.2453
     11 C          -6.6864  -20.7928   19.6062 C.ar    1  UNL1        0.0824
     12 C          -7.1316  -21.8160   18.6037 C.ar    1  UNL1        0.0191
     13 C          -8.5013  -21.7270   17.9988 C.ar    1  UNL1        0.0015
     14 C          -9.4259  -20.6148   18.3964 C.ar    1  UNL1        0.0001
     15 C          -8.9808  -19.5916   19.3988 C.ar    1  UNL1        0.0027
     16 C          -7.6110  -19.6806   20.0037 C.ar    1  UNL1        0.0311
     17 C         -10.4240  -16.9311   22.3669 C.ar    1  UNL1        0.1532
     18 C         -11.5399  -17.1931   23.3345 C.ar    1  UNL1        0.0540
     19 C         -11.4382  -18.3311   24.3063 C.ar    1  UNL1        0.0675
     20 C         -10.2206  -19.2072   24.3107 C.ar    1  UNL1        0.0173
     21 C          -9.1047  -18.9452   23.3432 C.ar    1  UNL1        0.0190
     22 C          -9.2064  -17.8071   22.3712 C.ar    1  UNL1        0.0828
     23 C         -11.2766  -15.9702   20.1086 C.3     1  UNL1        0.2525
     24 O         -10.5257  -15.7931   21.3950 O.3     1  UNL1       -0.4701
     25 N         -12.5541  -18.5931   25.2738 N.pl3   1  UNL1       -0.2186
     26 H         -12.3514  -18.7995   26.2149 H       1  UNL1        0.1734
     27 S         -13.9788  -18.5407   24.8076 S.O2    1  UNL1        0.0558
     28 C         -15.4035  -18.4882   24.3413 C.3     1  UNL1        0.1996
     29 O         -13.5104  -18.2938   23.4042 O.2     1  UNL1       -0.1544
     30 O         -14.4472  -18.7875   26.2110 O.2     1  UNL1       -0.1544
@<TRIPOS>BOND
     1    23    24    1
     2    24    17    1
     3    17    18   ar
     4    18    19   ar
     5    19    25    1
     6    25    27    1
     7    27    28    1
     8    27    29    2
     9    27    30    2
    10    19    20   ar
    11    20    21   ar
    12    21    22   ar
    13    22     1    1
    14     1     3    1
    15     3     4   ar
    16     4     5   ar
    17     5     6   ar
    18     6     7   ar
    19     7     8   ar
    20     8     9   ar
    21     9    10   ar
    22    10    11   ar
    23    11    12   ar
    24    12    13   ar
    25    13    14   ar
    26    14    15   ar
    27    15    16   ar
    28    22    17   ar
    29    16     3   ar
    30     9     4   ar
    31    16    11   ar
    32    25    26    1
    33     1     2    1
@<TRIPOS>MOLECULE
*****
 30 33 0 0 0
SMALL
GASTEIGER

@<TRIPOS>ATOM
      1 N          -8.2158  -17.5755   21.3919 N.pl3   1  UNL1       -0.3101
      2 H          -8.1088  -16.6744   21.0101 H       1  UNL1        0.1523
      3 C          -7.2670  -18.6712   21.0056 C.ar    1  UNL1        0.0512
      4 C          -7.6812  -19.7007   19.9962 C.ar    1  UNL1        0.0311
      5 C          -9.0440  -19.6343   19.3732 C.ar    1  UNL1        0.0027
      6 C          -9.4581  -20.6637   18.3638 C.ar    1  UNL1        0.0001
      7 C          -8.5093  -21.7595   17.9775 C.ar    1  UNL1        0.0015
      8 C          -7.1465  -21.8258   18.6006 C.ar    1  UNL1        0.0191
      9 C          -6.7324  -20.7964   19.6099 C.ar    1  UNL1        0.0824
     10 N          -5.3695  -20.8627   20.2331 N.ar    1  UNL1       -0.2453
     11 C          -4.9554  -19.8333   21.2424 C.ar    1  UNL1        0.0824
     12 C          -3.5925  -19.8996   21.8655 C.ar    1  UNL1        0.0191
     13 C          -3.1785  -18.8702   22.8749 C.ar    1  UNL1        0.0015
     14 C          -4.1272  -17.7745   23.2612 C.ar    1  UNL1        0.0001
     15 C          -5.4900  -17.7081   22.6381 C.ar    1  UNL1        0.0027
     16 C          -5.9042  -18.7376   21.6287 C.ar    1  UNL1        0.0311
     17 C         -10.5588  -16.9960   22.3534 C.ar    1  UNL1        0.1532
     18 C         -11.6705  -17.2732   23.3216 C.ar    1  UNL1        0.0540
     19 C         -11.5509  -18.4070   24.2964 C.ar    1  UNL1        0.0675
     20 C         -10.3195  -19.2636   24.3030 C.ar    1  UNL1        0.0173
     21 C          -9.2078  -18.9865   23.3349 C.ar    1  UNL1        0.0190
     22 C          -9.3275  -17.8526   22.3601 C.ar    1  UNL1        0.0828
     23 C         -11.5460  -16.0063   20.1635 C.3     1  UNL1        0.2525
     24 O         -10.6784  -15.8623   21.3786 O.3     1  UNL1       -0.4701
     25 N         -12.6626  -18.6842   25.2645 N.pl3   1  UNL1       -0.2186
     26 H         -12.4550  -18.9446   26.1909 H       1  UNL1        0.1734
     27 S         -14.0906  -18.5645   24.8210 S.O2    1  UNL1        0.0558
     28 C         -15.5185  -18.4449   24.3775 C.3     1  UNL1        0.1996
     29 O         -13.6328  -18.3122   23.4151 O.2     1  UNL1       -0.1544
     30 O         -14.5483  -18.8168   26.2270 O.2     1  UNL1       -0.1544
@<TRIPOS>BOND
     1    23    24    1
     2    24    17    1
     3    17    18   ar
     4    18    19   ar
     5    19    25    1
     6    25    27    1
     7    27    28    1
     8    27    29    2
     9    27    30    2
    10    19    20   ar
    11    20    21   ar
    12    21    22   ar
    13    22     1    1
    14     1     3    1
    15     3     4   ar
    16     4     5   ar
    17     5     6   ar
    18     6     7   ar
    19     7     8   ar
    20     8     9   ar
    21     9    10   ar
    22    10    11   ar
    23    11    12   ar
    24    12    13   ar
    25    13    14   ar
    26    14    15   ar
    27    15    16   ar
    28    22    17   ar
    29    16     3   ar
    30     9     4   ar
    31    16    11   ar
    32    25    26    1
    33     1     2    1
@<TRIPOS>MOLECULE
*****
 30 33 0 0 0
SMALL
GASTEIGER

@<TRIPOS>ATOM
      1 N           1.7654   -0.0788   19.8102 N.pl3   1  UNL1       -0.3101
      2 H           0.9339   -0.1461   19.2874 H       1  UNL1        0.1523
      3 C           3.0937   -0.2239   19.1287 C.ar    1  UNL1        0.0512
      4 C           3.7152   -1.5809   18.9783 C.ar    1  UNL1        0.0311
      5 C           3.0084   -2.7926   19.5095 C.ar    1  UNL1        0.0027
      6 C           3.6299   -4.1494   19.3592 C.ar    1  UNL1        0.0001
      7 C           4.9582   -4.2946   18.6777 C.ar    1  UNL1        0.0015
      8 C           5.6650   -3.0829   18.1465 C.ar    1  UNL1        0.0191
      9 C           5.0435   -1.7260   18.2968 C.ar    1  UNL1        0.0824
     10 N           5.7503   -0.5143   17.7656 N.ar    1  UNL1       -0.2453
     11 C           5.1288    0.8426   17.9160 C.ar    1  UNL1        0.0824
     12 C           5.8356    2.0543   17.3848 C.ar    1  UNL1        0.0191
     13 C           5.2141    3.4112   17.5351 C.ar    1  UNL1        0.0015
     14 C           3.8858    3.5564   18.2166 C.ar    1  UNL1        0.0001
     15 C           3.1790    2.3447   18.7478 C.ar    1  UNL1        0.0027
     16 C           3.8005    0.9877   18.5975 C.ar    1  UNL1        0.0311
     17 C           0.5958    1.0000   21.8640 C.ar    1  UNL1        0.1532
     18 C           0.5343    1.2477   23.3422 C.ar    1  UNL1        0.0540
     19 C           1.5809    0.6644   24.2446 C.ar    1  UNL1        0.0675
     20 C           2.6890   -0.1667   23.6688 C.ar    1  UNL1        0.0173
     21 C           2.7505   -0.4144   22.1907 C.ar    1  UNL1        0.0190
     22 C           1.7039    0.1690   21.2883 C.ar    1  UNL1        0.0828
     23 C          -0.2450    2.9384   20.3522 C.3     1  UNL1        0.2525
     24 O          -0.4508    1.5834   20.9617 O.3     1  UNL1       -0.4701
     25 N           1.5194    0.9121   25.7227 N.pl3   1  UNL1       -0.2186
     26 H           1.9418    0.2779   26.3461 H       1  UNL1        0.1734
     27 S           0.8144    2.1262   26.2510 S.O2    1  UNL1        0.0558
     28 C           0.1094    3.3402   26.7793 C.3     1  UNL1        0.1996
     29 O           1.9993    2.9717   25.8891 O.2     1  UNL1       -0.1544
     30 O          -0.3705    1.2806   26.6129 O.2     1  UNL1       -0.1544
@<TRIPOS>BOND
     1    23    24    1
     2    24    17    1
     3    17    18   ar
     4    18    19   ar
     5    19    25    1
     6    25    27    1
     7    27    28    1
     8    27    29    2
     9    27    30    2
    10    19    20   ar
    11    20    21   ar
    12    21    22   ar
    13    22     1    1
    14     1     3    1
    15     3     4   ar
    16     4     5   ar
    17     5     6   ar
    18     6     7   ar
    19     7     8   ar
    20     8     9   ar
    21     9    10   ar
    22    10    11   ar
    23    11    12   ar
    24    12    13   ar
    25    13    14   ar
    26    14    15   ar
    27    15    16   ar
    28    22    17   ar
    29    16     3   ar
    30     9     4   ar
    31    16    11   ar
    32    25    26    1
    33     1     2    1
