@<TRIPOS>MOLECULE
*****
 35 40 0 0 0
SMALL
GASTEIGER

@<TRIPOS>ATOM
      1 C          -7.8516    5.3374   24.1735 C.ar    1  UNL1        0.0176
      2 C          -6.8154    5.3358   25.2580 C.ar    1  UNL1        0.0046
      3 C          -5.4090    4.9142   24.9509 C.ar    1  UNL1        0.0370
      4 C          -5.0388    4.4942   23.5593 C.ar    1  UNL1        0.1409
      5 C          -6.0751    4.4958   22.4747 C.ar    1  UNL1        0.0688
      6 C          -7.4815    4.9174   22.7819 C.ar    1  UNL1        0.0074
      7 C          -5.7049    4.0759   21.0832 C.2     1  UNL1        0.1795
      8 O          -6.7412    4.0775   19.9986 O.2     1  UNL1       -0.2911
      9 C          -4.2985    3.6542   20.7760 C.3     1  UNL1        0.1092
     10 C          -3.2622    3.6526   21.8606 C.3     1  UNL1        0.1436
     11 C          -2.8921    3.2327   20.4690 C.3     1  UNL1        0.0620
     12 C          -1.4857    2.8111   20.1619 C.3     1  UNL1        0.0985
     13 N          -0.4495    2.8094   21.2464 N.am    1  UNL1       -0.2640
     14 C           0.9569    2.3878   20.9393 C.2     1  UNL1        0.3039
     15 O           1.9932    2.3862   22.0239 O.2     1  UNL1       -0.2526
     16 N           1.3271    1.9679   19.5477 N.am    1  UNL1       -0.2901
     17 C          -0.8196    3.2294   22.6380 C.3     1  UNL1        0.0985
     18 C          -2.2260    3.6510   22.9451 C.3     1  UNL1        0.0620
     19 O          -3.6325    4.0726   23.2522 O.3     1  UNL1       -0.4819
     20 H           0.6469    1.9689   18.8359 H       1  UNL1        0.1509
     21 C         -10.4135    3.3493   24.5394 C.3     1  UNL1        0.1537
     22 N         -10.4355    4.8452   24.6487 N.ar    1  UNL1       -0.2488
     23 N         -11.6391    5.6898   24.9454 N.ar    1  UNL1       -0.1676
     24 C         -11.2054    7.1257   24.9607 C.ar    1  UNL1        0.1217
     25 C          -9.7338    7.1684   24.6733 C.ar    1  UNL1        0.0412
     26 C          -9.2580    5.7590   24.4805 C.ar    1  UNL1        0.0795
     27 C           2.7335    1.5462   19.2406 C.3     1  UNL1        0.0774
     28 C           4.1568    1.9009   18.9271 C.3     1  UNL1        0.0259
     29 C           3.7461    0.4614   19.0222 C.3     1  UNL1        0.0420
     30 C           4.0936   -0.9960   18.9510 C.ar    1  UNL1       -0.0208
     31 C           5.3446   -1.4354   18.2496 C.ar    1  UNL1       -0.0042
     32 C           5.6920   -2.8929   18.1783 C.ar    1  UNL1       -0.0003
     33 C           4.7885   -3.9110   18.8086 C.ar    1  UNL1       -0.0000
     34 C           3.5375   -3.4716   19.5100 C.ar    1  UNL1       -0.0003
     35 C           3.1901   -2.0141   19.5812 C.ar    1  UNL1       -0.0042
@<TRIPOS>BOND
     1    21    22    1
     2    22    23   ar
     3    23    24   ar
     4    24    25   ar
     5    25    26   ar
     6    26     1    1
     7     1     2   ar
     8     2     3   ar
     9     3     4   ar
    10     4     5   ar
    11     5     6   ar
    12     5     7    1
    13     7     8    2
    14     7     9    1
    15     9    10    1
    16    10    11    1
    17    11    12    1
    18    12    13    1
    19    13    14   am
    20    14    15    2
    21    14    16   am
    22    27    16    1
    23    27    28    1
    24    28    29    1
    25    29    30    1
    26    30    31   ar
    27    31    32   ar
    28    32    33   ar
    29    33    34   ar
    30    34    35   ar
    31    13    17    1
    32    17    18    1
    33    10    19    1
    34    26    22   ar
    35     6     1   ar
    36    18    10    1
    37    19     4    1
    38    29    27    1
    39    35    30   ar
    40    16    20    1
@<TRIPOS>MOLECULE
*****
 35 40 0 0 0
SMALL
GASTEIGER

@<TRIPOS>ATOM
      1 C           3.9014    1.5049   36.5793 C.ar    1  UNL1        0.0176
      2 C           4.7264    0.2555   36.6717 C.ar    1  UNL1        0.0046
      3 C           5.0915   -0.4960   35.4260 C.ar    1  UNL1        0.0370
      4 C           4.6316    0.0018   34.0877 C.ar    1  UNL1        0.1409
      5 C           3.8066    1.2511   33.9953 C.ar    1  UNL1        0.0688
      6 C           3.4415    2.0026   35.2411 C.ar    1  UNL1        0.0074
      7 C           3.3467    1.7489   32.6572 C.2     1  UNL1        0.1795
      8 O           2.5216    2.9982   32.5648 O.2     1  UNL1       -0.2911
      9 C           3.7118    0.9974   31.4114 C.3     1  UNL1        0.1092
     10 C           4.5368   -0.2519   31.5038 C.3     1  UNL1        0.1436
     11 C           4.0769    0.2459   30.1657 C.3     1  UNL1        0.0620
     12 C           4.4420   -0.5057   28.9200 C.3     1  UNL1        0.0985
     13 N           5.2671   -1.7550   29.0124 N.am    1  UNL1       -0.2640
     14 C           5.6322   -2.5065   27.7666 C.2     1  UNL1        0.3039
     15 O           6.4572   -3.7558   27.8590 O.2     1  UNL1       -0.2526
     16 N           5.1723   -2.0087   26.4284 N.am    1  UNL1       -0.2901
     17 C           5.7270   -2.2528   30.3505 C.3     1  UNL1        0.0985
     18 C           5.3618   -1.5012   31.5962 C.3     1  UNL1        0.0620
     19 O           4.9967   -0.7497   32.8420 O.3     1  UNL1       -0.4819
     20 H           4.6308   -1.1887   26.3678 H       1  UNL1        0.1509
     21 C           1.6319    0.6266   38.7535 C.3     1  UNL1        0.1537
     22 N           2.4931    1.8527   38.8244 N.ar    1  UNL1       -0.2488
     23 N           2.4623    2.8903   39.9071 N.ar    1  UNL1       -0.1676
     24 C           3.4865    3.9354   39.5769 C.ar    1  UNL1        0.1217
     25 C           4.1502    3.5436   38.2901 C.ar    1  UNL1        0.0412
     26 C           3.5363    2.2564   37.8250 C.ar    1  UNL1        0.0795
     27 C           5.5374   -2.7602   25.1826 C.3     1  UNL1        0.0774
     28 C           6.3830   -3.7828   24.4832 C.3     1  UNL1        0.0259
     29 C           5.3242   -3.0393   23.7243 C.3     1  UNL1        0.0420
     30 C           4.5897   -2.7711   22.4442 C.ar    1  UNL1       -0.0208
     31 C           3.8132   -1.4986   22.2775 C.ar    1  UNL1       -0.0042
     32 C           3.0788   -1.2304   20.9974 C.ar    1  UNL1       -0.0003
     33 C           3.1209   -2.2347   19.8840 C.ar    1  UNL1       -0.0000
     34 C           3.8974   -3.5072   20.0507 C.ar    1  UNL1       -0.0003
     35 C           4.6319   -3.7753   21.3309 C.ar    1  UNL1       -0.0042
@<TRIPOS>BOND
     1    21    22    1
     2    22    23   ar
     3    23    24   ar
     4    24    25   ar
     5    25    26   ar
     6    26     1    1
     7     1     2   ar
     8     2     3   ar
     9     3     4   ar
    10     4     5   ar
    11     5     6   ar
    12     5     7    1
    13     7     8    2
    14     7     9    1
    15     9    10    1
    16    10    11    1
    17    11    12    1
    18    12    13    1
    19    13    14   am
    20    14    15    2
    21    14    16   am
    22    27    16    1
    23    27    28    1
    24    28    29    1
    25    29    30    1
    26    30    31   ar
    27    31    32   ar
    28    32    33   ar
    29    33    34   ar
    30    34    35   ar
    31    13    17    1
    32    17    18    1
    33    10    19    1
    34    26    22   ar
    35     6     1   ar
    36    18    10    1
    37    19     4    1
    38    29    27    1
    39    35    30   ar
    40    16    20    1
@<TRIPOS>MOLECULE
*****
 35 40 0 0 0
SMALL
GASTEIGER

@<TRIPOS>ATOM
      1 C           3.4177    1.9608   34.5769 C.ar    1  UNL1        0.0176
      2 C           4.8698    1.5873   34.6207 C.ar    1  UNL1        0.0046
      3 C           5.4979    0.8806   33.4562 C.ar    1  UNL1        0.0370
      4 C           4.6738    0.5475   32.2478 C.ar    1  UNL1        0.1409
      5 C           3.2217    0.9210   32.2040 C.ar    1  UNL1        0.0688
      6 C           2.5937    1.6277   33.3686 C.ar    1  UNL1        0.0074
      7 C           2.3977    0.5879   30.9958 C.2     1  UNL1        0.1795
      8 O           0.9456    0.9614   30.9520 O.2     1  UNL1       -0.2911
      9 C           3.0258   -0.1188   29.8311 C.3     1  UNL1        0.1092
     10 C           4.4779   -0.4923   29.8749 C.3     1  UNL1        0.1436
     11 C           3.6539   -0.8254   28.6666 C.3     1  UNL1        0.0620
     12 C           4.2820   -1.5320   27.5021 C.3     1  UNL1        0.0985
     13 N           5.7340   -1.9055   27.5459 N.am    1  UNL1       -0.2640
     14 C           6.3621   -2.6122   26.3812 C.2     1  UNL1        0.3039
     15 O           7.8142   -2.9857   26.4250 O.2     1  UNL1       -0.2526
     16 N           5.5381   -2.9453   25.1730 N.am    1  UNL1       -0.2901
     17 C           6.5581   -1.5724   28.7541 C.3     1  UNL1        0.0985
     18 C           5.9300   -0.8658   29.9187 C.3     1  UNL1        0.0620
     19 O           5.3019   -0.1591   31.0833 O.3     1  UNL1       -0.4819
     20 H           4.5850   -2.7001   25.1443 H       1  UNL1        0.1509
     21 C           3.4683    0.9595   37.6824 C.3     1  UNL1        0.1537
     22 N           2.8129    2.2071   37.1689 N.ar    1  UNL1       -0.2488
     23 N           2.0656    3.2136   37.9927 N.ar    1  UNL1       -0.1676
     24 C           1.5805    4.2960   37.0743 C.ar    1  UNL1        0.1217
     25 C           2.0280    3.9583   35.6830 C.ar    1  UNL1        0.0412
     26 C           2.7896    2.6674   35.7414 C.ar    1  UNL1        0.0795
     27 C           6.1662   -3.6520   24.0084 C.3     1  UNL1        0.0774
     28 C           7.1692   -4.6277   23.4682 C.3     1  UNL1        0.0259
     29 C           6.2510   -3.9001   22.5315 C.3     1  UNL1        0.0420
     30 C           5.7698   -3.6233   21.1380 C.ar    1  UNL1       -0.0208
     31 C           6.7106   -3.0509   20.1195 C.ar    1  UNL1       -0.0042
     32 C           6.2295   -2.7741   18.7260 C.ar    1  UNL1       -0.0003
     33 C           4.8074   -3.0696   18.3510 C.ar    1  UNL1       -0.0000
     34 C           3.8667   -3.6420   19.3695 C.ar    1  UNL1       -0.0003
     35 C           4.3479   -3.9189   20.7630 C.ar    1  UNL1       -0.0042
@<TRIPOS>BOND
     1    21    22    1
     2    22    23   ar
     3    23    24   ar
     4    24    25   ar
     5    25    26   ar
     6    26     1    1
     7     1     2   ar
     8     2     3   ar
     9     3     4   ar
    10     4     5   ar
    11     5     6   ar
    12     5     7    1
    13     7     8    2
    14     7     9    1
    15     9    10    1
    16    10    11    1
    17    11    12    1
    18    12    13    1
    19    13    14   am
    20    14    15    2
    21    14    16   am
    22    27    16    1
    23    27    28    1
    24    28    29    1
    25    29    30    1
    26    30    31   ar
    27    31    32   ar
    28    32    33   ar
    29    33    34   ar
    30    34    35   ar
    31    13    17    1
    32    17    18    1
    33    10    19    1
    34    26    22   ar
    35     6     1   ar
    36    18    10    1
    37    19     4    1
    38    29    27    1
    39    35    30   ar
    40    16    20    1
@<TRIPOS>MOLECULE
*****
 35 40 0 0 0
SMALL
GASTEIGER

@<TRIPOS>ATOM
      1 C           4.3273    0.9510   35.0434 C.ar    1  UNL1        0.0176
      2 C           5.6283    0.2575   34.7670 C.ar    1  UNL1        0.0046
      3 C           5.9143   -0.2820   33.3969 C.ar    1  UNL1        0.0370
      4 C           4.8992   -0.1281   32.3033 C.ar    1  UNL1        0.1409
      5 C           3.5982    0.5654   32.5797 C.ar    1  UNL1        0.0688
      6 C           3.3122    1.1050   33.9499 C.ar    1  UNL1        0.0074
      7 C           2.5831    0.7194   31.4862 C.2     1  UNL1        0.1795
      8 O           1.2821    1.4129   31.7626 O.2     1  UNL1       -0.2911
      9 C           2.8691    0.1798   30.1160 C.3     1  UNL1        0.1092
     10 C           4.1701   -0.5137   29.8395 C.3     1  UNL1        0.1436
     11 C           3.1551   -0.3597   28.7460 C.3     1  UNL1        0.0620
     12 C           3.4410   -0.8992   27.3759 C.3     1  UNL1        0.0985
     13 N           4.7420   -1.5927   27.0995 N.am    1  UNL1       -0.2640
     14 C           5.0280   -2.1323   25.7293 C.2     1  UNL1        0.3039
     15 O           6.3290   -2.8258   25.4528 O.2     1  UNL1       -0.2526
     16 N           4.0130   -1.9783   24.6357 N.am    1  UNL1       -0.2901
     17 C           5.7571   -1.7467   28.1930 C.3     1  UNL1        0.0985
     18 C           5.4711   -1.2071   29.5631 C.3     1  UNL1        0.0620
     19 O           5.1852   -0.6676   30.9332 O.3     1  UNL1       -0.4819
     20 H           3.1591   -1.5232   24.8172 H       1  UNL1        0.1509
     21 C           4.3282    4.0988   35.9040 C.3     1  UNL1        0.1537
     22 N           4.0417    2.9374   36.8090 N.ar    1  UNL1       -0.2488
     23 N           3.7054    3.0191   38.2685 N.ar    1  UNL1       -0.1676
     24 C           3.4971    1.6226   38.7751 C.ar    1  UNL1        0.1217
     25 C           3.7047    0.6779   37.6286 C.ar    1  UNL1        0.0412
     26 C           4.0413    1.4906   36.4135 C.ar    1  UNL1        0.0795
     27 C           4.2989   -2.5179   23.2656 C.3     1  UNL1        0.0774
     28 C           4.8729   -3.5874   22.3844 C.3     1  UNL1        0.0259
     29 C           4.2201   -2.3829   21.7738 C.3     1  UNL1        0.0420
     30 C           3.7978   -1.6094   20.5600 C.ar    1  UNL1       -0.0208
     31 C           2.4228   -1.0140   20.4910 C.ar    1  UNL1       -0.0042
     32 C           2.0004   -0.2405   19.2772 C.ar    1  UNL1       -0.0003
     33 C           2.9531   -0.0626   18.1322 C.ar    1  UNL1       -0.0000
     34 C           4.3281   -0.6581   18.2012 C.ar    1  UNL1       -0.0003
     35 C           4.7504   -1.4315   19.4151 C.ar    1  UNL1       -0.0042
@<TRIPOS>BOND
     1    21    22    1
     2    22    23   ar
     3    23    24   ar
     4    24    25   ar
     5    25    26   ar
     6    26     1    1
     7     1     2   ar
     8     2     3   ar
     9     3     4   ar
    10     4     5   ar
    11     5     6   ar
    12     5     7    1
    13     7     8    2
    14     7     9    1
    15     9    10    1
    16    10    11    1
    17    11    12    1
    18    12    13    1
    19    13    14   am
    20    14    15    2
    21    14    16   am
    22    27    16    1
    23    27    28    1
    24    28    29    1
    25    29    30    1
    26    30    31   ar
    27    31    32   ar
    28    32    33   ar
    29    33    34   ar
    30    34    35   ar
    31    13    17    1
    32    17    18    1
    33    10    19    1
    34    26    22   ar
    35     6     1   ar
    36    18    10    1
    37    19     4    1
    38    29    27    1
    39    35    30   ar
    40    16    20    1
@<TRIPOS>MOLECULE
*****
 35 40 0 0 0
SMALL
GASTEIGER

@<TRIPOS>ATOM
      1 C           5.2943   -3.1562   22.4519 C.ar    1  UNL1        0.0176
      2 C           6.3424   -3.9619   23.1605 C.ar    1  UNL1        0.0046
      3 C           6.5403   -3.8008   24.6386 C.ar    1  UNL1        0.0370
      4 C           5.6899   -2.8339   25.4082 C.ar    1  UNL1        0.1409
      5 C           4.6418   -2.0282   24.6995 C.ar    1  UNL1        0.0688
      6 C           4.4440   -2.1894   23.2214 C.ar    1  UNL1        0.0074
      7 C           3.7915   -1.0613   25.4690 C.2     1  UNL1        0.1795
      8 O           2.7433   -0.2556   24.7604 O.2     1  UNL1       -0.2911
      9 C           3.9893   -0.9002   26.9472 C.3     1  UNL1        0.1092
     10 C           5.0374   -1.7059   27.6558 C.3     1  UNL1        0.1436
     11 C           4.1871   -0.7391   28.4253 C.3     1  UNL1        0.0620
     12 C           4.3850   -0.5779   29.9034 C.3     1  UNL1        0.0985
     13 N           5.4331   -1.3836   30.6121 N.am    1  UNL1       -0.2640
     14 C           5.6309   -1.2225   32.0902 C.2     1  UNL1        0.3039
     15 O           6.6791   -2.0282   32.7989 O.2     1  UNL1       -0.2526
     16 N           4.7806   -0.2556   32.8597 N.am    1  UNL1       -0.2901
     17 C           6.2834   -2.3505   29.8426 C.3     1  UNL1        0.0985
     18 C           6.0856   -2.5116   28.3645 C.3     1  UNL1        0.0620
     19 O           5.8878   -2.6728   26.8863 O.3     1  UNL1       -0.4819
     20 H           4.0927    0.2732   32.3946 H       1  UNL1        0.1509
     21 C           6.7839   -1.4293   20.1178 C.3     1  UNL1        0.1537
     22 N           5.7812   -2.5236   19.9009 N.ar    1  UNL1       -0.2488
     23 N           5.2871   -3.0162   18.5731 N.ar    1  UNL1       -0.1676
     24 C           4.2969   -4.1144   18.8253 C.ar    1  UNL1        0.1217
     25 C           4.1791   -4.3005   20.3090 C.ar    1  UNL1        0.0412
     26 C           5.0964   -3.3173   20.9738 C.ar    1  UNL1        0.0795
     27 C           4.9784   -0.0945   34.3379 C.3     1  UNL1        0.0774
     28 C           5.7329   -0.4258   35.5913 C.3     1  UNL1        0.0259
     29 C           4.5666    0.5160   35.6447 C.3     1  UNL1        0.0420
     30 C           3.6555    1.4121   36.4300 C.ar    1  UNL1       -0.0208
     31 C           3.1159    2.6652   35.8066 C.ar    1  UNL1       -0.0042
     32 C           2.2048    3.5613   36.5919 C.ar    1  UNL1       -0.0003
     33 C           1.8332    3.2044   38.0007 C.ar    1  UNL1       -0.0000
     34 C           2.3729    1.9514   38.6241 C.ar    1  UNL1       -0.0003
     35 C           3.2840    1.0552   37.8388 C.ar    1  UNL1       -0.0042
@<TRIPOS>BOND
     1    21    22    1
     2    22    23   ar
     3    23    24   ar
     4    24    25   ar
     5    25    26   ar
     6    26     1    1
     7     1     2   ar
     8     2     3   ar
     9     3     4   ar
    10     4     5   ar
    11     5     6   ar
    12     5     7    1
    13     7     8    2
    14     7     9    1
    15     9    10    1
    16    10    11    1
    17    11    12    1
    18    12    13    1
    19    13    14   am
    20    14    15    2
    21    14    16   am
    22    27    16    1
    23    27    28    1
    24    28    29    1
    25    29    30    1
    26    30    31   ar
    27    31    32   ar
    28    32    33   ar
    29    33    34   ar
    30    34    35   ar
    31    13    17    1
    32    17    18    1
    33    10    19    1
    34    26    22   ar
    35     6     1   ar
    36    18    10    1
    37    19     4    1
    38    29    27    1
    39    35    30   ar
    40    16    20    1
@<TRIPOS>MOLECULE
*****
 35 40 0 0 0
SMALL
GASTEIGER

@<TRIPOS>ATOM
      1 C          -0.3509    3.0165   19.2576 C.ar    1  UNL1        0.0176
      2 C           0.3209    2.1241   18.2564 C.ar    1  UNL1        0.0046
      3 C           1.2682    1.0573   18.7193 C.ar    1  UNL1        0.0370
      4 C           1.5438    0.8827   20.1835 C.ar    1  UNL1        0.1409
      5 C           0.8720    1.7751   21.1847 C.ar    1  UNL1        0.0688
      6 C          -0.0754    2.8420   20.7217 C.ar    1  UNL1        0.0074
      7 C           1.1475    1.6006   22.6488 C.2     1  UNL1        0.1795
      8 O           0.4757    2.4930   23.6499 O.2     1  UNL1       -0.2911
      9 C           2.0949    0.5337   23.1117 C.3     1  UNL1        0.1092
     10 C           2.7667   -0.3587   22.1106 C.3     1  UNL1        0.1436
     11 C           3.0422   -0.5331   23.5747 C.3     1  UNL1        0.0620
     12 C           3.9895   -1.6000   24.0376 C.3     1  UNL1        0.0985
     13 N           4.6613   -2.4924   23.0364 N.am    1  UNL1       -0.2640
     14 C           5.6087   -3.5593   23.4994 C.2     1  UNL1        0.3039
     15 O           6.2805   -4.4517   22.4982 O.2     1  UNL1       -0.2526
     16 N           5.8842   -3.7338   24.9634 N.am    1  UNL1       -0.2901
     17 C           4.3858   -2.3179   21.5723 C.3     1  UNL1        0.0985
     18 C           3.4385   -1.2510   21.1094 C.3     1  UNL1        0.0620
     19 O           2.4911   -0.1841   20.6464 O.3     1  UNL1       -0.4819
     20 H           5.4433   -3.1481   25.6205 H       1  UNL1        0.1509
     21 C          -3.4628    3.3510   20.1815 C.3     1  UNL1        0.1537
     22 N          -2.7286    4.2371   19.2194 N.ar    1  UNL1       -0.2488
     23 N          -3.2959    5.4326   18.5130 N.ar    1  UNL1       -0.1676
     24 C          -2.2161    6.0177   17.6517 C.ar    1  UNL1        0.1217
     25 C          -0.9815    5.1839   17.8258 C.ar    1  UNL1        0.0412
     26 C          -1.2982    4.0834   18.7947 C.ar    1  UNL1        0.0795
     27 C           6.8316   -4.8007   25.4264 C.3     1  UNL1        0.0774
     28 C           7.7921   -5.9096   25.1142 C.3     1  UNL1        0.0259
     29 C           7.5119   -5.5396   26.5405 C.3     1  UNL1        0.0420
     30 C           7.7428   -5.7526   28.0072 C.ar    1  UNL1       -0.0208
     31 C           6.6870   -5.3595   28.9976 C.ar    1  UNL1       -0.0042
     32 C           6.9179   -5.5724   30.4643 C.ar    1  UNL1       -0.0003
     33 C           8.2048   -6.1785   30.9407 C.ar    1  UNL1       -0.0000
     34 C           9.2606   -6.5715   29.9504 C.ar    1  UNL1       -0.0003
     35 C           9.0296   -6.3585   28.4836 C.ar    1  UNL1       -0.0042
@<TRIPOS>BOND
     1    21    22    1
     2    22    23   ar
     3    23    24   ar
     4    24    25   ar
     5    25    26   ar
     6    26     1    1
     7     1     2   ar
     8     2     3   ar
     9     3     4   ar
    10     4     5   ar
    11     5     6   ar
    12     5     7    1
    13     7     8    2
    14     7     9    1
    15     9    10    1
    16    10    11    1
    17    11    12    1
    18    12    13    1
    19    13    14   am
    20    14    15    2
    21    14    16   am
    22    27    16    1
    23    27    28    1
    24    28    29    1
    25    29    30    1
    26    30    31   ar
    27    31    32   ar
    28    32    33   ar
    29    33    34   ar
    30    34    35   ar
    31    13    17    1
    32    17    18    1
    33    10    19    1
    34    26    22   ar
    35     6     1   ar
    36    18    10    1
    37    19     4    1
    38    29    27    1
    39    35    30   ar
    40    16    20    1
@<TRIPOS>MOLECULE
*****
 35 40 0 0 0
SMALL
GASTEIGER

@<TRIPOS>ATOM
      1 C          -0.3892    5.7154   32.5937 C.ar    1  UNL1        0.0176
      2 C          -0.5680    6.4776   31.3143 C.ar    1  UNL1        0.0046
      3 C          -0.1739    5.8538   30.0083 C.ar    1  UNL1        0.0370
      4 C           0.3990    4.4677   29.9818 C.ar    1  UNL1        0.1409
      5 C           0.5778    3.7055   31.2613 C.ar    1  UNL1        0.0688
      6 C           0.1837    4.3294   32.5673 C.ar    1  UNL1        0.0074
      7 C           1.1507    2.3195   31.2349 C.2     1  UNL1        0.1795
      8 O           1.3295    1.5573   32.5143 O.2     1  UNL1       -0.2911
      9 C           1.5448    1.6956   29.9289 C.3     1  UNL1        0.1092
     10 C           1.3660    2.4578   28.6494 C.3     1  UNL1        0.1436
     11 C           1.9389    1.0718   28.6229 C.3     1  UNL1        0.0620
     12 C           2.3329    0.4480   27.3170 C.3     1  UNL1        0.0985
     13 N           2.1542    1.2102   26.0375 N.am    1  UNL1       -0.2640
     14 C           2.5483    0.5863   24.7315 C.2     1  UNL1        0.3039
     15 O           2.3695    1.3485   23.4520 O.2     1  UNL1       -0.2526
     16 N           3.1211   -0.7997   24.7051 N.am    1  UNL1       -0.2901
     17 C           1.5813    2.5962   26.0640 C.3     1  UNL1        0.0985
     18 C           1.1872    3.2200   27.3699 C.3     1  UNL1        0.0620
     19 O           0.7931    3.8439   28.6759 O.3     1  UNL1       -0.4819
     20 H           3.2385   -1.2999   25.5449 H       1  UNL1        0.1509
     21 C           1.4813    5.9291   35.2592 C.3     1  UNL1        0.1537
     22 N           0.0765    6.4374   35.1249 N.ar    1  UNL1       -0.2488
     23 N          -0.7151    7.1333   36.1921 N.ar    1  UNL1       -0.1676
     24 C          -2.0643    7.4651   35.6266 C.ar    1  UNL1        0.1217
     25 C          -2.1063    6.9744   34.2097 C.ar    1  UNL1        0.0412
     26 C          -0.7833    6.3392   33.8997 C.ar    1  UNL1        0.0795
     27 C           3.5153   -1.4236   23.3991 C.3     1  UNL1        0.0774
     28 C           4.2485   -2.4867   22.6362 C.3     1  UNL1        0.0259
     29 C           3.4646   -1.4410   21.9001 C.3     1  UNL1        0.0420
     30 C           2.9828   -0.8473   20.6096 C.ar    1  UNL1       -0.0208
     31 C           1.5695   -0.3592   20.4901 C.ar    1  UNL1       -0.0042
     32 C           1.0877    0.2345   19.1996 C.ar    1  UNL1       -0.0003
     33 C           2.0192    0.3401   18.0286 C.ar    1  UNL1       -0.0000
     34 C           3.4325   -0.1480   18.1481 C.ar    1  UNL1       -0.0003
     35 C           3.9143   -0.7417   19.4387 C.ar    1  UNL1       -0.0042
@<TRIPOS>BOND
     1    21    22    1
     2    22    23   ar
     3    23    24   ar
     4    24    25   ar
     5    25    26   ar
     6    26     1    1
     7     1     2   ar
     8     2     3   ar
     9     3     4   ar
    10     4     5   ar
    11     5     6   ar
    12     5     7    1
    13     7     8    2
    14     7     9    1
    15     9    10    1
    16    10    11    1
    17    11    12    1
    18    12    13    1
    19    13    14   am
    20    14    15    2
    21    14    16   am
    22    27    16    1
    23    27    28    1
    24    28    29    1
    25    29    30    1
    26    30    31   ar
    27    31    32   ar
    28    32    33   ar
    29    33    34   ar
    30    34    35   ar
    31    13    17    1
    32    17    18    1
    33    10    19    1
    34    26    22   ar
    35     6     1   ar
    36    18    10    1
    37    19     4    1
    38    29    27    1
    39    35    30   ar
    40    16    20    1
@<TRIPOS>MOLECULE
*****
 35 40 0 0 0
SMALL
GASTEIGER

@<TRIPOS>ATOM
      1 C           3.8874   -1.9336   21.6874 C.ar    1  UNL1        0.0176
      2 C           2.7858   -0.9173   21.6255 C.ar    1  UNL1        0.0046
      3 C           2.3626   -0.1933   22.8692 C.ar    1  UNL1        0.0370
      4 C           3.0408   -0.4856   24.1748 C.ar    1  UNL1        0.1409
      5 C           4.1424   -1.5019   24.2367 C.ar    1  UNL1        0.0688
      6 C           4.5656   -2.2259   22.9930 C.ar    1  UNL1        0.0074
      7 C           4.8206   -1.7942   25.5423 C.2     1  UNL1        0.1795
      8 O           5.9221   -2.8105   25.6042 O.2     1  UNL1       -0.2911
      9 C           4.3974   -1.0702   26.7860 C.3     1  UNL1        0.1092
     10 C           3.2958   -0.0539   26.7241 C.3     1  UNL1        0.1436
     11 C           3.9741   -0.3462   28.0296 C.3     1  UNL1        0.0620
     12 C           3.5508    0.3778   29.2732 C.3     1  UNL1        0.0985
     13 N           2.4493    1.3940   29.2113 N.am    1  UNL1       -0.2640
     14 C           2.0261    2.1180   30.4551 C.2     1  UNL1        0.3039
     15 O           0.9245    3.1343   30.3931 O.2     1  UNL1       -0.2526
     16 N           2.7043    1.8257   31.7606 N.am    1  UNL1       -0.2901
     17 C           1.7711    1.6863   27.9058 C.3     1  UNL1        0.0985
     18 C           2.1943    0.9624   26.6622 C.3     1  UNL1        0.0620
     19 O           2.6176    0.2384   25.4184 O.3     1  UNL1       -0.4819
     20 H           3.4273    1.1587   31.8012 H       1  UNL1        0.1509
     21 C           5.6322   -0.6737   19.2344 C.3     1  UNL1        0.1537
     22 N           5.1127   -2.0784   19.3163 N.ar    1  UNL1       -0.2488
     23 N           5.3039   -3.1507   18.2850 N.ar    1  UNL1       -0.1676
     24 C           4.6201   -4.3926   18.7751 C.ar    1  UNL1        0.1217
     25 C           4.0062   -4.0877   20.1093 C.ar    1  UNL1        0.0412
     26 C           4.3106   -2.6575   20.4438 C.ar    1  UNL1        0.0795
     27 C           2.2811    2.5497   33.0043 C.3     1  UNL1        0.0774
     28 C           1.4843    3.6325   33.6696 C.3     1  UNL1        0.0259
     29 C           2.3448    2.7208   34.4932 C.3     1  UNL1        0.0420
     30 C           2.8784    2.2933   35.8282 C.ar    1  UNL1       -0.0208
     31 C           3.8439    1.1489   35.9185 C.ar    1  UNL1       -0.0042
     32 C           4.3775    0.7213   37.2535 C.ar    1  UNL1       -0.0003
     33 C           3.9456    1.4382   38.4984 C.ar    1  UNL1       -0.0000
     34 C           2.9801    2.5826   38.4081 C.ar    1  UNL1       -0.0003
     35 C           2.4465    3.0101   37.0730 C.ar    1  UNL1       -0.0042
@<TRIPOS>BOND
     1    21    22    1
     2    22    23   ar
     3    23    24   ar
     4    24    25   ar
     5    25    26   ar
     6    26     1    1
     7     1     2   ar
     8     2     3   ar
     9     3     4   ar
    10     4     5   ar
    11     5     6   ar
    12     5     7    1
    13     7     8    2
    14     7     9    1
    15     9    10    1
    16    10    11    1
    17    11    12    1
    18    12    13    1
    19    13    14   am
    20    14    15    2
    21    14    16   am
    22    27    16    1
    23    27    28    1
    24    28    29    1
    25    29    30    1
    26    30    31   ar
    27    31    32   ar
    28    32    33   ar
    29    33    34   ar
    30    34    35   ar
    31    13    17    1
    32    17    18    1
    33    10    19    1
    34    26    22   ar
    35     6     1   ar
    36    18    10    1
    37    19     4    1
    38    29    27    1
    39    35    30   ar
    40    16    20    1
@<TRIPOS>MOLECULE
*****
 35 40 0 0 0
SMALL
GASTEIGER

@<TRIPOS>ATOM
      1 C           6.4063   -3.5499   22.9769 C.ar    1  UNL1        0.0176
      2 C           6.2015   -2.6300   24.1439 C.ar    1  UNL1        0.0046
      3 C           5.1093   -1.6026   24.1064 C.ar    1  UNL1        0.0370
      4 C           4.2218   -1.4951   22.9018 C.ar    1  UNL1        0.1409
      5 C           4.4266   -2.4149   21.7349 C.ar    1  UNL1        0.0688
      6 C           5.5189   -3.4424   21.7724 C.ar    1  UNL1        0.0074
      7 C           3.5392   -2.3074   20.5303 C.2     1  UNL1        0.1795
      8 O           3.7440   -3.2273   19.3633 O.2     1  UNL1       -0.2911
      9 C           2.4469   -1.2800   20.4928 C.3     1  UNL1        0.1092
     10 C           2.2421   -0.3601   21.6598 C.3     1  UNL1        0.1436
     11 C           1.3547   -0.2526   20.4553 C.3     1  UNL1        0.0620
     12 C           0.2625    0.7748   20.4177 C.3     1  UNL1        0.0985
     13 N           0.0577    1.6947   21.5847 N.am    1  UNL1       -0.2640
     14 C          -1.0346    2.7222   21.5472 C.2     1  UNL1        0.3039
     15 O          -1.2394    3.6420   22.7142 O.2     1  UNL1       -0.2526
     16 N          -1.9220    2.8297   20.3427 N.am    1  UNL1       -0.2901
     17 C           0.9451    1.5872   22.7893 C.3     1  UNL1        0.0985
     18 C           2.0373    0.5598   22.8268 C.3     1  UNL1        0.0620
     19 O           3.1296   -0.4677   22.8643 O.3     1  UNL1       -0.4819
     20 H          -1.7876    2.2259   19.5767 H       1  UNL1        0.1509
     21 C           8.8899   -3.7868   20.8734 C.3     1  UNL1        0.1537
     22 N           8.6401   -4.6862   22.0476 N.ar    1  UNL1       -0.2488
     23 N           9.4881   -5.8524   22.4610 N.ar    1  UNL1       -0.1676
     24 C           8.8706   -6.4643   23.6834 C.ar    1  UNL1        0.1217
     25 C           7.6410   -5.6762   24.0254 C.ar    1  UNL1        0.0412
     26 C           7.4985   -4.5773   23.0144 C.ar    1  UNL1        0.0795
     27 C          -3.0143    3.8571   20.3051 C.3     1  UNL1        0.0774
     28 C          -3.7363    4.9600   19.5892 C.3     1  UNL1        0.0259
     29 C          -4.1842    4.5338   20.9559 C.3     1  UNL1        0.0420
     30 C          -5.1182    4.6784   22.1206 C.ar    1  UNL1       -0.0208
     31 C          -4.6135    5.2241   23.4235 C.ar    1  UNL1       -0.0042
     32 C          -5.5475    5.3688   24.5882 C.ar    1  UNL1       -0.0003
     33 C          -6.9863    4.9676   24.4501 C.ar    1  UNL1       -0.0000
     34 C          -7.4910    4.4219   23.1473 C.ar    1  UNL1       -0.0003
     35 C          -6.5569    4.2773   21.9825 C.ar    1  UNL1       -0.0042
@<TRIPOS>BOND
     1    21    22    1
     2    22    23   ar
     3    23    24   ar
     4    24    25   ar
     5    25    26   ar
     6    26     1    1
     7     1     2   ar
     8     2     3   ar
     9     3     4   ar
    10     4     5   ar
    11     5     6   ar
    12     5     7    1
    13     7     8    2
    14     7     9    1
    15     9    10    1
    16    10    11    1
    17    11    12    1
    18    12    13    1
    19    13    14   am
    20    14    15    2
    21    14    16   am
    22    27    16    1
    23    27    28    1
    24    28    29    1
    25    29    30    1
    26    30    31   ar
    27    31    32   ar
    28    32    33   ar
    29    33    34   ar
    30    34    35   ar
    31    13    17    1
    32    17    18    1
    33    10    19    1
    34    26    22   ar
    35     6     1   ar
    36    18    10    1
    37    19     4    1
    38    29    27    1
    39    35    30   ar
    40    16    20    1
