@<TRIPOS>MOLECULE
*****
 33 38 0 0 0
SMALL
GASTEIGER

@<TRIPOS>ATOM
      1 N         -15.4382   -2.4819   18.6186 N.pl3   1  UNL1       -0.3046
      2 C         -16.0061   -2.9797   19.9146 C.3     1  UNL1        0.1081
      3 C         -17.4575   -3.3475   20.0054 C.3     1  UNL1        0.0938
      4 N         -18.3410   -3.2174   18.8002 N.3     1  UNL1       -0.2695
      5 C         -17.7730   -2.7195   17.5042 C.3     1  UNL1        0.0938
      6 C         -16.3217   -2.3518   17.4134 C.3     1  UNL1        0.1081
      7 C          -9.7775   -6.3540   19.0811 C.3     1  UNL1        0.0521
      8 C         -10.8299   -5.2941   18.9428 C.ar    1  UNL1        0.0593
      9 C         -12.2812   -5.6618   19.0335 C.ar    1  UNL1        0.0148
     10 C         -13.3336   -4.6018   18.8952 C.ar    1  UNL1        0.0039
     11 C         -12.9345   -3.1742   18.6662 C.ar    1  UNL1        0.0310
     12 C         -13.9868   -2.1142   18.5279 C.ar    1  UNL1        0.0493
     13 C         -13.5877   -0.6865   18.2988 C.ar    1  UNL1        0.0146
     14 C         -12.1364   -0.3188   18.2080 C.ar    1  UNL1        0.0028
     15 C         -11.0840   -1.3787   18.3463 C.ar    1  UNL1        0.0192
     16 C         -11.4831   -2.8064   18.5754 C.ar    1  UNL1        0.0821
     17 N         -10.4308   -3.8663   18.7137 N.ar    1  UNL1       -0.2496
     18 C         -19.7924   -3.5851   18.8910 C.3     1  UNL1        0.0770
     19 C         -20.2581   -4.9259   18.4059 C.3     1  UNL1        0.0468
     20 C         -19.6913   -6.1787   19.0054 C.ar    1  UNL1        0.0147
     21 C         -20.4632   -6.9247   20.0530 C.ar    1  UNL1       -0.0011
     22 C         -19.8963   -8.1775   20.6523 C.ar    1  UNL1        0.0014
     23 C         -18.5576   -8.6842   20.2041 C.ar    1  UNL1        0.0223
     24 C         -17.7857   -7.9381   19.1565 C.ar    1  UNL1        0.1177
     25 C         -18.3525   -6.6854   18.5571 C.ar    1  UNL1        0.1527
     26 O         -17.5806   -5.9393   17.5094 O.3     1  UNL1       -0.4677
     27 C         -16.2418   -6.4460   17.0612 C.3     1  UNL1        0.2522
     28 C         -15.6750   -7.6988   17.6606 C.ar    1  UNL1        0.1210
     29 C         -14.3901   -8.4343   17.4198 C.ar    1  UNL1        0.0996
     30 C         -13.3160   -8.0387   16.4504 C.3     1  UNL1        0.0555
     31 N         -14.3679   -9.6350   18.3187 N.ar    1  UNL1       -0.1331
     32 N         -15.6390   -9.6415   19.1149 N.ar    1  UNL1       -0.0600
     33 N         -16.4469   -8.4448   18.7082 N.ar    1  UNL1       -0.2083
@<TRIPOS>BOND
     1     7     8    1
     2     8     9   ar
     3     9    10   ar
     4    10    11   ar
     5    11    12   ar
     6    12     1    1
     7     1     2    1
     8     2     3    1
     9     3     4    1
    10     4    18    1
    11    18    19    1
    12    19    20    1
    13    20    21   ar
    14    21    22   ar
    15    22    23   ar
    16    23    24   ar
    17    24    25   ar
    18    25    26    1
    19    26    27    1
    20    27    28    1
    21    28    29   ar
    22    29    30    1
    23    29    31   ar
    24    31    32   ar
    25    32    33   ar
    26     4     5    1
    27     5     6    1
    28    12    13   ar
    29    13    14   ar
    30    14    15   ar
    31    15    16   ar
    32    16    17   ar
    33    17     8   ar
    34    16    11   ar
    35     6     1    1
    36    25    20   ar
    37    33    28   ar
    38    33    24    1
@<TRIPOS>MOLECULE
*****
 33 38 0 0 0
SMALL
GASTEIGER

@<TRIPOS>ATOM
      1 N           2.7743    1.1283   20.6552 N.pl3   1  UNL1       -0.3046
      2 C           1.2890    1.1110   20.4470 C.3     1  UNL1        0.1081
      3 C           0.3720    1.5520   21.5492 C.3     1  UNL1        0.0938
      4 N           0.9404    2.0102   22.8595 N.3     1  UNL1       -0.2695
      5 C           2.4258    2.0275   23.0676 C.3     1  UNL1        0.0938
      6 C           3.3427    1.5865   21.9655 C.3     1  UNL1        0.1081
      7 C           4.7198   -5.1566   18.6639 C.3     1  UNL1        0.0521
      8 C           4.4627   -3.6956   18.8862 C.ar    1  UNL1        0.0593
      9 C           3.5458   -3.2547   19.9883 C.ar    1  UNL1        0.0148
     10 C           3.2886   -1.7937   20.2106 C.ar    1  UNL1        0.0039
     11 C           3.9484   -0.7737   19.3307 C.ar    1  UNL1        0.0310
     12 C           3.6913    0.6873   19.5530 C.ar    1  UNL1        0.0493
     13 C           4.3511    1.7074   18.6731 C.ar    1  UNL1        0.0146
     14 C           5.2680    1.2664   17.5710 C.ar    1  UNL1        0.0028
     15 C           5.5252   -0.1946   17.3487 C.ar    1  UNL1        0.0192
     16 C           4.8654   -1.2146   18.2285 C.ar    1  UNL1        0.0821
     17 N           5.1225   -2.6756   18.0062 N.ar    1  UNL1       -0.2496
     18 C           0.0234    2.4511   23.9616 C.3     1  UNL1        0.0770
     19 C          -0.7945    3.6984   23.8028 C.3     1  UNL1        0.0468
     20 C          -2.2722    3.6009   23.5639 C.ar    1  UNL1        0.0147
     21 C          -3.2112    3.4507   24.7239 C.ar    1  UNL1       -0.0011
     22 C          -4.6888    3.3532   24.4849 C.ar    1  UNL1        0.0014
     23 C          -5.2274    3.4058   23.0859 C.ar    1  UNL1        0.0223
     24 C          -4.2884    3.5560   21.9259 C.ar    1  UNL1        0.1177
     25 C          -2.8108    3.6535   22.1649 C.ar    1  UNL1        0.1527
     26 O          -1.8717    3.8037   21.0048 O.3     1  UNL1       -0.4677
     27 C          -2.4103    3.8563   19.6059 C.3     1  UNL1        0.2522
     28 C          -3.8879    3.7588   19.3669 C.ar    1  UNL1        0.1210
     29 C          -4.7048    3.7805   18.1090 C.ar    1  UNL1        0.0996
     30 C          -4.1714    3.9153   16.7136 C.3     1  UNL1        0.0555
     31 N          -6.1487    3.6438   18.4917 N.ar    1  UNL1       -0.1331
     32 N          -6.2242    3.5375   19.9860 N.ar    1  UNL1       -0.0600
     33 N          -4.8270    3.6086   20.5269 N.ar    1  UNL1       -0.2083
@<TRIPOS>BOND
     1     7     8    1
     2     8     9   ar
     3     9    10   ar
     4    10    11   ar
     5    11    12   ar
     6    12     1    1
     7     1     2    1
     8     2     3    1
     9     3     4    1
    10     4    18    1
    11    18    19    1
    12    19    20    1
    13    20    21   ar
    14    21    22   ar
    15    22    23   ar
    16    23    24   ar
    17    24    25   ar
    18    25    26    1
    19    26    27    1
    20    27    28    1
    21    28    29   ar
    22    29    30    1
    23    29    31   ar
    24    31    32   ar
    25    32    33   ar
    26     4     5    1
    27     5     6    1
    28    12    13   ar
    29    13    14   ar
    30    14    15   ar
    31    15    16   ar
    32    16    17   ar
    33    17     8   ar
    34    16    11   ar
    35     6     1    1
    36    25    20   ar
    37    33    28   ar
    38    33    24    1
@<TRIPOS>MOLECULE
*****
 33 38 0 0 0
SMALL
GASTEIGER

@<TRIPOS>ATOM
      1 N           2.9681   -0.7630   21.0448 N.pl3   1  UNL1       -0.3046
      2 C           1.7413   -0.0364   20.5791 C.3     1  UNL1        0.1081
      3 C           0.9145    0.7434   21.5580 C.3     1  UNL1        0.0938
      4 N           1.3146    0.7966   23.0027 N.3     1  UNL1       -0.2695
      5 C           2.5415    0.0699   23.4684 C.3     1  UNL1        0.0938
      6 C           3.3682   -0.7099   22.4895 C.3     1  UNL1        0.1081
      7 C           7.3508    1.3326   16.1816 C.3     1  UNL1        0.0521
      8 C           6.4618    0.6138   17.1527 C.ar    1  UNL1        0.0593
      9 C           5.6351    1.3936   18.1316 C.ar    1  UNL1        0.0148
     10 C           4.7461    0.6747   19.1027 C.ar    1  UNL1        0.0039
     11 C           4.6838   -0.8240   19.0948 C.ar    1  UNL1        0.0310
     12 C           3.7949   -1.5428   20.0658 C.ar    1  UNL1        0.0493
     13 C           3.7326   -3.0416   20.0579 C.ar    1  UNL1        0.0146
     14 C           4.5594   -3.8213   19.0790 C.ar    1  UNL1        0.0028
     15 C           5.4483   -3.1025   18.1079 C.ar    1  UNL1        0.0192
     16 C           5.5106   -1.6038   18.1158 C.ar    1  UNL1        0.0821
     17 N           6.3996   -0.8850   17.1447 N.ar    1  UNL1       -0.2496
     18 C           0.4879    1.5764   23.9817 C.3     1  UNL1        0.0770
     19 C           1.1078    2.0847   25.2495 C.3     1  UNL1        0.0468
     20 C           0.7359    1.4686   26.5657 C.ar    1  UNL1        0.0147
     21 C          -0.7037    1.3993   26.9812 C.ar    1  UNL1       -0.0011
     22 C          -1.0756    0.7833   28.2973 C.ar    1  UNL1        0.0014
     23 C          -0.0078    0.2366   29.1979 C.ar    1  UNL1        0.0223
     24 C           1.4318    0.3060   28.7824 C.ar    1  UNL1        0.1177
     25 C           1.8036    0.9220   27.4663 C.ar    1  UNL1        0.1527
     26 O           3.2433    0.9914   27.0507 O.3     1  UNL1       -0.4677
     27 C           4.3110    0.4447   27.9513 C.3     1  UNL1        0.2522
     28 C           3.9391   -0.1713   29.2675 C.ar    1  UNL1        0.1210
     29 C           4.7661   -0.7883   30.3562 C.ar    1  UNL1        0.0996
     30 C           6.2594   -0.9297   30.3565 C.3     1  UNL1        0.0555
     31 N           3.8376   -1.2390   31.4447 N.ar    1  UNL1       -0.1331
     32 N           2.4367   -0.9005   31.0286 N.ar    1  UNL1       -0.0600
     33 N           2.4995   -0.2407   29.6830 N.ar    1  UNL1       -0.2083
@<TRIPOS>BOND
     1     7     8    1
     2     8     9   ar
     3     9    10   ar
     4    10    11   ar
     5    11    12   ar
     6    12     1    1
     7     1     2    1
     8     2     3    1
     9     3     4    1
    10     4    18    1
    11    18    19    1
    12    19    20    1
    13    20    21   ar
    14    21    22   ar
    15    22    23   ar
    16    23    24   ar
    17    24    25   ar
    18    25    26    1
    19    26    27    1
    20    27    28    1
    21    28    29   ar
    22    29    30    1
    23    29    31   ar
    24    31    32   ar
    25    32    33   ar
    26     4     5    1
    27     5     6    1
    28    12    13   ar
    29    13    14   ar
    30    14    15   ar
    31    15    16   ar
    32    16    17   ar
    33    17     8   ar
    34    16    11   ar
    35     6     1    1
    36    25    20   ar
    37    33    28   ar
    38    33    24    1
@<TRIPOS>MOLECULE
*****
 33 38 0 0 0
SMALL
GASTEIGER

@<TRIPOS>ATOM
      1 N         -12.5325   -3.7894   17.5391 N.pl3   1  UNL1       -0.3046
      2 C         -12.1021   -4.6510   18.6891 C.3     1  UNL1        0.1081
      3 C         -12.5245   -6.0891   18.7481 C.3     1  UNL1        0.0938
      4 N         -13.3773   -6.6657   17.6570 N.3     1  UNL1       -0.2695
      5 C         -13.8077   -5.8040   16.5070 C.3     1  UNL1        0.0938
      6 C         -13.3853   -4.3660   16.4481 C.3     1  UNL1        0.1081
      7 C         -15.7781    1.9385   19.5157 C.3     1  UNL1        0.0521
      8 C         -14.8611    0.8660   19.0068 C.ar    1  UNL1        0.0593
      9 C         -15.2835   -0.5720   19.0658 C.ar    1  UNL1        0.0148
     10 C         -14.3665   -1.6445   18.5569 C.ar    1  UNL1        0.0039
     11 C         -13.0272   -1.2789   17.9891 C.ar    1  UNL1        0.0310
     12 C         -12.1102   -2.3514   17.4802 C.ar    1  UNL1        0.0493
     13 C         -10.7708   -1.9857   16.9124 C.ar    1  UNL1        0.0146
     14 C         -10.3484   -0.5476   16.8535 C.ar    1  UNL1        0.0028
     15 C         -11.2654    0.5248   17.3623 C.ar    1  UNL1        0.0192
     16 C         -12.6047    0.1592   17.9301 C.ar    1  UNL1        0.0821
     17 N         -13.5217    1.2317   18.4390 N.ar    1  UNL1       -0.2496
     18 C         -13.7997   -8.1037   17.7159 C.3     1  UNL1        0.0770
     19 C         -14.5004   -8.6303   18.9331 C.3     1  UNL1        0.0468
     20 C         -15.9959   -8.5599   19.0269 C.ar    1  UNL1        0.0147
     21 C         -16.8168   -9.8051   18.8678 C.ar    1  UNL1       -0.0011
     22 C         -18.3122   -9.7346   18.9616 C.ar    1  UNL1        0.0014
     23 C         -18.9866   -8.4189   19.2145 C.ar    1  UNL1        0.0223
     24 C         -18.1657   -7.1736   19.3736 C.ar    1  UNL1        0.1177
     25 C         -16.6703   -7.2441   19.2798 C.ar    1  UNL1        0.1527
     26 O         -15.8493   -5.9988   19.4389 O.3     1  UNL1       -0.4677
     27 C         -16.5237   -4.6831   19.6918 C.3     1  UNL1        0.2522
     28 C         -18.0192   -4.6126   19.7856 C.ar    1  UNL1        0.1210
     29 C         -18.9568   -3.4666   20.0251 C.ar    1  UNL1        0.0996
     30 C         -18.5632   -2.0350   20.2382 C.3     1  UNL1        0.0555
     31 N         -20.3574   -4.0037   20.0140 N.ar    1  UNL1       -0.1331
     32 N         -20.2852   -5.4815   19.7676 N.ar    1  UNL1       -0.0600
     33 N         -18.8401   -5.8579   19.6265 N.ar    1  UNL1       -0.2083
@<TRIPOS>BOND
     1     7     8    1
     2     8     9   ar
     3     9    10   ar
     4    10    11   ar
     5    11    12   ar
     6    12     1    1
     7     1     2    1
     8     2     3    1
     9     3     4    1
    10     4    18    1
    11    18    19    1
    12    19    20    1
    13    20    21   ar
    14    21    22   ar
    15    22    23   ar
    16    23    24   ar
    17    24    25   ar
    18    25    26    1
    19    26    27    1
    20    27    28    1
    21    28    29   ar
    22    29    30    1
    23    29    31   ar
    24    31    32   ar
    25    32    33   ar
    26     4     5    1
    27     5     6    1
    28    12    13   ar
    29    13    14   ar
    30    14    15   ar
    31    15    16   ar
    32    16    17   ar
    33    17     8   ar
    34    16    11   ar
    35     6     1    1
    36    25    20   ar
    37    33    28   ar
    38    33    24    1
@<TRIPOS>MOLECULE
*****
 33 38 0 0 0
SMALL
GASTEIGER

@<TRIPOS>ATOM
      1 N         -12.6225   -5.9857   17.3147 N.pl3   1  UNL1       -0.3046
      2 C         -12.5367   -6.7255   18.6168 C.3     1  UNL1        0.1081
      3 C         -13.5095   -7.8265   18.9194 C.3     1  UNL1        0.0938
      4 N         -14.5680   -8.1878   17.9198 N.3     1  UNL1       -0.2695
      5 C         -14.6538   -7.4480   16.6178 C.3     1  UNL1        0.0938
      6 C         -13.6810   -6.3470   16.3152 C.3     1  UNL1        0.1081
      7 C         -13.0688    0.8051   18.2819 C.3     1  UNL1        0.0521
      8 C         -12.7141   -0.6174   17.9645 C.ar    1  UNL1        0.0593
      9 C         -13.6868   -1.7184   18.2670 C.ar    1  UNL1        0.0148
     10 C         -13.3320   -3.1408   17.9496 C.ar    1  UNL1        0.0039
     11 C         -12.0046   -3.4623   17.3296 C.ar    1  UNL1        0.0310
     12 C         -11.6498   -4.8847   17.0122 C.ar    1  UNL1        0.0493
     13 C         -10.3222   -5.2062   16.3922 C.ar    1  UNL1        0.0146
     14 C          -9.3495   -4.1052   16.0897 C.ar    1  UNL1        0.0028
     15 C          -9.7043   -2.6827   16.4071 C.ar    1  UNL1        0.0192
     16 C         -11.0317   -2.3613   17.0271 C.ar    1  UNL1        0.0821
     17 N         -11.3865   -0.9388   17.3445 N.ar    1  UNL1       -0.2496
     18 C         -15.5407   -9.2888   18.2224 C.3     1  UNL1        0.0770
     19 C         -16.3101   -9.2770   19.5100 C.3     1  UNL1        0.0468
     20 C         -17.6424   -8.5914   19.5813 C.ar    1  UNL1        0.0147
     21 C         -18.9036   -9.4033   19.6010 C.ar    1  UNL1       -0.0011
     22 C         -20.2358   -8.7177   19.6724 C.ar    1  UNL1        0.0014
     23 C         -20.3069   -7.2203   19.7239 C.ar    1  UNL1        0.0223
     24 C         -19.0458   -6.4084   19.7042 C.ar    1  UNL1        0.1177
     25 C         -17.7136   -7.0940   19.6328 C.ar    1  UNL1        0.1527
     26 O         -16.4523   -6.2822   19.6131 O.3     1  UNL1       -0.4677
     27 C         -16.5234   -4.7847   19.6647 C.3     1  UNL1        0.2522
     28 C         -17.8558   -4.0992   19.7360 C.ar    1  UNL1        0.1210
     29 C         -18.2365   -2.6496   19.7973 C.ar    1  UNL1        0.0996
     30 C         -17.2875   -1.4881   19.8005 C.3     1  UNL1        0.0555
     31 N         -19.7331   -2.5656   19.8550 N.ar    1  UNL1       -0.1331
     32 N         -20.2771   -3.9632   19.8293 N.ar    1  UNL1       -0.0600
     33 N         -19.1169   -4.9110   19.7557 N.ar    1  UNL1       -0.2083
@<TRIPOS>BOND
     1     7     8    1
     2     8     9   ar
     3     9    10   ar
     4    10    11   ar
     5    11    12   ar
     6    12     1    1
     7     1     2    1
     8     2     3    1
     9     3     4    1
    10     4    18    1
    11    18    19    1
    12    19    20    1
    13    20    21   ar
    14    21    22   ar
    15    22    23   ar
    16    23    24   ar
    17    24    25   ar
    18    25    26    1
    19    26    27    1
    20    27    28    1
    21    28    29   ar
    22    29    30    1
    23    29    31   ar
    24    31    32   ar
    25    32    33   ar
    26     4     5    1
    27     5     6    1
    28    12    13   ar
    29    13    14   ar
    30    14    15   ar
    31    15    16   ar
    32    16    17   ar
    33    17     8   ar
    34    16    11   ar
    35     6     1    1
    36    25    20   ar
    37    33    28   ar
    38    33    24    1
@<TRIPOS>MOLECULE
*****
 33 38 0 0 0
SMALL
GASTEIGER

@<TRIPOS>ATOM
      1 N           8.2451   -5.4970   27.8747 N.pl3   1  UNL1       -0.3046
      2 C           9.2595   -4.5360   28.4201 C.3     1  UNL1        0.1081
      3 C           9.1066   -3.9927   29.8099 C.3     1  UNL1        0.0938
      4 N           7.9393   -4.4105   30.6543 N.3     1  UNL1       -0.2695
      5 C           6.9249   -5.3716   30.1088 C.3     1  UNL1        0.0938
      6 C           7.0779   -5.9148   28.7191 C.3     1  UNL1        0.1081
      7 C           5.7573   -3.2604   21.8699 C.3     1  UNL1        0.0521
      8 C           6.4175   -3.9553   23.0236 C.ar    1  UNL1        0.0593
      9 C           6.2646   -3.4121   24.4134 C.ar    1  UNL1        0.0148
     10 C           6.9248   -4.1071   25.5672 C.ar    1  UNL1        0.0039
     11 C           7.7379   -5.3453   25.3312 C.ar    1  UNL1        0.0310
     12 C           8.3980   -6.0402   26.4850 C.ar    1  UNL1        0.0493
     13 C           9.2112   -7.2785   26.2489 C.ar    1  UNL1        0.0146
     14 C           9.3641   -7.8217   24.8591 C.ar    1  UNL1        0.0028
     15 C           8.7039   -7.1267   23.7054 C.ar    1  UNL1        0.0192
     16 C           7.8908   -5.8886   23.9414 C.ar    1  UNL1        0.0821
     17 N           7.2307   -5.1936   22.7876 N.ar    1  UNL1       -0.2496
     18 C           7.7864   -3.8673   32.0441 C.3     1  UNL1        0.0770
     19 C           7.6290   -2.3912   32.2593 C.3     1  UNL1        0.0468
     20 C           6.2640   -1.7700   32.2275 C.ar    1  UNL1        0.0147
     21 C           5.5713   -1.4156   33.5099 C.ar    1  UNL1       -0.0011
     22 C           4.2063   -0.7945   33.4781 C.ar    1  UNL1        0.0014
     23 C           3.5341   -0.5276   32.1640 C.ar    1  UNL1        0.0223
     24 C           4.2269   -0.8820   30.8816 C.ar    1  UNL1        0.1177
     25 C           5.5918   -1.5031   30.9134 C.ar    1  UNL1        0.1527
     26 O           6.2846   -1.8575   29.6310 O.3     1  UNL1       -0.4677
     27 C           5.6124   -1.5907   28.3168 C.3     1  UNL1        0.2522
     28 C           4.2474   -0.9695   28.2851 C.ar    1  UNL1        0.1210
     29 C           3.3430   -0.5914   27.1498 C.ar    1  UNL1        0.0996
     30 C           3.6384   -0.7700   25.6901 C.3     1  UNL1        0.0555
     31 N           2.0912   -0.0034   27.7305 N.ar    1  UNL1       -0.1331
     32 N           2.2220   -0.0180   29.2247 N.ar    1  UNL1       -0.0600
     33 N           3.5547   -0.6151   29.5675 N.ar    1  UNL1       -0.2083
@<TRIPOS>BOND
     1     7     8    1
     2     8     9   ar
     3     9    10   ar
     4    10    11   ar
     5    11    12   ar
     6    12     1    1
     7     1     2    1
     8     2     3    1
     9     3     4    1
    10     4    18    1
    11    18    19    1
    12    19    20    1
    13    20    21   ar
    14    21    22   ar
    15    22    23   ar
    16    23    24   ar
    17    24    25   ar
    18    25    26    1
    19    26    27    1
    20    27    28    1
    21    28    29   ar
    22    29    30    1
    23    29    31   ar
    24    31    32   ar
    25    32    33   ar
    26     4     5    1
    27     5     6    1
    28    12    13   ar
    29    13    14   ar
    30    14    15   ar
    31    15    16   ar
    32    16    17   ar
    33    17     8   ar
    34    16    11   ar
    35     6     1    1
    36    25    20   ar
    37    33    28   ar
    38    33    24    1
@<TRIPOS>MOLECULE
*****
 33 38 0 0 0
SMALL
GASTEIGER

@<TRIPOS>ATOM
      1 N           2.8702   -0.5191   21.0626 N.pl3   1  UNL1       -0.3046
      2 C           3.3829   -0.2806   22.4519 C.3     1  UNL1        0.1081
      3 C           2.5855    0.5501   23.4133 C.3     1  UNL1        0.0938
      4 N           1.2755    1.1423   22.9853 N.3     1  UNL1       -0.2695
      5 C           0.7628    0.9037   21.5959 C.3     1  UNL1        0.0938
      6 C           1.5602    0.0731   20.6346 C.3     1  UNL1        0.1081
      7 C           7.2581    1.3120   16.0984 C.3     1  UNL1        0.0521
      8 C           6.3605    0.6466   17.0991 C.ar    1  UNL1        0.0593
      9 C           5.5631    1.4772   18.0604 C.ar    1  UNL1        0.0148
     10 C           4.6655    0.8118   19.0611 C.ar    1  UNL1        0.0039
     11 C           4.5652   -0.6843   19.1005 C.ar    1  UNL1        0.0310
     12 C           3.6675   -1.3497   20.1012 C.ar    1  UNL1        0.0493
     13 C           3.5673   -2.8459   20.1406 C.ar    1  UNL1        0.0146
     14 C           4.3646   -3.6766   19.1793 C.ar    1  UNL1        0.0028
     15 C           5.2623   -3.0111   18.1786 C.ar    1  UNL1        0.0192
     16 C           5.3626   -1.5150   18.1392 C.ar    1  UNL1        0.0821
     17 N           6.2602   -0.8496   17.1384 N.ar    1  UNL1       -0.2496
     18 C           0.4781    1.9729   23.9466 C.3     1  UNL1        0.0770
     19 C          -0.1470    3.2573   23.4886 C.3     1  UNL1        0.0468
     20 C          -1.6402    3.3808   23.4168 C.ar    1  UNL1        0.0147
     21 C          -2.4535    3.3899   24.6771 C.ar    1  UNL1       -0.0011
     22 C          -3.9467    3.5134   24.6052 C.ar    1  UNL1        0.0014
     23 C          -4.6265    3.6279   23.2731 C.ar    1  UNL1        0.0223
     24 C          -3.8132    3.6188   22.0128 C.ar    1  UNL1        0.1177
     25 C          -2.3201    3.4953   22.0846 C.ar    1  UNL1        0.1527
     26 O          -1.5067    3.4862   20.8243 O.3     1  UNL1       -0.4677
     27 C          -2.1865    3.6006   19.4921 C.3     1  UNL1        0.2522
     28 C          -3.6798    3.7242   19.4203 C.ar    1  UNL1        0.1210
     29 C          -4.6215    3.8521   18.2598 C.ar    1  UNL1        0.0996
     30 C          -4.2357    3.8859   16.8107 C.3     1  UNL1        0.0555
     31 N          -6.0170    3.9402   18.8030 N.ar    1  UNL1       -0.1331
     32 N          -5.9376    3.8668   20.2991 N.ar    1  UNL1       -0.0600
     33 N          -4.4931    3.7333   20.6806 N.ar    1  UNL1       -0.2083
@<TRIPOS>BOND
     1     7     8    1
     2     8     9   ar
     3     9    10   ar
     4    10    11   ar
     5    11    12   ar
     6    12     1    1
     7     1     2    1
     8     2     3    1
     9     3     4    1
    10     4    18    1
    11    18    19    1
    12    19    20    1
    13    20    21   ar
    14    21    22   ar
    15    22    23   ar
    16    23    24   ar
    17    24    25   ar
    18    25    26    1
    19    26    27    1
    20    27    28    1
    21    28    29   ar
    22    29    30    1
    23    29    31   ar
    24    31    32   ar
    25    32    33   ar
    26     4     5    1
    27     5     6    1
    28    12    13   ar
    29    13    14   ar
    30    14    15   ar
    31    15    16   ar
    32    16    17   ar
    33    17     8   ar
    34    16    11   ar
    35     6     1    1
    36    25    20   ar
    37    33    28   ar
    38    33    24    1
@<TRIPOS>MOLECULE
*****
 33 38 0 0 0
SMALL
GASTEIGER

@<TRIPOS>ATOM
      1 N           2.3352   -0.4470   19.9270 N.pl3   1  UNL1       -0.3046
      2 C           2.9996    0.5244   18.9970 C.3     1  UNL1        0.1081
      3 C           2.2259    1.6864   18.4483 C.3     1  UNL1        0.0938
      4 N           0.7877    1.8770   18.8295 N.3     1  UNL1       -0.2695
      5 C           0.1233    0.9054   19.7595 C.3     1  UNL1        0.0938
      6 C           0.8970   -0.2565   20.3082 C.3     1  UNL1        0.1081
      7 C           4.8895   -1.5902   26.2054 C.3     1  UNL1        0.0521
      8 C           4.4444   -1.5949   24.7730 C.ar    1  UNL1        0.0593
      9 C           3.6706   -0.4329   24.2243 C.ar    1  UNL1        0.0148
     10 C           3.2255   -0.4376   22.7918 C.ar    1  UNL1        0.0039
     11 C           3.5541   -1.6042   21.9081 C.ar    1  UNL1        0.0310
     12 C           3.1090   -1.6089   20.4757 C.ar    1  UNL1        0.0493
     13 C           3.4377   -2.7756   19.5920 C.ar    1  UNL1        0.0146
     14 C           4.2115   -3.9375   20.1407 C.ar    1  UNL1        0.0028
     15 C           4.6566   -3.9328   21.5732 C.ar    1  UNL1        0.0192
     16 C           4.3280   -2.7662   22.4569 C.ar    1  UNL1        0.0821
     17 N           4.7731   -2.7616   23.8893 N.ar    1  UNL1       -0.2496
     18 C           0.0139    3.0389   18.2808 C.3     1  UNL1        0.0770
     19 C          -0.5884    4.0468   19.2142 C.3     1  UNL1        0.0468
     20 C          -2.0210    3.9139   19.6386 C.ar    1  UNL1        0.0147
     21 C          -3.1053    3.8372   18.6050 C.ar    1  UNL1       -0.0011
     22 C          -4.5379    3.7043   19.0294 C.ar    1  UNL1        0.0014
     23 C          -4.8861    3.6482   20.4873 C.ar    1  UNL1        0.0223
     24 C          -3.8018    3.7249   21.5209 C.ar    1  UNL1        0.1177
     25 C          -2.3692    3.8577   21.0965 C.ar    1  UNL1        0.1527
     26 O          -1.2848    3.9345   22.1301 O.3     1  UNL1       -0.4677
     27 C          -1.6330    3.8783   23.5880 C.3     1  UNL1        0.2522
     28 C          -3.0656    3.7454   24.0124 C.ar    1  UNL1        0.1210
     29 C          -3.7083    3.6653   25.3653 C.ar    1  UNL1        0.0996
     30 C          -2.9947    3.7045   26.6841 C.3     1  UNL1        0.0555
     31 N          -5.1899    3.5390   25.1679 N.ar    1  UNL1       -0.1331
     32 N          -5.4628    3.5412   23.6930 N.ar    1  UNL1       -0.0600
     33 N          -4.1500    3.6687   22.9788 N.ar    1  UNL1       -0.2083
@<TRIPOS>BOND
     1     7     8    1
     2     8     9   ar
     3     9    10   ar
     4    10    11   ar
     5    11    12   ar
     6    12     1    1
     7     1     2    1
     8     2     3    1
     9     3     4    1
    10     4    18    1
    11    18    19    1
    12    19    20    1
    13    20    21   ar
    14    21    22   ar
    15    22    23   ar
    16    23    24   ar
    17    24    25   ar
    18    25    26    1
    19    26    27    1
    20    27    28    1
    21    28    29   ar
    22    29    30    1
    23    29    31   ar
    24    31    32   ar
    25    32    33   ar
    26     4     5    1
    27     5     6    1
    28    12    13   ar
    29    13    14   ar
    30    14    15   ar
    31    15    16   ar
    32    16    17   ar
    33    17     8   ar
    34    16    11   ar
    35     6     1    1
    36    25    20   ar
    37    33    28   ar
    38    33    24    1
@<TRIPOS>MOLECULE
*****
 33 38 0 0 0
SMALL
GASTEIGER

@<TRIPOS>ATOM
      1 N           2.7517   -0.6307   20.4583 N.pl3   1  UNL1       -0.3046
      2 C           3.2287    0.6787   21.0131 C.3     1  UNL1        0.1081
      3 C           2.2406    1.7579   21.3436 C.3     1  UNL1        0.0938
      4 N           0.7754    1.5275   21.1192 N.3     1  UNL1       -0.2695
      5 C           0.2985    0.2180   20.5643 C.3     1  UNL1        0.0938
      6 C           1.2866   -0.8610   20.2339 C.3     1  UNL1        0.1081
      7 C           6.7066   -4.5105   24.5272 C.3     1  UNL1        0.0521
      8 C           5.9649   -3.8103   23.4274 C.ar    1  UNL1        0.0593
      9 C           4.9768   -2.7312   23.7578 C.ar    1  UNL1        0.0148
     10 C           4.2351   -2.0310   22.6580 C.ar    1  UNL1        0.0039
     11 C           4.4815   -2.4099   21.2277 C.ar    1  UNL1        0.0310
     12 C           3.7398   -1.7097   20.1279 C.ar    1  UNL1        0.0493
     13 C           3.9863   -2.0886   18.6975 C.ar    1  UNL1        0.0146
     14 C           4.9744   -3.1677   18.3671 C.ar    1  UNL1        0.0028
     15 C           5.7161   -3.8679   19.4670 C.ar    1  UNL1        0.0192
     16 C           5.4697   -3.4890   20.8972 C.ar    1  UNL1        0.0821
     17 N           6.2114   -4.1892   21.9971 N.ar    1  UNL1       -0.2496
     18 C          -0.2127    2.6066   21.4496 C.3     1  UNL1        0.0770
     19 C           0.0349    3.5194   22.6138 C.3     1  UNL1        0.0468
     20 C          -0.7095    3.3137   23.8997 C.ar    1  UNL1        0.0147
     21 C          -2.0653    3.9271   24.0879 C.ar    1  UNL1       -0.0011
     22 C          -2.8096    3.7214   25.3738 C.ar    1  UNL1        0.0014
     23 C          -2.1982    2.9022   26.4715 C.ar    1  UNL1        0.0223
     24 C          -0.8424    2.2888   26.2834 C.ar    1  UNL1        0.1177
     25 C          -0.0980    2.4945   24.9975 C.ar    1  UNL1        0.1527
     26 O           1.2579    1.8810   24.8093 O.3     1  UNL1       -0.4677
     27 C           1.8693    1.0619   25.9071 C.3     1  UNL1        0.2522
     28 C           1.1249    0.8561   27.1930 C.ar    1  UNL1        0.1210
     29 C           1.4709    0.1038   28.4437 C.ar    1  UNL1        0.0996
     30 C           2.7367   -0.6625   28.6900 C.3     1  UNL1        0.0555
     31 N           0.3289    0.2523   29.4048 N.ar    1  UNL1       -0.1331
     32 N          -0.7229    1.0964   28.7481 N.ar    1  UNL1       -0.0600
     33 N          -0.2309    1.4696   27.3812 N.ar    1  UNL1       -0.2083
@<TRIPOS>BOND
     1     7     8    1
     2     8     9   ar
     3     9    10   ar
     4    10    11   ar
     5    11    12   ar
     6    12     1    1
     7     1     2    1
     8     2     3    1
     9     3     4    1
    10     4    18    1
    11    18    19    1
    12    19    20    1
    13    20    21   ar
    14    21    22   ar
    15    22    23   ar
    16    23    24   ar
    17    24    25   ar
    18    25    26    1
    19    26    27    1
    20    27    28    1
    21    28    29   ar
    22    29    30    1
    23    29    31   ar
    24    31    32   ar
    25    32    33   ar
    26     4     5    1
    27     5     6    1
    28    12    13   ar
    29    13    14   ar
    30    14    15   ar
    31    15    16   ar
    32    16    17   ar
    33    17     8   ar
    34    16    11   ar
    35     6     1    1
    36    25    20   ar
    37    33    28   ar
    38    33    24    1
