@<TRIPOS>MOLECULE
*****
 31 34 0 0 0
SMALL
GASTEIGER

@<TRIPOS>ATOM
      1 C          -7.0722  -19.0231   21.0829 C.2     1  UNL1        0.2459
      2 O          -6.5425  -18.8159   22.4709 O.2     1  UNL1       -0.2730
      3 N          -8.5521  -19.0321   20.8385 N.am    1  UNL1       -0.2781
      4 C          -9.0818  -19.2393   19.4505 C.3     1  UNL1        0.0935
      5 C         -10.5617  -19.2482   19.2061 C.3     1  UNL1        0.0219
      6 C         -11.5119  -19.0500   20.3497 C.3     1  UNL1        0.0078
      7 C         -10.9823  -18.8428   21.7376 C.3     1  UNL1        0.0419
      8 C          -9.5024  -18.8338   21.9820 C.3     1  UNL1        0.0953
      9 C         -11.9325  -18.6445   22.8812 C.ar    1  UNL1       -0.0209
     10 C         -11.5959  -19.1866   24.2387 C.ar    1  UNL1       -0.0042
     11 C         -12.5461  -18.9883   25.3822 C.ar    1  UNL1       -0.0003
     12 C         -13.8330  -18.2481   25.1683 C.ar    1  UNL1       -0.0000
     13 C         -14.1697  -17.7060   23.8108 C.ar    1  UNL1       -0.0003
     14 C         -13.2194  -17.9043   22.6673 C.ar    1  UNL1       -0.0042
     15 C          -6.1219  -19.2214   19.9394 C.3     1  UNL1        0.1773
     16 C          -4.9770  -21.5204   20.3312 C.3     1  UNL1        0.1126
     17 N          -4.8778  -20.0371   20.1308 N.pl3   1  UNL1       -0.2980
     18 C          -3.5345  -19.3697   20.1219 C.ar    1  UNL1        0.0491
     19 C          -2.7400  -19.2662   21.3900 C.ar    1  UNL1        0.0154
     20 C          -1.3967  -18.5987   21.3811 C.ar    1  UNL1        0.0135
     21 C          -0.8479  -18.0348   20.1041 C.ar    1  UNL1        0.0683
     22 CL          0.4954  -17.3673   20.0952 Cl      1  UNL1       -0.0814
     23 C          -1.6424  -18.1383   18.8360 C.ar    1  UNL1        0.0694
     24 CL         -1.0935  -17.5744   17.5590 Cl      1  UNL1       -0.0813
     25 C          -2.9857  -18.8057   18.8449 C.ar    1  UNL1        0.0268
     26 C          -8.9727  -18.6266   23.3701 C.3     1  UNL1        0.0924
     27 N          -8.7264  -17.2374   23.8792 N.3     1  UNL1       -0.2713
     28 C          -8.9628  -16.7570   25.2804 C.3     1  UNL1        0.0722
     29 C          -8.5831  -15.3073   25.3438 C.3     1  UNL1        0.0188
     30 C          -8.1120  -14.8916   23.9817 C.3     1  UNL1        0.0188
     31 C          -8.2006  -16.0844   23.0766 C.3     1  UNL1        0.0722
@<TRIPOS>BOND
     1    16    17    1
     2    17    15    1
     3    15     1    1
     4     1     2    2
     5     1     3   am
     6     3     4    1
     7     4     5    1
     8     5     6    1
     9     6     7    1
    10     7     9    1
    11     9    10   ar
    12    10    11   ar
    13    11    12   ar
    14    12    13   ar
    15    13    14   ar
    16     7     8    1
    17     8    26    1
    18    26    27    1
    19    27    28    1
    20    28    29    1
    21    29    30    1
    22    30    31    1
    23    17    18    1
    24    18    19   ar
    25    19    20   ar
    26    20    21   ar
    27    21    22    1
    28    21    23   ar
    29    23    24    1
    30    23    25   ar
    31     8     3    1
    32    31    27    1
    33    25    18   ar
    34    14     9   ar
@<TRIPOS>MOLECULE
*****
 31 34 0 0 0
SMALL
GASTEIGER

@<TRIPOS>ATOM
      1 C           6.6460   -2.8844   21.5802 C.2     1  UNL1        0.2459
      2 O           6.9559   -1.5958   22.2826 O.2     1  UNL1       -0.2730
      3 N           5.4222   -2.9941   20.7196 N.am    1  UNL1       -0.2781
      4 C           5.1124   -4.2827   20.0172 C.3     1  UNL1        0.0935
      5 C           3.8887   -4.3923   19.1567 C.3     1  UNL1        0.0219
      6 C           2.9748   -3.2134   18.9987 C.3     1  UNL1        0.0078
      7 C           3.2847   -1.9248   19.7011 C.3     1  UNL1        0.0419
      8 C           4.5084   -1.8151   20.5616 C.3     1  UNL1        0.0953
      9 C           2.3708   -0.7458   19.5431 C.ar    1  UNL1       -0.0209
     10 C           1.1227   -0.6484   20.3692 C.ar    1  UNL1       -0.0042
     11 C           0.2088    0.5306   20.2112 C.ar    1  UNL1       -0.0003
     12 C           0.5431    1.6120   19.2270 C.ar    1  UNL1       -0.0000
     13 C           1.7913    1.5146   18.4009 C.ar    1  UNL1       -0.0003
     14 C           2.7051    0.3356   18.5589 C.ar    1  UNL1       -0.0042
     15 C           7.5598   -4.0633   21.7382 C.3     1  UNL1        0.1773
     16 C           9.5355   -3.1795   23.1754 C.3     1  UNL1        0.1126
     17 N           8.4367   -4.1754   22.9500 N.pl3   1  UNL1       -0.2980
     18 C           8.2149   -5.2835   23.9364 C.ar    1  UNL1        0.0491
     19 C           8.8013   -6.6409   23.6840 C.ar    1  UNL1        0.0154
     20 C           8.5795   -7.7489   24.6704 C.ar    1  UNL1        0.0135
     21 C           7.7713   -7.4996   25.9091 C.ar    1  UNL1        0.0683
     22 CL          7.5494   -8.6077   26.8956 Cl      1  UNL1       -0.0814
     23 C           7.1849   -6.1423   26.1616 C.ar    1  UNL1        0.0694
     24 CL          6.3767   -5.8930   27.4004 Cl      1  UNL1       -0.0813
     25 C           7.4067   -5.0342   25.1752 C.ar    1  UNL1        0.0268
     26 C           4.8183   -0.5265   21.2641 C.3     1  UNL1        0.0924
     27 N           3.9128   -0.0284   22.3513 N.3     1  UNL1       -0.2713
     28 C           3.3267   -0.8541   23.4579 C.3     1  UNL1        0.0722
     29 C           2.4861    0.0468   24.3133 C.3     1  UNL1        0.0188
     30 C           2.5527    1.4294   23.7353 C.3     1  UNL1        0.0188
     31 C           3.4344    1.3829   22.5228 C.3     1  UNL1        0.0722
@<TRIPOS>BOND
     1    16    17    1
     2    17    15    1
     3    15     1    1
     4     1     2    2
     5     1     3   am
     6     3     4    1
     7     4     5    1
     8     5     6    1
     9     6     7    1
    10     7     9    1
    11     9    10   ar
    12    10    11   ar
    13    11    12   ar
    14    12    13   ar
    15    13    14   ar
    16     7     8    1
    17     8    26    1
    18    26    27    1
    19    27    28    1
    20    28    29    1
    21    29    30    1
    22    30    31    1
    23    17    18    1
    24    18    19   ar
    25    19    20   ar
    26    20    21   ar
    27    21    22    1
    28    21    23   ar
    29    23    24    1
    30    23    25   ar
    31     8     3    1
    32    31    27    1
    33    25    18   ar
    34    14     9   ar
@<TRIPOS>MOLECULE
*****
 31 34 0 0 0
SMALL
GASTEIGER

@<TRIPOS>ATOM
      1 C           0.4798    2.0468   20.7354 C.2     1  UNL1        0.2459
      2 O           0.4408    2.0909   19.2365 O.2     1  UNL1       -0.2730
      3 N           1.3547    1.0483   21.4338 N.am    1  UNL1       -0.2781
      4 C           1.3937    1.0042   22.9326 C.3     1  UNL1        0.0935
      5 C           2.2685    0.0058   23.6310 C.3     1  UNL1        0.0219
      6 C           3.1043   -0.9486   22.8306 C.3     1  UNL1        0.0078
      7 C           3.0653   -0.9045   21.3318 C.3     1  UNL1        0.0419
      8 C           2.1905    0.0940   20.6334 C.3     1  UNL1        0.0953
      9 C           3.9011   -1.8588   20.5313 C.ar    1  UNL1       -0.0209
     10 C           5.3836   -1.6545   20.4304 C.ar    1  UNL1       -0.0042
     11 C           6.2194   -2.6089   19.6300 C.ar    1  UNL1       -0.0003
     12 C           5.5727   -3.7675   18.9305 C.ar    1  UNL1       -0.0000
     13 C           4.0901   -3.9717   19.0314 C.ar    1  UNL1       -0.0003
     14 C           3.2543   -3.0174   19.8319 C.ar    1  UNL1       -0.0042
     15 C          -0.3560    3.0011   21.5358 C.3     1  UNL1        0.1773
     16 C          -0.4317    5.4511   20.6743 C.3     1  UNL1        0.1126
     17 N          -1.0895    4.1143   20.8482 N.pl3   1  UNL1       -0.2980
     18 C          -2.4810    3.8906   20.3344 C.ar    1  UNL1        0.0491
     19 C          -3.5753    3.4946   21.2808 C.ar    1  UNL1        0.0154
     20 C          -4.9667    3.2709   20.7670 C.ar    1  UNL1        0.0135
     21 C          -5.2637    3.4433   19.3069 C.ar    1  UNL1        0.0683
     22 CL         -6.6552    3.2196   18.7931 Cl      1  UNL1       -0.0814
     23 C          -4.1694    3.8393   18.3605 C.ar    1  UNL1        0.0694
     24 CL         -4.4666    4.0117   16.9004 Cl      1  UNL1       -0.0813
     25 C          -2.7780    4.0630   18.8743 C.ar    1  UNL1        0.0268
     26 C           2.1514    0.1381   19.1345 C.3     1  UNL1        0.0924
     27 N           3.4142    0.3665   18.3578 N.3     1  UNL1       -0.2713
     28 C           3.9157   -0.4760   17.2226 C.3     1  UNL1        0.0722
     29 C           5.2086    0.1142   16.7431 C.3     1  UNL1        0.0188
     30 C           5.5062    1.3216   17.5820 C.3     1  UNL1        0.0188
     31 C           4.3972    1.4775   18.5799 C.3     1  UNL1        0.0722
@<TRIPOS>BOND
     1    16    17    1
     2    17    15    1
     3    15     1    1
     4     1     2    2
     5     1     3   am
     6     3     4    1
     7     4     5    1
     8     5     6    1
     9     6     7    1
    10     7     9    1
    11     9    10   ar
    12    10    11   ar
    13    11    12   ar
    14    12    13   ar
    15    13    14   ar
    16     7     8    1
    17     8    26    1
    18    26    27    1
    19    27    28    1
    20    28    29    1
    21    29    30    1
    22    30    31    1
    23    17    18    1
    24    18    19   ar
    25    19    20   ar
    26    20    21   ar
    27    21    22    1
    28    21    23   ar
    29    23    24    1
    30    23    25   ar
    31     8     3    1
    32    31    27    1
    33    25    18   ar
    34    14     9   ar
@<TRIPOS>MOLECULE
*****
 31 34 0 0 0
SMALL
GASTEIGER

@<TRIPOS>ATOM
      1 C           6.1245   -3.0304   21.9701 C.2     1  UNL1        0.2459
      2 O           5.2186   -2.6051   23.0874 O.2     1  UNL1       -0.2730
      3 N           7.1646   -4.0848   22.2078 N.am    1  UNL1       -0.2781
      4 C           8.0705   -4.5101   21.0905 C.3     1  UNL1        0.0935
      5 C           9.1106   -5.5644   21.3283 C.3     1  UNL1        0.0219
      6 C           9.2447   -6.1935   22.6834 C.3     1  UNL1        0.0078
      7 C           8.3388   -5.7682   23.8007 C.3     1  UNL1        0.0419
      8 C           7.2988   -4.7139   23.5629 C.3     1  UNL1        0.0953
      9 C           8.4730   -6.3973   25.1558 C.ar    1  UNL1       -0.0209
     10 C           9.4010   -5.7998   26.1714 C.ar    1  UNL1       -0.0042
     11 C           9.5352   -6.4289   27.5265 C.ar    1  UNL1       -0.0003
     12 C           8.7413   -7.6555   27.8659 C.ar    1  UNL1       -0.0000
     13 C           7.8132   -8.2529   26.8502 C.ar    1  UNL1       -0.0003
     14 C           7.6791   -7.6239   25.4952 C.ar    1  UNL1       -0.0042
     15 C           5.9904   -2.4013   20.6150 C.3     1  UNL1        0.1773
     16 C           4.6375   -4.1420   19.2404 C.3     1  UNL1        0.1126
     17 N           4.8176   -2.7404   19.7435 N.pl3   1  UNL1       -0.2980
     18 C           3.8249   -1.6779   19.3750 C.ar    1  UNL1        0.0491
     19 C           4.0662   -0.8094   18.1760 C.ar    1  UNL1        0.0154
     20 C           3.0736    0.2530   17.8075 C.ar    1  UNL1        0.0135
     21 C           1.8397    0.4471   18.6380 C.ar    1  UNL1        0.0683
     22 CL          0.8470    1.5096   18.2695 Cl      1  UNL1       -0.0814
     23 C           1.5984   -0.4214   19.8369 C.ar    1  UNL1        0.0694
     24 CL          0.3644   -0.2274   20.6674 Cl      1  UNL1       -0.0813
     25 C           2.5910   -1.4839   20.2054 C.ar    1  UNL1        0.0268
     26 C           6.3928   -4.2885   24.6802 C.3     1  UNL1        0.0924
     27 N           6.9287   -3.4493   25.8021 N.3     1  UNL1       -0.2713
     28 C           7.8552   -2.2780   25.6622 C.3     1  UNL1        0.0722
     29 C           8.1312   -1.7387   27.0344 C.3     1  UNL1        0.0188
     30 C           7.3753   -2.5768   28.0224 C.3     1  UNL1        0.0188
     31 C           6.6321   -3.6339   27.2608 C.3     1  UNL1        0.0722
@<TRIPOS>BOND
     1    16    17    1
     2    17    15    1
     3    15     1    1
     4     1     2    2
     5     1     3   am
     6     3     4    1
     7     4     5    1
     8     5     6    1
     9     6     7    1
    10     7     9    1
    11     9    10   ar
    12    10    11   ar
    13    11    12   ar
    14    12    13   ar
    15    13    14   ar
    16     7     8    1
    17     8    26    1
    18    26    27    1
    19    27    28    1
    20    28    29    1
    21    29    30    1
    22    30    31    1
    23    17    18    1
    24    18    19   ar
    25    19    20   ar
    26    20    21   ar
    27    21    22    1
    28    21    23   ar
    29    23    24    1
    30    23    25   ar
    31     8     3    1
    32    31    27    1
    33    25    18   ar
    34    14     9   ar
@<TRIPOS>MOLECULE
*****
 31 34 0 0 0
SMALL
GASTEIGER

@<TRIPOS>ATOM
      1 C           2.5377    2.1733   23.2095 C.2     1  UNL1        0.2459
      2 O           3.9572    2.0684   23.6826 O.2     1  UNL1       -0.2730
      3 N           2.0591    1.3137   22.0772 N.am    1  UNL1       -0.2781
      4 C           0.6395    1.4186   21.6040 C.3     1  UNL1        0.0935
      5 C           0.1609    0.5591   20.4718 C.3     1  UNL1        0.0219
      6 C           1.1019   -0.4054   19.8127 C.3     1  UNL1        0.0078
      7 C           2.5214   -0.5103   20.2858 C.3     1  UNL1        0.0419
      8 C           3.0000    0.3493   21.4181 C.3     1  UNL1        0.0953
      9 C           3.4623   -1.4748   19.6267 C.ar    1  UNL1       -0.0209
     10 C           3.3571   -2.9426   19.9174 C.ar    1  UNL1       -0.0042
     11 C           4.2980   -3.9071   19.2583 C.ar    1  UNL1       -0.0003
     12 C           5.3442   -3.4038   18.3085 C.ar    1  UNL1       -0.0000
     13 C           5.4494   -1.9360   18.0178 C.ar    1  UNL1       -0.0003
     14 C           4.5085   -0.9715   18.6769 C.ar    1  UNL1       -0.0042
     15 C           1.5968    3.1378   23.8686 C.3     1  UNL1        0.1773
     16 C           2.5555    4.4787   25.8768 C.3     1  UNL1        0.1126
     17 N           1.6838    3.3792   25.3464 N.pl3   1  UNL1       -0.2980
     18 C           0.8991    2.5210   26.2940 C.ar    1  UNL1        0.0491
     19 C          -0.5792    2.7265   26.4431 C.ar    1  UNL1        0.0154
     20 C          -1.3639    1.8684   27.3907 C.ar    1  UNL1        0.0135
     21 C          -0.6702    0.8048   28.1891 C.ar    1  UNL1        0.0683
     22 CL         -1.4549   -0.0534   29.1367 Cl      1  UNL1       -0.0814
     23 C           0.8081    0.5994   28.0401 C.ar    1  UNL1        0.0694
     24 CL          1.5018   -0.4643   28.8386 Cl      1  UNL1       -0.0813
     25 C           1.5928    1.4575   27.0925 C.ar    1  UNL1        0.0268
     26 C           4.4196    0.2444   21.8913 C.3     1  UNL1        0.0924
     27 N           4.9477   -1.0666   22.3938 N.3     1  UNL1       -0.2713
     28 C           4.2685   -1.9715   23.3785 C.3     1  UNL1        0.0722
     29 C           5.1488   -3.1670   23.5932 C.3     1  UNL1        0.0188
     30 C           6.3720   -3.0008   22.7411 C.3     1  UNL1        0.0188
     31 C           6.2477   -1.7027   21.9999 C.3     1  UNL1        0.0722
@<TRIPOS>BOND
     1    16    17    1
     2    17    15    1
     3    15     1    1
     4     1     2    2
     5     1     3   am
     6     3     4    1
     7     4     5    1
     8     5     6    1
     9     6     7    1
    10     7     9    1
    11     9    10   ar
    12    10    11   ar
    13    11    12   ar
    14    12    13   ar
    15    13    14   ar
    16     7     8    1
    17     8    26    1
    18    26    27    1
    19    27    28    1
    20    28    29    1
    21    29    30    1
    22    30    31    1
    23    17    18    1
    24    18    19   ar
    25    19    20   ar
    26    20    21   ar
    27    21    22    1
    28    21    23   ar
    29    23    24    1
    30    23    25   ar
    31     8     3    1
    32    31    27    1
    33    25    18   ar
    34    14     9   ar
@<TRIPOS>MOLECULE
*****
 31 34 0 0 0
SMALL
GASTEIGER

@<TRIPOS>ATOM
      1 C           0.0983    1.5791   20.2517 C.2     1  UNL1        0.2459
      2 O          -0.2117    0.2495   20.8731 O.2     1  UNL1       -0.2730
      3 N           1.4244    1.8059   19.5881 N.am    1  UNL1       -0.2781
      4 C           1.7344    3.1354   18.9667 C.3     1  UNL1        0.0935
      5 C           3.0604    3.3621   18.3031 C.3     1  UNL1        0.0219
      6 C           4.0763    2.2594   18.2610 C.3     1  UNL1        0.0078
      7 C           3.7662    0.9298   18.8824 C.3     1  UNL1        0.0419
      8 C           2.4403    0.7031   19.5460 C.3     1  UNL1        0.0953
      9 C           4.7822   -0.1729   18.8402 C.ar    1  UNL1       -0.0209
     10 C           5.9976   -0.1068   19.7167 C.ar    1  UNL1       -0.0042
     11 C           7.0136   -1.2096   19.6745 C.ar    1  UNL1       -0.0003
     12 C           6.8140   -2.3785   18.7559 C.ar    1  UNL1       -0.0000
     13 C           5.5986   -2.4446   17.8795 C.ar    1  UNL1       -0.0003
     14 C           4.5826   -1.3418   17.9216 C.ar    1  UNL1       -0.0042
     15 C          -0.9176    2.6818   20.2939 C.3     1  UNL1        0.1773
     16 C          -0.3162    3.6283   22.6375 C.3     1  UNL1        0.1126
     17 N          -1.3454    3.2575   21.6113 N.pl3   1  UNL1       -0.2980
     18 C          -2.8026    3.4623   21.9025 C.ar    1  UNL1        0.0491
     19 C          -3.7883    3.5457   20.7749 C.ar    1  UNL1        0.0154
     20 C          -5.2454    3.7506   21.0661 C.ar    1  UNL1        0.0135
     21 C          -5.7168    3.8720   22.4849 C.ar    1  UNL1        0.0683
     22 CL         -7.1740    4.0768   22.7761 Cl      1  UNL1       -0.0814
     23 C          -4.7311    3.7885   23.6125 C.ar    1  UNL1        0.0694
     24 CL         -5.2027    3.9100   25.0313 Cl      1  UNL1       -0.0813
     25 C          -3.2740    3.5837   23.3213 C.ar    1  UNL1        0.0268
     26 C           2.1302   -0.6265   20.1674 C.3     1  UNL1        0.0924
     27 N           2.8748   -1.0749   21.3899 N.3     1  UNL1       -0.2713
     28 C           3.7472   -2.2906   21.4945 C.3     1  UNL1        0.0722
     29 C           4.2893   -2.3534   22.8917 C.3     1  UNL1        0.0188
     30 C           3.7519   -1.1764   23.6507 C.3     1  UNL1        0.0188
     31 C           2.8777   -0.3863   22.7225 C.3     1  UNL1        0.0722
@<TRIPOS>BOND
     1    16    17    1
     2    17    15    1
     3    15     1    1
     4     1     2    2
     5     1     3   am
     6     3     4    1
     7     4     5    1
     8     5     6    1
     9     6     7    1
    10     7     9    1
    11     9    10   ar
    12    10    11   ar
    13    11    12   ar
    14    12    13   ar
    15    13    14   ar
    16     7     8    1
    17     8    26    1
    18    26    27    1
    19    27    28    1
    20    28    29    1
    21    29    30    1
    22    30    31    1
    23    17    18    1
    24    18    19   ar
    25    19    20   ar
    26    20    21   ar
    27    21    22    1
    28    21    23   ar
    29    23    24    1
    30    23    25   ar
    31     8     3    1
    32    31    27    1
    33    25    18   ar
    34    14     9   ar
@<TRIPOS>MOLECULE
*****
 31 34 0 0 0
SMALL
GASTEIGER

@<TRIPOS>ATOM
      1 C          -9.9756  -19.4091   23.2715 C.2     1  UNL1        0.2459
      2 O          -9.0375  -19.2707   24.4337 O.2     1  UNL1       -0.2730
      3 N          -9.4315  -19.5362   21.8794 N.am    1  UNL1       -0.2781
      4 C         -10.3696  -19.6746   20.7172 C.3     1  UNL1        0.0935
      5 C          -9.8254  -19.8018   19.3253 C.3     1  UNL1        0.0219
      6 C          -8.3431  -19.7905   19.0955 C.3     1  UNL1        0.0078
      7 C          -7.4050  -19.6521   20.2577 C.3     1  UNL1        0.0419
      8 C          -7.9492  -19.5250   21.6497 C.3     1  UNL1        0.0953
      9 C          -5.9228  -19.6408   20.0279 C.ar    1  UNL1       -0.0209
     10 C          -5.2379  -18.3727   19.6122 C.ar    1  UNL1       -0.0042
     11 C          -3.7556  -18.3615   19.3824 C.ar    1  UNL1       -0.0003
     12 C          -2.9583  -19.6183   19.5683 C.ar    1  UNL1       -0.0000
     13 C          -3.6432  -20.8864   19.9840 C.ar    1  UNL1       -0.0003
     14 C          -5.1254  -20.8976   20.2137 C.ar    1  UNL1       -0.0042
     15 C         -11.4578  -19.4204   23.5013 C.3     1  UNL1        0.1773
     16 C         -13.4942  -17.8853   23.9981 C.3     1  UNL1        0.1126
     17 N         -12.2753  -18.2035   23.1838 N.pl3   1  UNL1       -0.2980
     18 C         -11.8739  -17.3047   22.0519 C.ar    1  UNL1        0.0491
     19 C         -12.7060  -17.2518   20.8049 C.ar    1  UNL1        0.0154
     20 C         -12.3046  -16.3530   19.6731 C.ar    1  UNL1        0.0135
     21 C         -11.0713  -15.5072   19.7882 C.ar    1  UNL1        0.0683
     22 CL        -10.6699  -14.6084   18.6563 Cl      1  UNL1       -0.0814
     23 C         -10.2392  -15.5601   21.0351 C.ar    1  UNL1        0.0694
     24 CL         -9.0057  -14.7142   21.1502 Cl      1  UNL1       -0.0813
     25 C         -10.6405  -16.4589   22.1670 C.ar    1  UNL1        0.0268
     26 C          -7.0111  -19.3866   22.8120 C.3     1  UNL1        0.0924
     27 N          -6.3518  -18.0684   23.0908 N.3     1  UNL1       -0.2713
     28 C          -4.8765  -17.8303   23.2206 C.3     1  UNL1        0.0722
     29 C          -4.6650  -16.3716   23.4988 C.3     1  UNL1        0.0188
     30 C          -6.0096  -15.7081   23.5410 C.3     1  UNL1        0.0188
     31 C          -7.0521  -16.7567   23.2888 C.3     1  UNL1        0.0722
@<TRIPOS>BOND
     1    16    17    1
     2    17    15    1
     3    15     1    1
     4     1     2    2
     5     1     3   am
     6     3     4    1
     7     4     5    1
     8     5     6    1
     9     6     7    1
    10     7     9    1
    11     9    10   ar
    12    10    11   ar
    13    11    12   ar
    14    12    13   ar
    15    13    14   ar
    16     7     8    1
    17     8    26    1
    18    26    27    1
    19    27    28    1
    20    28    29    1
    21    29    30    1
    22    30    31    1
    23    17    18    1
    24    18    19   ar
    25    19    20   ar
    26    20    21   ar
    27    21    22    1
    28    21    23   ar
    29    23    24    1
    30    23    25   ar
    31     8     3    1
    32    31    27    1
    33    25    18   ar
    34    14     9   ar
@<TRIPOS>MOLECULE
*****
 31 34 0 0 0
SMALL
GASTEIGER

@<TRIPOS>ATOM
      1 C          -6.2776  -20.3576   21.0222 C.2     1  UNL1        0.2459
      2 O          -6.0832  -19.5322   22.2594 O.2     1  UNL1       -0.2730
      3 N          -7.5365  -20.2193   20.2183 N.am    1  UNL1       -0.2781
      4 C          -7.7309  -21.0448   18.9811 C.3     1  UNL1        0.0935
      5 C          -8.9897  -20.9064   18.1773 C.3     1  UNL1        0.0219
      6 C         -10.0542  -19.9426   18.6108 C.3     1  UNL1        0.0078
      7 C          -9.8598  -19.1171   19.8480 C.3     1  UNL1        0.0419
      8 C          -8.6010  -19.2555   20.6518 C.3     1  UNL1        0.0953
      9 C         -10.9243  -18.1533   20.2814 C.ar    1  UNL1       -0.0209
     10 C         -11.0171  -16.8003   19.6405 C.ar    1  UNL1       -0.0042
     11 C         -12.0816  -15.8365   20.0740 C.ar    1  UNL1       -0.0003
     12 C         -13.0533  -16.2256   21.1483 C.ar    1  UNL1       -0.0000
     13 C         -12.9605  -17.5785   21.7893 C.ar    1  UNL1       -0.0003
     14 C         -11.8960  -18.5424   21.3558 C.ar    1  UNL1       -0.0042
     15 C          -5.2131  -21.3215   20.5887 C.3     1  UNL1        0.1773
     16 C          -3.4089  -21.6007   18.7402 C.3     1  UNL1        0.1126
     17 N          -3.9895  -20.8192   19.8814 N.pl3   1  UNL1       -0.2980
     18 C          -3.3463  -19.5353   20.3152 C.ar    1  UNL1        0.0491
     19 C          -2.9295  -18.5218   19.2909 C.ar    1  UNL1        0.0154
     20 C          -2.2864  -17.2380   19.7247 C.ar    1  UNL1        0.0135
     21 C          -2.0601  -16.9677   21.1826 C.ar    1  UNL1        0.0683
     22 CL         -1.4169  -15.6838   21.6164 Cl      1  UNL1       -0.0814
     23 C          -2.4769  -17.9812   22.2068 C.ar    1  UNL1        0.0694
     24 CL         -2.2507  -17.7108   23.6649 Cl      1  UNL1       -0.0813
     25 C          -3.1201  -19.2650   21.7731 C.ar    1  UNL1        0.0268
     26 C          -8.4066  -18.4300   21.8891 C.3     1  UNL1        0.0924
     27 N          -9.0775  -18.8290   23.1699 N.3     1  UNL1       -0.2713
     28 C          -9.3824  -20.2315   23.6058 C.3     1  UNL1        0.0722
     29 C         -10.0547  -20.1649   24.9451 C.3     1  UNL1        0.0188
     30 C         -10.1652  -18.7212   25.3370 C.3     1  UNL1        0.0188
     31 C          -9.5613  -17.8956   24.2399 C.3     1  UNL1        0.0722
@<TRIPOS>BOND
     1    16    17    1
     2    17    15    1
     3    15     1    1
     4     1     2    2
     5     1     3   am
     6     3     4    1
     7     4     5    1
     8     5     6    1
     9     6     7    1
    10     7     9    1
    11     9    10   ar
    12    10    11   ar
    13    11    12   ar
    14    12    13   ar
    15    13    14   ar
    16     7     8    1
    17     8    26    1
    18    26    27    1
    19    27    28    1
    20    28    29    1
    21    29    30    1
    22    30    31    1
    23    17    18    1
    24    18    19   ar
    25    19    20   ar
    26    20    21   ar
    27    21    22    1
    28    21    23   ar
    29    23    24    1
    30    23    25   ar
    31     8     3    1
    32    31    27    1
    33    25    18   ar
    34    14     9   ar
@<TRIPOS>MOLECULE
*****
 31 34 0 0 0
SMALL
GASTEIGER

@<TRIPOS>ATOM
      1 C          -6.7590  -19.9582   20.6961 C.2     1  UNL1        0.2459
      2 O          -6.2541  -19.7655   22.0953 O.2     1  UNL1       -0.2730
      3 N          -8.2065  -19.7213   20.3818 N.am    1  UNL1       -0.2781
      4 C          -8.7114  -19.9139   18.9826 C.3     1  UNL1        0.0935
      5 C         -10.1588  -19.6770   18.6683 C.3     1  UNL1        0.0219
      6 C         -11.1013  -19.2475   19.7533 C.3     1  UNL1        0.0078
      7 C         -10.5964  -19.0548   21.1526 C.3     1  UNL1        0.0419
      8 C          -9.1490  -19.2917   21.4668 C.3     1  UNL1        0.0953
      9 C         -11.5389  -18.6253   22.2375 C.ar    1  UNL1       -0.0209
     10 C         -12.4358  -17.4417   22.0267 C.ar    1  UNL1       -0.0042
     11 C         -13.3783  -17.0121   23.1117 C.ar    1  UNL1       -0.0003
     12 C         -13.4239  -17.7662   24.4075 C.ar    1  UNL1       -0.0000
     13 C         -12.5270  -18.9498   24.6184 C.ar    1  UNL1       -0.0003
     14 C         -11.5845  -19.3794   23.5334 C.ar    1  UNL1       -0.0042
     15 C          -5.8165  -20.3877   19.6111 C.3     1  UNL1        0.1773
     16 C          -3.6324  -21.7905   19.7200 C.3     1  UNL1        0.1126
     17 N          -4.3455  -20.4817   19.8892 N.pl3   1  UNL1       -0.2980
     18 C          -3.5877  -19.2670   20.3367 C.ar    1  UNL1        0.0491
     19 C          -3.0396  -18.3087   19.3211 C.ar    1  UNL1        0.0154
     20 C          -2.2817  -17.0941   19.7685 C.ar    1  UNL1        0.0135
     21 C          -2.0719  -16.8377   21.2314 C.ar    1  UNL1        0.0683
     22 CL         -1.3140  -15.6230   21.6788 Cl      1  UNL1       -0.0814
     23 C          -2.6200  -17.7959   22.2470 C.ar    1  UNL1        0.0694
     24 CL         -2.4102  -17.5395   23.7100 Cl      1  UNL1       -0.0813
     25 C          -3.3778  -19.0106   21.7996 C.ar    1  UNL1        0.0268
     26 C          -8.6440  -19.0991   22.8661 C.3     1  UNL1        0.0924
     27 N          -8.5063  -17.7159   23.4300 N.3     1  UNL1       -0.2713
     28 C          -9.1664  -17.2015   24.6748 C.3     1  UNL1        0.0722
     29 C          -8.7525  -15.7720   24.8622 C.3     1  UNL1        0.0188
     30 C          -7.8365  -15.4029   23.7332 C.3     1  UNL1        0.0188
     31 C          -7.6844  -16.6043   22.8480 C.3     1  UNL1        0.0722
@<TRIPOS>BOND
     1    16    17    1
     2    17    15    1
     3    15     1    1
     4     1     2    2
     5     1     3   am
     6     3     4    1
     7     4     5    1
     8     5     6    1
     9     6     7    1
    10     7     9    1
    11     9    10   ar
    12    10    11   ar
    13    11    12   ar
    14    12    13   ar
    15    13    14   ar
    16     7     8    1
    17     8    26    1
    18    26    27    1
    19    27    28    1
    20    28    29    1
    21    29    30    1
    22    30    31    1
    23    17    18    1
    24    18    19   ar
    25    19    20   ar
    26    20    21   ar
    27    21    22    1
    28    21    23   ar
    29    23    24    1
    30    23    25   ar
    31     8     3    1
    32    31    27    1
    33    25    18   ar
    34    14     9   ar
