@<TRIPOS>MOLECULE
*****
 34 36 0 0 0
SMALL
GASTEIGER

@<TRIPOS>ATOM
      1 O         -10.7162  -19.3216   18.5702 O.2     1  UNL1       -0.2262
      2 C         -10.5962  -19.1451   20.0549 C.2     1  UNL1        0.4054
      3 N          -9.2626  -19.3014   20.7234 N.am    1  UNL1       -0.2432
      4 C          -9.1426  -19.1249   22.2082 C.3     1  UNL1        0.1141
      5 C          -7.8089  -19.2812   22.8767 C.3     1  UNL1        0.0943
      6 N          -6.5953  -19.6140   22.0605 N.3     1  UNL1       -0.2659
      7 C          -6.7152  -19.7905   20.5758 C.3     1  UNL1        0.0943
      8 C          -8.0489  -19.6342   19.9073 C.3     1  UNL1        0.1141
      9 O         -11.8099  -18.8124   20.8711 O.3     1  UNL1       -0.4205
     10 C         -11.9503  -17.4513   21.4858 C.3     1  UNL1        0.3579
     11 C         -11.2541  -16.2744   20.8691 C.3     1  UNL1        0.4429
     12 F         -10.5580  -15.0975   20.2524 F       1  UNL1       -0.1661
     13 F         -10.3034  -16.2293   22.0283 F       1  UNL1       -0.1661
     14 F         -12.2049  -16.3194   19.7098 F       1  UNL1       -0.1661
     15 C         -12.7868  -17.2672   22.7172 C.3     1  UNL1        0.4429
     16 F         -13.6232  -17.0830   23.9486 F       1  UNL1       -0.1661
     17 F         -12.5967  -18.7144   23.0627 F       1  UNL1       -0.1661
     18 F         -12.9768  -15.8200   22.3717 F       1  UNL1       -0.1661
     19 C          -5.2616  -19.7703   22.7291 C.3     1  UNL1        0.1005
     20 C          -4.0399  -19.1485   22.1201 C.ar    1  UNL1        0.0072
     21 C          -3.2672  -19.8877   21.0682 C.ar    1  UNL1       -0.0017
     22 C          -2.0455  -19.2659   20.4592 C.ar    1  UNL1        0.0037
     23 C          -1.5965  -17.9049   20.9022 C.ar    1  UNL1        0.0726
     24 C          -2.3692  -17.1658   21.9541 C.ar    1  UNL1        0.0181
     25 C          -3.5909  -17.7876   22.5631 C.ar    1  UNL1        0.0451
     26 N          -4.3636  -17.0484   23.6151 N.pl3   1  UNL1       -0.3077
     27 C          -4.0650  -17.0390   25.0850 C.3     1  UNL1        0.0908
     28 C          -5.0874  -16.1737   25.7602 C.3     1  UNL1        0.0232
     29 C          -6.0179  -15.6482   24.7075 C.3     1  UNL1        0.0232
     30 C          -5.5706  -16.1889   23.3818 C.3     1  UNL1        0.0908
     31 C          -0.3748  -17.2831   20.2932 C.3     1  UNL1        0.4186
     32 F           0.8469  -16.6614   19.6842 F       1  UNL1       -0.1659
     33 F          -0.7730  -15.9505   20.8549 F       1  UNL1       -0.1659
     34 F           0.0234  -18.6158   19.7316 F       1  UNL1       -0.1659
@<TRIPOS>BOND
     1     1     2    2
     2     2     9    1
     3     9    10    1
     4    10    11    1
     5    11    12    1
     6    11    13    1
     7    11    14    1
     8    10    15    1
     9    15    16    1
    10    15    17    1
    11    15    18    1
    12     2     3   am
    13     3     4    1
    14     4     5    1
    15     5     6    1
    16     6    19    1
    17    19    20    1
    18    20    21   ar
    19    21    22   ar
    20    22    23   ar
    21    23    31    1
    22    31    32    1
    23    31    33    1
    24    31    34    1
    25    23    24   ar
    26    24    25   ar
    27    25    26    1
    28    26    27    1
    29    27    28    1
    30    28    29    1
    31    29    30    1
    32     6     7    1
    33     7     8    1
    34     8     3    1
    35    25    20   ar
    36    30    26    1
@<TRIPOS>MOLECULE
*****
 34 36 0 0 0
SMALL
GASTEIGER

@<TRIPOS>ATOM
      1 O          -2.3634  -21.1607   20.0600 O.2     1  UNL1       -0.2262
      2 C          -2.7274  -19.9560   20.8761 C.2     1  UNL1        0.4054
      3 N          -4.1380  -19.7701   21.3509 N.am    1  UNL1       -0.2432
      4 C          -4.5020  -18.5654   22.1671 C.3     1  UNL1        0.1141
      5 C          -5.9127  -18.3795   22.6419 C.3     1  UNL1        0.0943
      6 N          -6.9593  -19.3982   22.3006 N.3     1  UNL1       -0.2659
      7 C          -6.5953  -20.6029   21.4844 C.3     1  UNL1        0.0943
      8 C          -5.1847  -20.7888   21.0096 C.3     1  UNL1        0.1141
      9 O          -1.6807  -18.9372   21.2175 O.3     1  UNL1       -0.4205
     10 C          -1.2328  -17.9468   20.1838 C.3     1  UNL1        0.3579
     11 C           0.2021  -17.5123   20.1335 C.3     1  UNL1        0.4429
     12 F           1.6369  -17.0780   20.0832 F       1  UNL1       -0.1661
     13 F           0.6117  -18.9079   19.7668 F       1  UNL1       -0.1661
     14 F          -0.2076  -16.1167   20.5001 F       1  UNL1       -0.1661
     15 C          -2.2197  -17.3908   19.2005 C.3     1  UNL1        0.4429
     16 F          -3.2066  -16.8348   18.2173 F       1  UNL1       -0.1661
     17 F          -2.7954  -16.5150   20.2736 F       1  UNL1       -0.1661
     18 F          -1.6439  -18.2666   18.1275 F       1  UNL1       -0.1661
     19 C          -8.3700  -19.2123   22.7754 C.3     1  UNL1        0.1005
     20 C          -9.3189  -18.3560   21.9904 C.ar    1  UNL1        0.0072
     21 C         -10.0594  -18.9345   20.8212 C.ar    1  UNL1       -0.0017
     22 C         -11.0082  -18.0781   20.0362 C.ar    1  UNL1        0.0037
     23 C         -11.2167  -16.6432   20.4204 C.ar    1  UNL1        0.0726
     24 C         -10.4762  -16.0647   21.5895 C.ar    1  UNL1        0.0181
     25 C          -9.5273  -16.9210   22.3746 C.ar    1  UNL1        0.0451
     26 N          -8.7869  -16.3425   23.5438 N.pl3   1  UNL1       -0.3077
     27 C          -7.5976  -15.4313   23.4708 C.3     1  UNL1        0.0908
     28 C          -7.1814  -15.0992   24.8731 C.3     1  UNL1        0.0232
     29 C          -8.1135  -15.8052   25.8128 C.3     1  UNL1        0.0232
     30 C          -9.1057  -16.5736   24.9912 C.3     1  UNL1        0.0908
     31 C         -12.1656  -15.7869   19.6353 C.3     1  UNL1        0.4186
     32 F         -13.1145  -14.9306   18.8503 F       1  UNL1       -0.1659
     33 F         -11.0492  -15.3950   18.7133 F       1  UNL1       -0.1659
     34 F         -13.2819  -16.1787   20.5573 F       1  UNL1       -0.1659
@<TRIPOS>BOND
     1     1     2    2
     2     2     9    1
     3     9    10    1
     4    10    11    1
     5    11    12    1
     6    11    13    1
     7    11    14    1
     8    10    15    1
     9    15    16    1
    10    15    17    1
    11    15    18    1
    12     2     3   am
    13     3     4    1
    14     4     5    1
    15     5     6    1
    16     6    19    1
    17    19    20    1
    18    20    21   ar
    19    21    22   ar
    20    22    23   ar
    21    23    31    1
    22    31    32    1
    23    31    33    1
    24    31    34    1
    25    23    24   ar
    26    24    25   ar
    27    25    26    1
    28    26    27    1
    29    27    28    1
    30    28    29    1
    31    29    30    1
    32     6     7    1
    33     7     8    1
    34     8     3    1
    35    25    20   ar
    36    30    26    1
@<TRIPOS>MOLECULE
*****
 34 36 0 0 0
SMALL
GASTEIGER

@<TRIPOS>ATOM
      1 O          -2.4796  -21.1866   19.7780 O.2     1  UNL1       -0.2262
      2 C          -2.7665  -20.0285   20.6871 C.2     1  UNL1        0.4054
      3 N          -4.1581  -19.8049   21.2005 N.am    1  UNL1       -0.2432
      4 C          -4.4451  -18.6469   22.1096 C.3     1  UNL1        0.1141
      5 C          -5.8366  -18.4233   22.6230 C.3     1  UNL1        0.0943
      6 N          -6.9412  -19.3577   22.2272 N.3     1  UNL1       -0.2659
      7 C          -6.6543  -20.5157   21.3181 C.3     1  UNL1        0.0943
      8 C          -5.2627  -20.7393   20.8047 C.3     1  UNL1        0.1141
      9 O          -1.6619  -19.0941   21.0829 O.3     1  UNL1       -0.4205
     10 C          -1.2249  -18.0091   20.1439 C.3     1  UNL1        0.3579
     11 C          -2.2045  -17.4161   19.1750 C.3     1  UNL1        0.4429
     12 F          -3.1842  -16.8231   18.2061 F       1  UNL1       -0.1661
     13 F          -1.5716  -18.1935   18.0592 F       1  UNL1       -0.1661
     14 F          -2.8375  -16.6387   20.2908 F       1  UNL1       -0.1661
     15 C           0.1918  -17.5171   20.1737 C.3     1  UNL1        0.4429
     16 F           1.6085  -17.0251   20.2035 F       1  UNL1       -0.1661
     17 F          -0.2948  -16.1356   20.4972 F       1  UNL1       -0.1661
     18 F           0.6784  -18.8986   19.8501 F       1  UNL1       -0.1661
     19 C          -8.3328  -19.1341   22.7406 C.3     1  UNL1        0.1005
     20 C          -9.2939  -18.2888   21.9585 C.ar    1  UNL1        0.0072
     21 C         -10.0765  -18.8920   20.8298 C.ar    1  UNL1       -0.0017
     22 C         -11.0376  -18.0467   20.0477 C.ar    1  UNL1        0.0037
     23 C         -11.2162  -16.5983   20.3942 C.ar    1  UNL1        0.0726
     24 C         -10.4337  -15.9951   21.5228 C.ar    1  UNL1        0.0181
     25 C          -9.4725  -16.8404   22.3050 C.ar    1  UNL1        0.0451
     26 N          -8.6900  -16.2372   23.4336 N.pl3   1  UNL1       -0.3077
     27 C          -7.4484  -15.4061   23.3003 C.3     1  UNL1        0.0908
     28 C          -7.0027  -15.0144   24.6780 C.3     1  UNL1        0.0232
     29 C          -7.9689  -15.6034   25.6627 C.3     1  UNL1        0.0232
     30 C          -9.0117  -16.3591   24.8936 C.3     1  UNL1        0.0908
     31 C         -12.1774  -15.7530   19.6121 C.3     1  UNL1        0.4186
     32 F         -13.1386  -14.9077   18.8299 F       1  UNL1       -0.1659
     33 F         -13.2809  -16.1373   20.5527 F       1  UNL1       -0.1659
     34 F         -11.0740  -15.3687   18.6715 F       1  UNL1       -0.1659
@<TRIPOS>BOND
     1     1     2    2
     2     2     9    1
     3     9    10    1
     4    10    11    1
     5    11    12    1
     6    11    13    1
     7    11    14    1
     8    10    15    1
     9    15    16    1
    10    15    17    1
    11    15    18    1
    12     2     3   am
    13     3     4    1
    14     4     5    1
    15     5     6    1
    16     6    19    1
    17    19    20    1
    18    20    21   ar
    19    21    22   ar
    20    22    23   ar
    21    23    31    1
    22    31    32    1
    23    31    33    1
    24    31    34    1
    25    23    24   ar
    26    24    25   ar
    27    25    26    1
    28    26    27    1
    29    27    28    1
    30    28    29    1
    31    29    30    1
    32     6     7    1
    33     7     8    1
    34     8     3    1
    35    25    20   ar
    36    30    26    1
@<TRIPOS>MOLECULE
*****
 34 36 0 0 0
SMALL
GASTEIGER

@<TRIPOS>ATOM
      1 O          -2.8193  -18.4297   22.9364 O.2     1  UNL1       -0.2262
      2 C          -3.2867  -18.8347   21.5699 C.2     1  UNL1        0.4054
      3 N          -4.7539  -18.8754   21.2606 N.am    1  UNL1       -0.2432
      4 C          -5.2214  -19.2804   19.8941 C.3     1  UNL1        0.1141
      5 C          -6.6886  -19.3212   19.5848 C.3     1  UNL1        0.0943
      6 N          -7.6883  -18.9570   20.6421 N.3     1  UNL1       -0.2659
      7 C          -7.2209  -18.5520   22.0086 C.3     1  UNL1        0.0943
      8 C          -5.7537  -18.5112   22.3179 C.3     1  UNL1        0.1141
      9 O          -2.2870  -19.1989   20.5127 O.3     1  UNL1       -0.4205
     10 C          -1.5686  -18.1208   19.7566 C.3     1  UNL1        0.3579
     11 C          -2.2635  -17.3955   18.6425 C.3     1  UNL1        0.4429
     12 F          -2.9585  -16.6703   17.5285 F       1  UNL1       -0.1661
     13 F          -3.1016  -16.6589   19.6449 F       1  UNL1       -0.1661
     14 F          -1.4254  -18.1321   17.6400 F       1  UNL1       -0.1661
     15 C          -0.1553  -17.7681   20.1144 C.3     1  UNL1        0.4429
     16 F           1.2580  -17.4153   20.4723 F       1  UNL1       -0.1661
     17 F           0.2865  -19.1494   19.7314 F       1  UNL1       -0.1661
     18 F          -0.5970  -16.3868   20.4975 F       1  UNL1       -0.1661
     19 C          -9.1555  -18.9977   20.3328 C.3     1  UNL1        0.1005
     20 C         -10.1592  -18.8819   21.4414 C.ar    1  UNL1        0.0072
     21 C         -10.4448  -20.0629   22.3210 C.ar    1  UNL1       -0.0017
     22 C         -11.4485  -19.9470   23.4297 C.ar    1  UNL1        0.0037
     23 C         -12.1666  -18.6502   23.6588 C.ar    1  UNL1        0.0726
     24 C         -11.8811  -17.4692   22.7792 C.ar    1  UNL1        0.0181
     25 C         -10.8773  -17.5850   21.6705 C.ar    1  UNL1        0.0451
     26 N         -10.5918  -16.4040   20.7909 N.pl3   1  UNL1       -0.3077
     27 C          -9.5153  -15.3824   21.0087 C.3     1  UNL1        0.0908
     28 C          -9.5908  -14.3842   19.8915 C.3     1  UNL1        0.0232
     29 C         -10.7139  -14.7890   18.9833 C.3     1  UNL1        0.0232
     30 C         -11.3325  -16.0373   19.5392 C.3     1  UNL1        0.0908
     31 C         -13.1704  -18.5344   24.7675 C.3     1  UNL1        0.4186
     32 F         -14.1741  -18.4185   25.8761 F       1  UNL1       -0.1659
     33 F         -12.2497  -19.2892   25.6799 F       1  UNL1       -0.1659
     34 F         -14.0911  -17.7796   23.8551 F       1  UNL1       -0.1659
@<TRIPOS>BOND
     1     1     2    2
     2     2     9    1
     3     9    10    1
     4    10    11    1
     5    11    12    1
     6    11    13    1
     7    11    14    1
     8    10    15    1
     9    15    16    1
    10    15    17    1
    11    15    18    1
    12     2     3   am
    13     3     4    1
    14     4     5    1
    15     5     6    1
    16     6    19    1
    17    19    20    1
    18    20    21   ar
    19    21    22   ar
    20    22    23   ar
    21    23    31    1
    22    31    32    1
    23    31    33    1
    24    31    34    1
    25    23    24   ar
    26    24    25   ar
    27    25    26    1
    28    26    27    1
    29    27    28    1
    30    28    29    1
    31    29    30    1
    32     6     7    1
    33     7     8    1
    34     8     3    1
    35    25    20   ar
    36    30    26    1
@<TRIPOS>MOLECULE
*****
 34 36 0 0 0
SMALL
GASTEIGER

@<TRIPOS>ATOM
      1 O         -10.9313  -18.3929   19.4249 O.2     1  UNL1       -0.2262
      2 C         -10.3931  -17.9760   20.7614 C.2     1  UNL1        0.4054
      3 N          -9.0273  -18.4219   21.1923 N.am    1  UNL1       -0.2432
      4 C          -8.4890  -18.0050   22.5288 C.3     1  UNL1        0.1141
      5 C          -7.1232  -18.4510   22.9597 C.3     1  UNL1        0.0943
      6 N          -6.2956  -19.3139   22.0540 N.3     1  UNL1       -0.2659
      7 C          -6.8339  -19.7309   20.7174 C.3     1  UNL1        0.0943
      8 C          -8.1997  -19.2849   20.2866 C.3     1  UNL1        0.1141
      9 O         -11.2207  -17.1130   21.6671 O.3     1  UNL1       -0.4205
     10 C         -11.8144  -17.6910   22.9175 C.3     1  UNL1        0.3579
     11 C         -13.2824  -17.9928   22.9807 C.3     1  UNL1        0.4429
     12 F         -14.7504  -18.2945   23.0440 F       1  UNL1       -0.1661
     13 F         -13.2227  -17.9693   24.4793 F       1  UNL1       -0.1661
     14 F         -13.3422  -18.0163   21.4821 F       1  UNL1       -0.1661
     15 C         -10.9401  -17.9673   24.1046 C.3     1  UNL1        0.4429
     16 F         -10.0659  -18.2436   25.2918 F       1  UNL1       -0.1661
     17 F         -11.2755  -19.4264   24.0121 F       1  UNL1       -0.1661
     18 F         -10.6048  -16.5083   24.1972 F       1  UNL1       -0.1661
     19 C          -4.9298  -19.7599   22.4848 C.3     1  UNL1        0.1005
     20 C          -3.7099  -19.1274   21.8834 C.ar    1  UNL1        0.0072
     21 C          -2.9821  -19.8147   20.7662 C.ar    1  UNL1       -0.0017
     22 C          -1.7622  -19.1822   20.1648 C.ar    1  UNL1        0.0037
     23 C          -1.2700  -17.8624   20.6805 C.ar    1  UNL1        0.0726
     24 C          -1.9977  -17.1751   21.7976 C.ar    1  UNL1        0.0181
     25 C          -3.2177  -17.8076   22.3991 C.ar    1  UNL1        0.0451
     26 N          -3.9455  -17.1203   23.5162 N.pl3   1  UNL1       -0.3077
     27 C          -3.9280  -17.5251   24.9604 C.3     1  UNL1        0.0908
     28 C          -4.7902  -16.5625   25.7220 C.3     1  UNL1        0.0232
     29 C          -5.3405  -15.5627   24.7485 C.3     1  UNL1        0.0232
     30 C          -4.8184  -15.9075   23.3852 C.3     1  UNL1        0.0908
     31 C          -0.0500  -17.2299   20.0790 C.3     1  UNL1        0.4186
     32 F           1.1699  -16.5975   19.4776 F       1  UNL1       -0.1659
     33 F           0.4240  -18.5779   19.6228 F       1  UNL1       -0.1659
     34 F          -0.5240  -15.8819   20.5352 F       1  UNL1       -0.1659
@<TRIPOS>BOND
     1     1     2    2
     2     2     9    1
     3     9    10    1
     4    10    11    1
     5    11    12    1
     6    11    13    1
     7    11    14    1
     8    10    15    1
     9    15    16    1
    10    15    17    1
    11    15    18    1
    12     2     3   am
    13     3     4    1
    14     4     5    1
    15     5     6    1
    16     6    19    1
    17    19    20    1
    18    20    21   ar
    19    21    22   ar
    20    22    23   ar
    21    23    31    1
    22    31    32    1
    23    31    33    1
    24    31    34    1
    25    23    24   ar
    26    24    25   ar
    27    25    26    1
    28    26    27    1
    29    27    28    1
    30    28    29    1
    31    29    30    1
    32     6     7    1
    33     7     8    1
    34     8     3    1
    35    25    20   ar
    36    30    26    1
@<TRIPOS>MOLECULE
*****
 34 36 0 0 0
SMALL
GASTEIGER

@<TRIPOS>ATOM
      1 O         -10.9520  -18.4452   19.6235 O.2     1  UNL1       -0.2262
      2 C         -10.4227  -18.1443   20.9943 C.2     1  UNL1        0.4054
      3 N          -9.0324  -18.5635   21.3702 N.am    1  UNL1       -0.2432
      4 C          -8.5030  -18.2626   22.7410 C.3     1  UNL1        0.1141
      5 C          -7.1127  -18.6819   23.1168 C.3     1  UNL1        0.0943
      6 N          -6.2517  -19.4021   22.1218 N.3     1  UNL1       -0.2659
      7 C          -6.7811  -19.7030   20.7510 C.3     1  UNL1        0.0943
      8 C          -8.1714  -19.2837   20.3752 C.3     1  UNL1        0.1141
      9 O         -11.2837  -17.4241   21.9893 O.3     1  UNL1       -0.4205
     10 C         -11.8953  -18.1754   23.1345 C.3     1  UNL1        0.3579
     11 C         -11.0252  -18.9820   24.0524 C.3     1  UNL1        0.4429
     12 F         -10.1552  -19.7886   24.9702 F       1  UNL1       -0.1661
     13 F         -11.3481  -20.2204   23.2701 F       1  UNL1       -0.1661
     14 F         -10.7023  -17.7436   24.8347 F       1  UNL1       -0.1661
     15 C         -13.3769  -18.1201   23.3619 C.3     1  UNL1        0.4429
     16 F         -14.8585  -18.0648   23.5892 F       1  UNL1       -0.1661
     17 F         -13.5873  -17.7977   21.9122 F       1  UNL1       -0.1661
     18 F         -13.1665  -18.4425   24.8116 F       1  UNL1       -0.1661
     19 C          -4.8614  -19.8213   22.4977 C.3     1  UNL1        0.1005
     20 C          -3.6787  -19.1355   21.8807 C.ar    1  UNL1        0.0072
     21 C          -2.9352  -19.7904   20.7544 C.ar    1  UNL1       -0.0017
     22 C          -1.7525  -19.1046   20.1375 C.ar    1  UNL1        0.0037
     23 C          -1.3131  -17.7638   20.6468 C.ar    1  UNL1        0.0726
     24 C          -2.0564  -17.1089   21.7730 C.ar    1  UNL1        0.0181
     25 C          -3.2393  -17.7948   22.3900 C.ar    1  UNL1        0.0451
     26 N          -3.9826  -17.1399   23.5163 N.pl3   1  UNL1       -0.3077
     27 C          -4.9311  -15.9844   23.3926 C.3     1  UNL1        0.0908
     28 C          -5.4427  -15.6558   24.7638 C.3     1  UNL1        0.0232
     29 C          -4.8105  -16.6083   25.7350 C.3     1  UNL1        0.0232
     30 C          -3.9081  -17.5254   24.9640 C.3     1  UNL1        0.0908
     31 C          -0.1302  -17.0780   20.0298 C.3     1  UNL1        0.4186
     32 F           1.0525  -16.3923   19.4127 F       1  UNL1       -0.1659
     33 F          -0.5364  -15.7901   20.6826 F       1  UNL1       -0.1659
     34 F           0.2759  -18.3659   19.3769 F       1  UNL1       -0.1659
@<TRIPOS>BOND
     1     1     2    2
     2     2     9    1
     3     9    10    1
     4    10    11    1
     5    11    12    1
     6    11    13    1
     7    11    14    1
     8    10    15    1
     9    15    16    1
    10    15    17    1
    11    15    18    1
    12     2     3   am
    13     3     4    1
    14     4     5    1
    15     5     6    1
    16     6    19    1
    17    19    20    1
    18    20    21   ar
    19    21    22   ar
    20    22    23   ar
    21    23    31    1
    22    31    32    1
    23    31    33    1
    24    31    34    1
    25    23    24   ar
    26    24    25   ar
    27    25    26    1
    28    26    27    1
    29    27    28    1
    30    28    29    1
    31    29    30    1
    32     6     7    1
    33     7     8    1
    34     8     3    1
    35    25    20   ar
    36    30    26    1
@<TRIPOS>MOLECULE
*****
 34 36 0 0 0
SMALL
GASTEIGER

@<TRIPOS>ATOM
      1 O          -3.3380  -16.8494   23.6251 O.2     1  UNL1       -0.2262
      2 C          -3.6168  -17.8604   22.5527 C.2     1  UNL1        0.4054
      3 N          -5.0319  -18.1683   22.1618 N.am    1  UNL1       -0.2432
      4 C          -5.3107  -19.1792   21.0894 C.3     1  UNL1        0.1141
      5 C          -6.7257  -19.4871   20.6985 C.3     1  UNL1        0.0943
      6 N          -7.8620  -18.7840   21.3800 N.3     1  UNL1       -0.2659
      7 C          -7.5832  -17.7731   22.4525 C.3     1  UNL1        0.0943
      8 C          -6.1681  -17.4652   22.8433 C.3     1  UNL1        0.1141
      9 O          -2.4805  -18.5635   21.8711 O.3     1  UNL1       -0.4205
     10 C          -1.9429  -18.0368   20.5736 C.3     1  UNL1        0.3579
     11 C          -0.4970  -17.6534   20.4613 C.3     1  UNL1        0.4429
     12 F           0.9488  -17.2699   20.3491 F       1  UNL1       -0.1661
     13 F          -0.8067  -16.3118   21.0564 F       1  UNL1       -0.1661
     14 F          -0.1873  -18.9950   19.8663 F       1  UNL1       -0.1661
     15 C          -2.8509  -17.8937   19.3883 C.3     1  UNL1        0.4429
     16 F          -3.7590  -17.7505   18.2031 F       1  UNL1       -0.1661
     17 F          -2.9339  -16.4157   19.6304 F       1  UNL1       -0.1661
     18 F          -2.7680  -19.3717   19.1463 F       1  UNL1       -0.1661
     19 C          -9.2771  -19.0919   20.9892 C.3     1  UNL1        0.1005
     20 C         -10.3813  -18.9458   21.9937 C.ar    1  UNL1        0.0072
     21 C         -10.6025  -20.0118   23.0256 C.ar    1  UNL1       -0.0017
     22 C         -11.7067  -19.8657   24.0302 C.ar    1  UNL1        0.0037
     23 C         -12.5900  -18.6536   24.0029 C.ar    1  UNL1        0.0726
     24 C         -12.3689  -17.5876   22.9710 C.ar    1  UNL1        0.0181
     25 C         -11.2646  -17.7337   21.9664 C.ar    1  UNL1        0.0451
     26 N         -11.0435  -16.6677   20.9346 N.pl3   1  UNL1       -0.3077
     27 C         -11.8097  -16.5067   19.6551 C.3     1  UNL1        0.0908
     28 C         -11.2572  -15.3151   18.9308 C.3     1  UNL1        0.0232
     29 C         -10.1494  -14.7396   19.7626 C.3     1  UNL1        0.0232
     30 C         -10.0174  -15.5756   21.0009 C.3     1  UNL1        0.0908
     31 C         -13.6943  -18.5076   25.0075 C.3     1  UNL1        0.4186
     32 F         -14.7986  -18.3615   26.0120 F       1  UNL1       -0.1659
     33 F         -12.7620  -18.9489   26.0965 F       1  UNL1       -0.1659
     34 F         -14.6265  -18.0662   23.9185 F       1  UNL1       -0.1659
@<TRIPOS>BOND
     1     1     2    2
     2     2     9    1
     3     9    10    1
     4    10    11    1
     5    11    12    1
     6    11    13    1
     7    11    14    1
     8    10    15    1
     9    15    16    1
    10    15    17    1
    11    15    18    1
    12     2     3   am
    13     3     4    1
    14     4     5    1
    15     5     6    1
    16     6    19    1
    17    19    20    1
    18    20    21   ar
    19    21    22   ar
    20    22    23   ar
    21    23    31    1
    22    31    32    1
    23    31    33    1
    24    31    34    1
    25    23    24   ar
    26    24    25   ar
    27    25    26    1
    28    26    27    1
    29    27    28    1
    30    28    29    1
    31    29    30    1
    32     6     7    1
    33     7     8    1
    34     8     3    1
    35    25    20   ar
    36    30    26    1
@<TRIPOS>MOLECULE
*****
 34 36 0 0 0
SMALL
GASTEIGER

@<TRIPOS>ATOM
      1 O           5.6016    0.0098   18.0913 O.2     1  UNL1       -0.2262
      2 C           4.1190   -0.2177   18.1012 C.2     1  UNL1        0.4054
      3 N           3.1826    0.9460   18.2391 N.am    1  UNL1       -0.2432
      4 C           1.7000    0.7186   18.2491 C.3     1  UNL1        0.1141
      5 C           0.7636    1.8822   18.3870 C.3     1  UNL1        0.0943
      6 N           1.3098    3.2733   18.5150 N.3     1  UNL1       -0.2659
      7 C           2.7924    3.5008   18.5051 C.3     1  UNL1        0.0943
      8 C           3.7288    2.3371   18.3671 C.3     1  UNL1        0.1141
      9 O           3.5728   -1.6088   17.9732 O.3     1  UNL1       -0.4205
     10 C           3.8271   -2.6168   19.0545 C.3     1  UNL1        0.3579
     11 C           4.2946   -3.9970   18.6983 C.3     1  UNL1        0.4429
     12 F           4.7620   -5.3770   18.3422 F       1  UNL1       -0.1661
     13 F           5.4745   -3.4120   17.9804 F       1  UNL1       -0.1661
     14 F           3.1146   -4.5819   19.4162 F       1  UNL1       -0.1661
     15 C           3.6140   -2.2448   20.4919 C.3     1  UNL1        0.4429
     16 F           3.4009   -1.8728   21.9293 F       1  UNL1       -0.1661
     17 F           5.0221   -2.6546   20.8067 F       1  UNL1       -0.1661
     18 F           2.2059   -1.8350   20.1770 F       1  UNL1       -0.1661
     19 C           0.3734    4.4370   18.6530 C.3     1  UNL1        0.1005
     20 C          -1.1095    4.2118   18.6420 C.ar    1  UNL1        0.0072
     21 C          -1.8686    4.2777   17.3498 C.ar    1  UNL1       -0.0017
     22 C          -3.3515    4.0524   17.3388 C.ar    1  UNL1        0.0037
     23 C          -4.0755    3.7613   18.6199 C.ar    1  UNL1        0.0726
     24 C          -3.3165    3.6954   19.9120 C.ar    1  UNL1        0.0181
     25 C          -1.8335    3.9207   19.9230 C.ar    1  UNL1        0.0451
     26 N          -1.0745    3.8548   21.2151 N.pl3   1  UNL1       -0.3077
     27 C          -0.4393    2.6297   21.8030 C.3     1  UNL1        0.0908
     28 C           0.2103    3.0201   23.0974 C.3     1  UNL1        0.0232
     29 C          -0.0233    4.4866   23.3095 C.3     1  UNL1        0.0232
     30 C          -0.8174    5.0024   22.1462 C.3     1  UNL1        0.0908
     31 C          -5.5585    3.5361   18.6088 C.3     1  UNL1        0.4186
     32 F          -7.0414    3.3109   18.5977 F       1  UNL1       -0.1659
     33 F          -5.4694    2.8832   19.9563 F       1  UNL1       -0.1659
     34 F          -5.6475    4.1890   17.2613 F       1  UNL1       -0.1659
@<TRIPOS>BOND
     1     1     2    2
     2     2     9    1
     3     9    10    1
     4    10    11    1
     5    11    12    1
     6    11    13    1
     7    11    14    1
     8    10    15    1
     9    15    16    1
    10    15    17    1
    11    15    18    1
    12     2     3   am
    13     3     4    1
    14     4     5    1
    15     5     6    1
    16     6    19    1
    17    19    20    1
    18    20    21   ar
    19    21    22   ar
    20    22    23   ar
    21    23    31    1
    22    31    32    1
    23    31    33    1
    24    31    34    1
    25    23    24   ar
    26    24    25   ar
    27    25    26    1
    28    26    27    1
    29    27    28    1
    30    28    29    1
    31    29    30    1
    32     6     7    1
    33     7     8    1
    34     8     3    1
    35    25    20   ar
    36    30    26    1
@<TRIPOS>MOLECULE
*****
 34 36 0 0 0
SMALL
GASTEIGER

@<TRIPOS>ATOM
      1 O           5.5866   -0.0503   18.0106 O.2     1  UNL1       -0.2262
      2 C           4.1040   -0.2710   18.0649 C.2     1  UNL1        0.4054
      3 N           3.1764    0.8989   18.2096 N.am    1  UNL1       -0.2432
      4 C           1.6938    0.6783   18.2640 C.3     1  UNL1        0.1141
      5 C           0.7662    1.8482   18.4087 C.3     1  UNL1        0.0943
      6 N           1.3212    3.2387   18.4990 N.3     1  UNL1       -0.2659
      7 C           2.8039    3.4594   18.4446 C.3     1  UNL1        0.0943
      8 C           3.7315    2.2895   18.2999 C.3     1  UNL1        0.1141
      9 O           3.5489   -1.6615   17.9746 O.3     1  UNL1       -0.4205
     10 C           3.8121   -2.6470   19.0744 C.3     1  UNL1        0.3579
     11 C           3.6160   -2.2436   20.5058 C.3     1  UNL1        0.4429
     12 F           3.4197   -1.8402   21.9371 F       1  UNL1       -0.1661
     13 F           2.2079   -1.8298   20.1961 F       1  UNL1       -0.1661
     14 F           5.0241   -2.6574   20.8155 F       1  UNL1       -0.1661
     15 C           4.2715   -4.0359   18.7428 C.3     1  UNL1        0.4429
     16 F           4.7309   -5.4248   18.4113 F       1  UNL1       -0.1661
     17 F           3.0784   -4.6006   19.4553 F       1  UNL1       -0.1661
     18 F           5.4646   -3.4712   18.0304 F       1  UNL1       -0.1661
     19 C           0.3936    4.4086   18.6437 C.3     1  UNL1        0.1005
     20 C          -1.0910    4.1949   18.6290 C.ar    1  UNL1        0.0072
     21 C          -1.8435    4.2475   17.3324 C.ar    1  UNL1       -0.0017
     22 C          -3.3281    4.0339   17.3177 C.ar    1  UNL1        0.0037
     23 C          -4.0602    3.7676   18.5995 C.ar    1  UNL1        0.0726
     24 C          -3.3078    3.7150   19.8960 C.ar    1  UNL1        0.0181
     25 C          -1.8231    3.9287   19.9108 C.ar    1  UNL1        0.0451
     26 N          -1.0707    3.8761   21.2073 N.pl3   1  UNL1       -0.3077
     27 C          -0.4454    2.6555   21.8149 C.3     1  UNL1        0.0908
     28 C           0.2003    3.0599   23.1070 C.3     1  UNL1        0.0232
     29 C          -0.0258    4.5304   23.2980 C.3     1  UNL1        0.0232
     30 C          -0.8113    5.0348   22.1239 C.3     1  UNL1        0.0908
     31 C          -5.5449    3.5539   18.5848 C.3     1  UNL1        0.4186
     32 F          -7.0295    3.3403   18.5700 F       1  UNL1       -0.1659
     33 F          -5.4586    2.8620   19.9128 F       1  UNL1       -0.1659
     34 F          -5.6313    4.2458   17.2567 F       1  UNL1       -0.1659
@<TRIPOS>BOND
     1     1     2    2
     2     2     9    1
     3     9    10    1
     4    10    11    1
     5    11    12    1
     6    11    13    1
     7    11    14    1
     8    10    15    1
     9    15    16    1
    10    15    17    1
    11    15    18    1
    12     2     3   am
    13     3     4    1
    14     4     5    1
    15     5     6    1
    16     6    19    1
    17    19    20    1
    18    20    21   ar
    19    21    22   ar
    20    22    23   ar
    21    23    31    1
    22    31    32    1
    23    31    33    1
    24    31    34    1
    25    23    24   ar
    26    24    25   ar
    27    25    26    1
    28    26    27    1
    29    27    28    1
    30    28    29    1
    31    29    30    1
    32     6     7    1
    33     7     8    1
    34     8     3    1
    35    25    20   ar
    36    30    26    1
