@<TRIPOS>MOLECULE
*****
 23 25 0 0 0
SMALL
GASTEIGER

@<TRIPOS>ATOM
      1 C         -10.7783  -18.4981   23.7142 C.ar    1  UNL1        0.1418
      2 C         -10.0071  -17.3126   24.2139 C.ar    1  UNL1        0.0739
      3 C          -8.5731  -17.1280   23.8142 C.ar    1  UNL1        0.1471
      4 C          -7.9104  -18.1289   22.9148 C.ar    1  UNL1        0.0937
      5 C          -6.4765  -17.9443   22.5151 C.ar    1  UNL1        0.2110
      6 C          -5.7053  -16.7588   23.0148 C.3     1  UNL1        0.1084
      7 N          -5.8138  -18.9452   21.6156 N.ar    1  UNL1       -0.1571
      8 C          -6.5850  -20.1307   21.1159 C.ar    1  UNL1        0.2082
      9 C          -5.9223  -21.1316   20.2164 C.3     1  UNL1        0.1083
     10 C          -8.0190  -20.3154   21.5156 C.ar    1  UNL1        0.0652
     11 C          -8.6817  -19.3144   22.4150 C.ar    1  UNL1        0.0169
     12 C         -10.1156  -19.4990   22.8148 C.ar    1  UNL1        0.0375
     13 C          -4.3799  -18.7606   21.2159 C.ar    1  UNL1        0.2306
     14 C          -4.0342  -18.4297   19.7942 C.ar    1  UNL1        0.0694
     15 C          -2.6003  -18.2451   19.3945 C.ar    1  UNL1        0.0019
     16 C          -1.5120  -18.3913   20.4165 C.ar    1  UNL1       -0.0215
     17 C          -0.0781  -18.2067   20.0168 C.3     1  UNL1        0.0310
     18 C          -1.8577  -18.7221   21.8381 C.ar    1  UNL1        0.0019
     19 C          -3.2916  -18.9067   22.2378 C.ar    1  UNL1        0.0694
     20 C         -13.2834  -17.8552   23.4677 C.3     1  UNL1        0.2525
     21 O         -12.2122  -18.6827   24.1139 O.3     1  UNL1       -0.4713
     22 O          -7.8019  -15.9424   24.3140 O.3     1  UNL1       -0.4711
     23 C          -7.9978  -15.4589   25.7203 C.3     1  UNL1        0.2525
@<TRIPOS>UNITY_ATOM_ATTR
7 1
charge 1
@<TRIPOS>BOND
     1    20    21    1
     2    21     1    1
     3     1     2   ar
     4     2     3   ar
     5     3    22    1
     6    22    23    1
     7     3     4   ar
     8     4     5   ar
     9     5     6    1
    10     5     7   ar
    11     7    13    1
    12    13    14   ar
    13    14    15   ar
    14    15    16   ar
    15    16    17    1
    16    16    18   ar
    17    18    19   ar
    18     7     8   ar
    19     8     9    1
    20     8    10   ar
    21    10    11   ar
    22    11    12   ar
    23    12     1   ar
    24    11     4   ar
    25    19    13   ar
@<TRIPOS>MOLECULE
*****
 23 25 0 0 0
SMALL
GASTEIGER

@<TRIPOS>ATOM
      1 C         -11.8273  -17.8712   22.7280 C.ar    1  UNL1        0.1418
      2 C         -10.9614  -16.8979   23.4716 C.ar    1  UNL1        0.0739
      3 C          -9.4746  -16.9135   23.2736 C.ar    1  UNL1        0.1471
      4 C          -8.8537  -17.9024   22.3319 C.ar    1  UNL1        0.0937
      5 C          -7.3669  -17.9180   22.1339 C.ar    1  UNL1        0.2110
      6 C          -6.5010  -16.9448   22.8774 C.3     1  UNL1        0.1084
      7 N          -6.7461  -18.9068   21.1923 N.ar    1  UNL1       -0.1571
      8 C          -7.6120  -19.8801   20.4486 C.ar    1  UNL1        0.2082
      9 C          -6.9912  -20.8690   19.5070 C.3     1  UNL1        0.1083
     10 C          -9.0988  -19.8645   20.6467 C.ar    1  UNL1        0.0652
     11 C          -9.7197  -18.8756   21.5884 C.ar    1  UNL1        0.0169
     12 C         -11.2064  -18.8600   21.7864 C.ar    1  UNL1        0.0375
     13 C          -5.2593  -18.9224   20.9942 C.ar    1  UNL1        0.2306
     14 C          -4.3585  -19.3607   22.1108 C.ar    1  UNL1        0.0694
     15 C          -2.8717  -19.3763   21.9127 C.ar    1  UNL1        0.0019
     16 C          -2.2857  -18.9536   20.5981 C.ar    1  UNL1       -0.0215
     17 C          -0.7989  -18.9693   20.4000 C.3     1  UNL1        0.0310
     18 C          -3.1865  -18.5155   19.4816 C.ar    1  UNL1        0.0019
     19 C          -4.6733  -18.4998   19.6797 C.ar    1  UNL1        0.0694
     20 C         -13.8919  -18.1012   24.2883 C.3     1  UNL1        0.2525
     21 O         -13.3141  -17.8555   22.9261 O.3     1  UNL1       -0.4713
     22 O          -8.6086  -15.9402   24.0172 O.3     1  UNL1       -0.4711
     23 C          -8.7484  -15.7957   25.5036 C.3     1  UNL1        0.2525
@<TRIPOS>UNITY_ATOM_ATTR
7 1
charge 1
@<TRIPOS>BOND
     1    20    21    1
     2    21     1    1
     3     1     2   ar
     4     2     3   ar
     5     3    22    1
     6    22    23    1
     7     3     4   ar
     8     4     5   ar
     9     5     6    1
    10     5     7   ar
    11     7    13    1
    12    13    14   ar
    13    14    15   ar
    14    15    16   ar
    15    16    17    1
    16    16    18   ar
    17    18    19   ar
    18     7     8   ar
    19     8     9    1
    20     8    10   ar
    21    10    11   ar
    22    11    12   ar
    23    12     1   ar
    24    11     4   ar
    25    19    13   ar
@<TRIPOS>MOLECULE
*****
 23 25 0 0 0
SMALL
GASTEIGER

@<TRIPOS>ATOM
      1 C         -10.5993   -5.1189   18.9949 C.ar    1  UNL1        0.1418
      2 C         -10.2370   -3.7264   18.5713 C.ar    1  UNL1        0.0739
      3 C         -11.2897   -2.6589   18.5245 C.ar    1  UNL1        0.1471
      4 C         -12.7048   -2.9840   18.9012 C.ar    1  UNL1        0.0937
      5 C         -13.7575   -1.9165   18.8544 C.ar    1  UNL1        0.2110
      6 C         -13.3952   -0.5239   18.4308 C.3     1  UNL1        0.1084
      7 N         -15.1725   -2.2415   19.2311 N.ar    1  UNL1       -0.1571
      8 C         -15.5349   -3.6342   19.6547 C.ar    1  UNL1        0.2082
      9 C         -16.9499   -3.9592   20.0314 C.3     1  UNL1        0.1083
     10 C         -14.4821   -4.7016   19.7016 C.ar    1  UNL1        0.0652
     11 C         -13.0670   -4.3765   19.3248 C.ar    1  UNL1        0.0169
     12 C         -12.0143   -5.4440   19.3717 C.ar    1  UNL1        0.0375
     13 C         -16.2253   -1.1740   19.1842 C.ar    1  UNL1        0.2306
     14 C         -17.0577   -0.9953   17.9492 C.ar    1  UNL1        0.0694
     15 C         -18.1104    0.0722   17.9024 C.ar    1  UNL1        0.0019
     16 C         -18.3307    0.9610   19.0905 C.ar    1  UNL1       -0.0215
     17 C         -19.3835    2.0284   19.0437 C.3     1  UNL1        0.0310
     18 C         -17.4983    0.7822   20.3254 C.ar    1  UNL1        0.0019
     19 C         -16.4456   -0.2853   20.3723 C.ar    1  UNL1        0.0694
     20 C          -9.8409   -7.5543   18.5012 C.3     1  UNL1        0.2525
     21 O          -9.5465   -6.1864   19.0418 O.3     1  UNL1       -0.4713
     22 O         -10.9274   -1.2663   18.1009 O.3     1  UNL1       -0.4711
     23 C         -10.4120   -1.0141   16.7150 C.3     1  UNL1        0.2525
@<TRIPOS>UNITY_ATOM_ATTR
7 1
charge 1
@<TRIPOS>BOND
     1    20    21    1
     2    21     1    1
     3     1     2   ar
     4     2     3   ar
     5     3    22    1
     6    22    23    1
     7     3     4   ar
     8     4     5   ar
     9     5     6    1
    10     5     7   ar
    11     7    13    1
    12    13    14   ar
    13    14    15   ar
    14    15    16   ar
    15    16    17    1
    16    16    18   ar
    17    18    19   ar
    18     7     8   ar
    19     8     9    1
    20     8    10   ar
    21    10    11   ar
    22    11    12   ar
    23    12     1   ar
    24    11     4   ar
    25    19    13   ar
@<TRIPOS>MOLECULE
*****
 23 25 0 0 0
SMALL
GASTEIGER

@<TRIPOS>ATOM
      1 C           3.9120   -2.8212   19.9470 C.ar    1  UNL1        0.1418
      2 C           4.5076   -3.1096   21.2931 C.ar    1  UNL1        0.0739
      3 C           4.1011   -2.2927   22.4837 C.ar    1  UNL1        0.1471
      4 C           3.0991   -1.1874   22.3281 C.ar    1  UNL1        0.0937
      5 C           2.6927   -0.3705   23.5187 C.ar    1  UNL1        0.2110
      6 C           3.2883   -0.6588   24.8648 C.3     1  UNL1        0.1084
      7 N           1.6907    0.7348   23.3632 N.ar    1  UNL1       -0.1571
      8 C           1.0950    1.0233   22.0170 C.ar    1  UNL1        0.2082
      9 C           0.0930    2.1286   21.8614 C.3     1  UNL1        0.1083
     10 C           1.5015    0.2064   20.8264 C.ar    1  UNL1        0.0652
     11 C           2.5035   -0.8990   20.9820 C.ar    1  UNL1        0.0169
     12 C           2.9100   -1.7159   19.7914 C.ar    1  UNL1        0.0375
     13 C           1.2842    1.5517   24.5537 C.ar    1  UNL1        0.2306
     14 C           0.0778    1.1609   25.3550 C.ar    1  UNL1        0.0694
     15 C          -0.3286    1.9778   26.5456 C.ar    1  UNL1        0.0019
     16 C           0.4714    3.1856   26.9349 C.ar    1  UNL1       -0.0215
     17 C           0.0649    4.0025   28.1255 C.3     1  UNL1        0.0310
     18 C           1.6777    3.5763   26.1336 C.ar    1  UNL1        0.0019
     19 C           2.0841    2.7594   24.9431 C.ar    1  UNL1        0.0694
     20 C           4.5258   -5.1170   18.8970 C.3     1  UNL1        0.2525
     21 O           4.3184   -3.6381   18.7564 O.3     1  UNL1       -0.4713
     22 O           4.6968   -2.5811   23.8298 O.3     1  UNL1       -0.4711
     23 C           5.8838   -3.4908   23.9454 C.3     1  UNL1        0.2525
@<TRIPOS>UNITY_ATOM_ATTR
7 1
charge 1
@<TRIPOS>BOND
     1    20    21    1
     2    21     1    1
     3     1     2   ar
     4     2     3   ar
     5     3    22    1
     6    22    23    1
     7     3     4   ar
     8     4     5   ar
     9     5     6    1
    10     5     7   ar
    11     7    13    1
    12    13    14   ar
    13    14    15   ar
    14    15    16   ar
    15    16    17    1
    16    16    18   ar
    17    18    19   ar
    18     7     8   ar
    19     8     9    1
    20     8    10   ar
    21    10    11   ar
    22    11    12   ar
    23    12     1   ar
    24    11     4   ar
    25    19    13   ar
@<TRIPOS>MOLECULE
*****
 23 25 0 0 0
SMALL
GASTEIGER

@<TRIPOS>ATOM
      1 C           7.3401   -5.4568   26.3804 C.ar    1  UNL1        0.1418
      2 C           7.7670   -6.2383   27.5875 C.ar    1  UNL1        0.0739
      3 C           7.5394   -5.6805   28.9612 C.ar    1  UNL1        0.1471
      4 C           6.8849   -4.3412   29.1278 C.ar    1  UNL1        0.0937
      5 C           6.6573   -3.7834   30.5015 C.ar    1  UNL1        0.2110
      6 C           7.0842   -4.5649   31.7086 C.3     1  UNL1        0.1084
      7 N           6.0028   -2.4441   30.6682 N.ar    1  UNL1       -0.1571
      8 C           5.5758   -1.6625   29.4611 C.ar    1  UNL1        0.2082
      9 C           4.9213   -0.3232   29.6278 C.3     1  UNL1        0.1083
     10 C           5.8034   -2.2203   28.0874 C.ar    1  UNL1        0.0652
     11 C           6.4580   -3.5597   27.9208 C.ar    1  UNL1        0.0169
     12 C           6.6856   -4.1175   26.5471 C.ar    1  UNL1        0.0375
     13 C           5.7751   -1.8863   32.0419 C.ar    1  UNL1        0.2306
     14 C           4.5083   -2.2036   32.7798 C.ar    1  UNL1        0.0694
     15 C           4.2807   -1.6458   34.1535 C.ar    1  UNL1        0.0019
     16 C           5.3199   -0.7707   34.7893 C.ar    1  UNL1       -0.0215
     17 C           5.0923   -0.2129   36.1630 C.3     1  UNL1        0.0310
     18 C           6.5867   -0.4534   34.0514 C.ar    1  UNL1        0.0019
     19 C           6.8143   -1.0112   32.6777 C.ar    1  UNL1        0.0694
     20 C           8.0960   -7.4087   24.8414 C.3     1  UNL1        0.2525
     21 O           7.5677   -6.0146   25.0067 O.3     1  UNL1       -0.4713
     22 O           7.9664   -6.4620   30.1682 O.3     1  UNL1       -0.4711
     23 C           9.3436   -7.0531   30.2304 C.3     1  UNL1        0.2525
@<TRIPOS>UNITY_ATOM_ATTR
7 1
charge 1
@<TRIPOS>BOND
     1    20    21    1
     2    21     1    1
     3     1     2   ar
     4     2     3   ar
     5     3    22    1
     6    22    23    1
     7     3     4   ar
     8     4     5   ar
     9     5     6    1
    10     5     7   ar
    11     7    13    1
    12    13    14   ar
    13    14    15   ar
    14    15    16   ar
    15    16    17    1
    16    16    18   ar
    17    18    19   ar
    18     7     8   ar
    19     8     9    1
    20     8    10   ar
    21    10    11   ar
    22    11    12   ar
    23    12     1   ar
    24    11     4   ar
    25    19    13   ar
@<TRIPOS>MOLECULE
*****
 23 25 0 0 0
SMALL
GASTEIGER

@<TRIPOS>ATOM
      1 C           4.3266    0.5739   35.7037 C.ar    1  UNL1        0.1418
      2 C           4.6679   -0.5151   34.7302 C.ar    1  UNL1        0.0739
      3 C           4.0841   -0.4960   33.3486 C.ar    1  UNL1        0.1471
      4 C           3.1592    0.6120   32.9404 C.ar    1  UNL1        0.0937
      5 C           2.5754    0.6311   31.5588 C.ar    1  UNL1        0.2110
      6 C           2.9167   -0.4579   30.5853 C.3     1  UNL1        0.1084
      7 N           1.6504    1.7391   31.1506 N.ar    1  UNL1       -0.1571
      8 C           1.3091    2.8281   32.1241 C.ar    1  UNL1        0.2082
      9 C           0.3842    3.9361   31.7159 C.3     1  UNL1        0.1083
     10 C           1.8929    2.8090   33.5057 C.ar    1  UNL1        0.0652
     11 C           2.8179    1.7009   33.9139 C.ar    1  UNL1        0.0169
     12 C           3.4016    1.6819   35.2955 C.ar    1  UNL1        0.0375
     13 C           1.0667    1.7582   29.7690 C.ar    1  UNL1        0.2306
     14 C          -0.2161    1.0337   29.4867 C.ar    1  UNL1        0.0694
     15 C          -0.7998    1.0527   28.1051 C.ar    1  UNL1        0.0019
     16 C          -0.1008    1.7963   27.0057 C.ar    1  UNL1       -0.0215
     17 C          -0.6845    1.8154   25.6241 C.3     1  UNL1        0.0310
     18 C           1.1820    2.5207   27.2880 C.ar    1  UNL1        0.0019
     19 C           1.7657    2.5016   28.6697 C.ar    1  UNL1        0.0694
     20 C           4.2162    1.2753   38.2028 C.3     1  UNL1        0.2525
     21 O           4.9104    0.5548   37.0853 O.3     1  UNL1       -0.4713
     22 O           4.4254   -1.5851   32.3751 O.3     1  UNL1       -0.4711
     23 C           5.3217   -2.7123   32.7947 C.3     1  UNL1        0.2525
@<TRIPOS>UNITY_ATOM_ATTR
7 1
charge 1
@<TRIPOS>BOND
     1    20    21    1
     2    21     1    1
     3     1     2   ar
     4     2     3   ar
     5     3    22    1
     6    22    23    1
     7     3     4   ar
     8     4     5   ar
     9     5     6    1
    10     5     7   ar
    11     7    13    1
    12    13    14   ar
    13    14    15   ar
    14    15    16   ar
    15    16    17    1
    16    16    18   ar
    17    18    19   ar
    18     7     8   ar
    19     8     9    1
    20     8    10   ar
    21    10    11   ar
    22    11    12   ar
    23    12     1   ar
    24    11     4   ar
    25    19    13   ar
@<TRIPOS>MOLECULE
*****
 23 25 0 0 0
SMALL
GASTEIGER

@<TRIPOS>ATOM
      1 C           4.0190   -2.5311   20.4106 C.ar    1  UNL1        0.1418
      2 C           2.9601   -1.7364   19.7054 C.ar    1  UNL1        0.0739
      3 C           2.1597   -0.7171   20.4607 C.ar    1  UNL1        0.1471
      4 C           2.4180   -0.4926   21.9211 C.ar    1  UNL1        0.0937
      5 C           1.6175    0.5266   22.6763 C.ar    1  UNL1        0.2110
      6 C           0.5587    1.3213   21.9712 C.3     1  UNL1        0.1084
      7 N           1.8759    0.7512   24.1367 N.ar    1  UNL1       -0.1571
      8 C           2.9348   -0.0436   24.8419 C.ar    1  UNL1        0.2082
      9 C           3.1931    0.1810   26.3023 C.3     1  UNL1        0.1083
     10 C           3.7353   -1.0628   24.0867 C.ar    1  UNL1        0.0652
     11 C           3.4769   -1.2873   22.6262 C.ar    1  UNL1        0.0169
     12 C           4.2773   -2.3065   21.8710 C.ar    1  UNL1        0.0375
     13 C           1.0754    1.7704   24.8920 C.ar    1  UNL1        0.2306
     14 C           1.5515    3.1908   24.9693 C.ar    1  UNL1        0.0694
     15 C           0.7511    4.2100   25.7245 C.ar    1  UNL1        0.0019
     16 C          -0.5255    3.8089   26.4024 C.ar    1  UNL1       -0.0215
     17 C          -1.3260    4.8281   27.1577 C.3     1  UNL1        0.0310
     18 C          -1.0016    2.3885   26.3251 C.ar    1  UNL1        0.0019
     19 C          -0.2011    1.3693   25.5698 C.ar    1  UNL1        0.0694
     20 C           4.1286   -4.7031   18.9892 C.3     1  UNL1        0.2525
     21 O           4.8195   -3.5503   19.6553 O.3     1  UNL1       -0.4713
     22 O           1.1008    0.0776   19.7555 O.3     1  UNL1       -0.4711
     23 C           1.3678    0.6367   18.3895 C.3     1  UNL1        0.2525
@<TRIPOS>UNITY_ATOM_ATTR
7 1
charge 1
@<TRIPOS>BOND
     1    20    21    1
     2    21     1    1
     3     1     2   ar
     4     2     3   ar
     5     3    22    1
     6    22    23    1
     7     3     4   ar
     8     4     5   ar
     9     5     6    1
    10     5     7   ar
    11     7    13    1
    12    13    14   ar
    13    14    15   ar
    14    15    16   ar
    15    16    17    1
    16    16    18   ar
    17    18    19   ar
    18     7     8   ar
    19     8     9    1
    20     8    10   ar
    21    10    11   ar
    22    11    12   ar
    23    12     1   ar
    24    11     4   ar
    25    19    13   ar
@<TRIPOS>MOLECULE
*****
 23 25 0 0 0
SMALL
GASTEIGER

@<TRIPOS>ATOM
      1 C           6.6591   -4.0638   25.0200 C.ar    1  UNL1        0.1418
      2 C           6.2139   -2.7779   25.6511 C.ar    1  UNL1        0.0739
      3 C           5.3698   -1.8130   24.8723 C.ar    1  UNL1        0.1471
      4 C           4.9709   -2.1340   23.4624 C.ar    1  UNL1        0.0937
      5 C           4.1269   -1.1691   22.6836 C.ar    1  UNL1        0.2110
      6 C           3.6817    0.1167   23.3147 C.3     1  UNL1        0.1084
      7 N           3.7279   -1.4901   21.2737 N.ar    1  UNL1       -0.1571
      8 C           4.1731   -2.7761   20.6426 C.ar    1  UNL1        0.2082
      9 C           3.7742   -3.0971   19.2327 C.3     1  UNL1        0.1083
     10 C           5.0172   -3.7410   21.4214 C.ar    1  UNL1        0.0652
     11 C           5.4161   -3.4199   22.8314 C.ar    1  UNL1        0.0169
     12 C           6.2601   -4.3848   23.6102 C.ar    1  UNL1        0.0375
     13 C           2.8839   -0.5253   20.4949 C.ar    1  UNL1        0.2306
     14 C           3.5351    0.4964   19.6105 C.ar    1  UNL1        0.0694
     15 C           2.6910    1.4613   18.8316 C.ar    1  UNL1        0.0019
     16 C           1.1957    1.4045   18.9373 C.ar    1  UNL1       -0.0215
     17 C           0.3517    2.3694   18.1585 C.3     1  UNL1        0.0310
     18 C           0.5446    0.3829   19.8217 C.ar    1  UNL1        0.0019
     19 C           1.3887   -0.5820   20.6005 C.ar    1  UNL1        0.0694
     20 C           6.8550   -6.1451   26.5626 C.3     1  UNL1        0.2525
     21 O           7.5031   -5.0287   25.7988 O.3     1  UNL1       -0.4713
     22 O           4.9247   -0.5271   25.5034 O.3     1  UNL1       -0.4711
     23 C           5.1205   -0.3062   26.9741 C.3     1  UNL1        0.2525
@<TRIPOS>UNITY_ATOM_ATTR
7 1
charge 1
@<TRIPOS>BOND
     1    20    21    1
     2    21     1    1
     3     1     2   ar
     4     2     3   ar
     5     3    22    1
     6    22    23    1
     7     3     4   ar
     8     4     5   ar
     9     5     6    1
    10     5     7   ar
    11     7    13    1
    12    13    14   ar
    13    14    15   ar
    14    15    16   ar
    15    16    17    1
    16    16    18   ar
    17    18    19   ar
    18     7     8   ar
    19     8     9    1
    20     8    10   ar
    21    10    11   ar
    22    11    12   ar
    23    12     1   ar
    24    11     4   ar
    25    19    13   ar
@<TRIPOS>MOLECULE
*****
 23 25 0 0 0
SMALL
GASTEIGER

@<TRIPOS>ATOM
      1 C           3.9624    1.1868   35.5330 C.ar    1  UNL1        0.1418
      2 C           2.9987    2.3362   35.5444 C.ar    1  UNL1        0.0739
      3 C           2.2034    2.6603   34.3146 C.ar    1  UNL1        0.1471
      4 C           2.3718    1.8352   33.0734 C.ar    1  UNL1        0.0937
      5 C           1.5765    2.1594   31.8436 C.ar    1  UNL1        0.2110
      6 C           0.6128    3.3087   31.8550 C.3     1  UNL1        0.1084
      7 N           1.7449    1.3342   30.6024 N.ar    1  UNL1       -0.1571
      8 C           2.7086    0.1847   30.5909 C.ar    1  UNL1        0.2082
      9 C           2.8770   -0.6405   29.3497 C.3     1  UNL1        0.1083
     10 C           3.5039   -0.1395   31.8207 C.ar    1  UNL1        0.0652
     11 C           3.3355    0.6858   33.0620 C.ar    1  UNL1        0.0169
     12 C           4.1308    0.3616   34.2918 C.ar    1  UNL1        0.0375
     13 C           0.9496    1.6584   29.3726 C.ar    1  UNL1        0.2306
     14 C          -0.3525    0.9594   29.1156 C.ar    1  UNL1        0.0694
     15 C          -1.1478    1.2836   27.8858 C.ar    1  UNL1        0.0019
     16 C          -0.6410    2.3068   26.9130 C.ar    1  UNL1       -0.0215
     17 C          -1.4362    2.6310   25.6832 C.3     1  UNL1        0.0310
     18 C           0.6611    3.0057   27.1700 C.ar    1  UNL1        0.0019
     19 C           1.4564    2.6815   28.3998 C.ar    1  UNL1        0.0694
     20 C           5.8764   -0.1340   36.6914 C.3     1  UNL1        0.2525
     21 O           4.7577    0.8626   36.7628 O.3     1  UNL1       -0.4713
     22 O           1.2397    3.8098   34.3261 O.3     1  UNL1       -0.4711
     23 C           1.4496    4.9552   35.2716 C.3     1  UNL1        0.2525
@<TRIPOS>UNITY_ATOM_ATTR
7 1
charge 1
@<TRIPOS>BOND
     1    20    21    1
     2    21     1    1
     3     1     2   ar
     4     2     3   ar
     5     3    22    1
     6    22    23    1
     7     3     4   ar
     8     4     5   ar
     9     5     6    1
    10     5     7   ar
    11     7    13    1
    12    13    14   ar
    13    14    15   ar
    14    15    16   ar
    15    16    17    1
    16    16    18   ar
    17    18    19   ar
    18     7     8   ar
    19     8     9    1
    20     8    10   ar
    21    10    11   ar
    22    11    12   ar
    23    12     1   ar
    24    11     4   ar
    25    19    13   ar
