@<TRIPOS>MOLECULE
*****
 22 24 0 0 0
SMALL
GASTEIGER

@<TRIPOS>ATOM
      1 C          -5.3808  -16.6809   23.4176 C.2     1  UNL1        0.3481
      2 N          -6.6848  -17.1479   22.8418 N.2     1  UNL1       -0.0461
      3 C          -6.7113  -18.3018   21.8838 C.3     1  UNL1        0.3004
      4 C          -5.4338  -18.9888   21.5016 C.2     1  UNL1        0.0911
      5 C          -5.4603  -20.1426   20.5436 C.2     1  UNL1        0.0231
      6 C          -4.1828  -20.8296   20.1614 C.2     1  UNL1        0.0890
      7 N          -2.8788  -20.3626   20.7372 N.am    1  UNL1       -0.1710
      8 C          -2.8523  -19.2087   21.6952 C.2     1  UNL1        0.3121
      9 O          -1.5483  -18.7418   22.2710 O.2     1  UNL1       -0.2639
     10 C          -4.1298  -18.5218   22.0774 C.2     1  UNL1        0.2494
     11 N          -4.1033  -17.3678   23.0354 N.2     1  UNL1       -0.0343
     12 C          -5.3711  -15.7792   25.8542 C.3     1  UNL1        0.0136
     13 C          -5.3544  -15.5270   24.3757 C.3     1  UNL1        0.1234
     14 N          -8.0153  -18.7687   21.3080 N.3     1  UNL1       -0.2536
     15 H          -8.1405  -18.7968   20.3319 H       1  UNL1        0.1274
     16 C          -9.1286  -19.1929   22.2194 C.3     1  UNL1        0.0718
     17 C          -8.9835  -20.0173   23.4642 C.3     1  UNL1        0.0169
     18 C         -10.3476  -20.2011   24.0601 C.3     1  UNL1        0.0025
     19 C         -11.3359  -19.4902   23.1837 C.3     1  UNL1        0.0165
     20 C         -10.5825  -18.8672   22.0461 C.3     1  UNL1        0.1058
     21 C         -11.1784  -18.0601   20.9310 C.1     1  UNL1        0.0734
     22 N         -11.7743  -17.2530   19.8159 N.1     1  UNL1       -0.1958
@<TRIPOS>BOND
     1    12    13    1
     2    13     1    1
     3     1     2    2
     4     2     3    1
     5     3    14    1
     6    16    14    1
     7    16    17    1
     8    17    18    1
     9    18    19    1
    10    19    20    1
    11    20    21    1
    12    21    22    3
    13     3     4    1
    14     4     5    2
    15     5     6    1
    16     6     7    2
    17     7     8    1
    18     8     9    2
    19     8    10    1
    20    10    11    2
    21    11     1    1
    22    20    16    1
    23    10     4    1
    24    14    15    1
@<TRIPOS>MOLECULE
*****
 22 24 0 0 0
SMALL
GASTEIGER

@<TRIPOS>ATOM
      1 C          -7.2932  -18.5763   21.8840 C.2     1  UNL1        0.3481
      2 N          -7.3981  -17.4637   22.8846 N.2     1  UNL1       -0.0461
      3 C          -8.6414  -16.6271   22.9484 C.3     1  UNL1        0.3004
      4 C          -9.7800  -16.9031   22.0116 C.2     1  UNL1        0.0911
      5 C         -11.0234  -16.0665   22.0754 C.2     1  UNL1        0.0231
      6 C         -12.1619  -16.3425   21.1386 C.2     1  UNL1        0.0890
      7 N         -12.0570  -17.4551   20.1380 N.am    1  UNL1       -0.1710
      8 C         -10.8137  -18.2916   20.0742 C.2     1  UNL1        0.3121
      9 O         -10.7088  -19.4042   19.0736 O.2     1  UNL1       -0.2639
     10 C          -9.6752  -18.0157   21.0110 C.2     1  UNL1        0.2494
     11 N          -8.4317  -18.8523   20.9472 N.2     1  UNL1       -0.0343
     12 C          -4.7563  -18.8760   22.3575 C.3     1  UNL1        0.0136
     13 C          -6.0498  -19.4129   21.8202 C.3     1  UNL1        0.1234
     14 N          -8.7463  -15.5145   23.9490 N.3     1  UNL1       -0.2536
     15 H          -9.3515  -14.7565   23.7806 H       1  UNL1        0.1274
     16 C          -7.9292  -15.5570   25.2061 C.3     1  UNL1        0.0718
     17 C          -8.4551  -15.7850   26.5923 C.3     1  UNL1        0.0169
     18 C          -7.2937  -15.7478   27.5407 C.3     1  UNL1        0.0025
     19 C          -6.0498  -15.4967   26.7407 C.3     1  UNL1        0.0165
     20 C          -6.4427  -15.3788   25.2979 C.3     1  UNL1        0.1058
     21 C          -5.5122  -15.1269   24.1486 C.1     1  UNL1        0.0734
     22 N          -4.5818  -14.8750   22.9993 N.1     1  UNL1       -0.1958
@<TRIPOS>BOND
     1    12    13    1
     2    13     1    1
     3     1     2    2
     4     2     3    1
     5     3    14    1
     6    16    14    1
     7    16    17    1
     8    17    18    1
     9    18    19    1
    10    19    20    1
    11    20    21    1
    12    21    22    3
    13     3     4    1
    14     4     5    2
    15     5     6    1
    16     6     7    2
    17     7     8    1
    18     8     9    2
    19     8    10    1
    20    10    11    2
    21    11     1    1
    22    20    16    1
    23    10     4    1
    24    14    15    1
@<TRIPOS>MOLECULE
*****
 22 24 0 0 0
SMALL
GASTEIGER

@<TRIPOS>ATOM
      1 C          -7.2089  -18.5692   21.1263 C.2     1  UNL1        0.3481
      2 N          -8.4788  -17.8430   21.4579 N.2     1  UNL1       -0.0461
      3 C          -8.4958  -16.8273   22.5615 C.3     1  UNL1        0.3004
      4 C          -7.2427  -16.5378   23.3336 C.2     1  UNL1        0.0911
      5 C          -7.2596  -15.5221   24.4372 C.2     1  UNL1        0.0231
      6 C          -6.0067  -15.2326   25.2093 C.2     1  UNL1        0.0890
      7 N          -4.7367  -15.9588   24.8778 N.am    1  UNL1       -0.1710
      8 C          -4.7198  -16.9745   23.7742 C.2     1  UNL1        0.3121
      9 O          -3.4499  -17.7007   23.4426 O.2     1  UNL1       -0.2639
     10 C          -5.9728  -17.2640   23.0021 C.2     1  UNL1        0.2494
     11 N          -5.9559  -18.2797   21.8984 N.2     1  UNL1       -0.0343
     12 C          -8.3929  -19.7531   19.1397 C.3     1  UNL1        0.0136
     13 C          -7.1920  -19.5850   20.0226 C.3     1  UNL1        0.1234
     14 N          -9.7657  -16.1011   22.8930 N.3     1  UNL1       -0.2536
     15 H          -9.7288  -15.1981   23.2835 H       1  UNL1        0.1274
     16 C         -11.0918  -16.7507   22.6297 C.3     1  UNL1        0.0718
     17 C         -11.8714  -17.5884   23.5995 C.3     1  UNL1        0.0169
     18 C         -13.1326  -18.0321   22.9195 C.3     1  UNL1        0.0025
     19 C         -13.1324  -17.4686   21.5293 C.3     1  UNL1        0.0165
     20 C         -11.8712  -16.6767   21.3502 C.3     1  UNL1        0.1058
     21 C         -11.4613  -15.9401   20.1095 C.1     1  UNL1        0.0734
     22 N         -11.0515  -15.2035   18.8687 N.1     1  UNL1       -0.1958
@<TRIPOS>BOND
     1    12    13    1
     2    13     1    1
     3     1     2    2
     4     2     3    1
     5     3    14    1
     6    16    14    1
     7    16    17    1
     8    17    18    1
     9    18    19    1
    10    19    20    1
    11    20    21    1
    12    21    22    3
    13     3     4    1
    14     4     5    2
    15     5     6    1
    16     6     7    2
    17     7     8    1
    18     8     9    2
    19     8    10    1
    20    10    11    2
    21    11     1    1
    22    20    16    1
    23    10     4    1
    24    14    15    1
@<TRIPOS>MOLECULE
*****
 22 24 0 0 0
SMALL
GASTEIGER

@<TRIPOS>ATOM
      1 C          -8.7319  -16.4297   23.6143 C.2     1  UNL1        0.3481
      2 N          -7.8713  -17.6578   23.5793 N.2     1  UNL1       -0.0461
      3 C          -8.0927  -18.6989   22.5224 C.3     1  UNL1        0.3004
      4 C          -9.1747  -18.5119   21.5004 C.2     1  UNL1        0.0911
      5 C          -9.3961  -19.5530   20.4435 C.2     1  UNL1        0.0231
      6 C         -10.4780  -19.3660   19.4216 C.2     1  UNL1        0.0890
      7 N         -11.3386  -18.1379   19.4565 N.am    1  UNL1       -0.1710
      8 C         -11.1172  -17.0968   20.5134 C.2     1  UNL1        0.3121
      9 O         -11.9777  -15.8687   20.5484 O.2     1  UNL1       -0.2639
     10 C         -10.0353  -17.2838   21.5354 C.2     1  UNL1        0.2494
     11 N          -9.8138  -16.2427   22.5924 N.2     1  UNL1       -0.0343
     12 C          -8.2486  -15.8030   26.0889 C.3     1  UNL1        0.0136
     13 C          -8.5105  -15.3886   24.6713 C.3     1  UNL1        0.1234
     14 N          -7.2322  -19.9270   22.4875 N.3     1  UNL1       -0.2536
     15 H          -7.4645  -20.7068   23.0417 H       1  UNL1        0.1274
     16 C          -6.0177  -19.9670   21.6081 C.3     1  UNL1        0.0718
     17 C          -5.8278  -20.8443   20.4062 C.3     1  UNL1        0.0169
     18 C          -4.4726  -20.5562   19.8315 C.3     1  UNL1        0.0025
     19 C          -3.8249  -19.5009   20.6781 C.3     1  UNL1        0.0165
     20 C          -4.7798  -19.1368   21.7761 C.3     1  UNL1        0.1058
     21 C          -4.5390  -18.1208   22.8530 C.1     1  UNL1        0.0734
     22 N          -4.2983  -17.1047   23.9299 N.1     1  UNL1       -0.1958
@<TRIPOS>BOND
     1    12    13    1
     2    13     1    1
     3     1     2    2
     4     2     3    1
     5     3    14    1
     6    16    14    1
     7    16    17    1
     8    17    18    1
     9    18    19    1
    10    19    20    1
    11    20    21    1
    12    21    22    3
    13     3     4    1
    14     4     5    2
    15     5     6    1
    16     6     7    2
    17     7     8    1
    18     8     9    2
    19     8    10    1
    20    10    11    2
    21    11     1    1
    22    20    16    1
    23    10     4    1
    24    14    15    1
@<TRIPOS>MOLECULE
*****
 22 24 0 0 0
SMALL
GASTEIGER

@<TRIPOS>ATOM
      1 C          -7.3507  -18.7430   21.3586 C.2     1  UNL1        0.3481
      2 N          -7.3705  -17.4984   22.1956 N.2     1  UNL1       -0.0461
      3 C          -6.0949  -16.9656   22.7778 C.3     1  UNL1        0.3004
      4 C          -4.7994  -17.6776   22.5230 C.2     1  UNL1        0.0911
      5 C          -3.5238  -17.1449   23.1052 C.2     1  UNL1        0.0231
      6 C          -2.2283  -17.8568   22.8505 C.2     1  UNL1        0.0890
      7 N          -2.2085  -19.1015   22.0135 N.am    1  UNL1       -0.1710
      8 C          -3.4841  -19.6342   21.4313 C.2     1  UNL1        0.3121
      9 O          -3.4643  -20.8788   20.5944 O.2     1  UNL1       -0.2639
     10 C          -4.7795  -18.9222   21.6861 C.2     1  UNL1        0.2494
     11 N          -6.0552  -19.4549   21.1039 N.2     1  UNL1       -0.0343
     12 C          -8.6946  -19.6339   19.3214 C.3     1  UNL1        0.0136
     13 C          -8.6264  -19.2757   20.7764 C.3     1  UNL1        0.1234
     14 N          -6.1147  -15.7210   23.6147 N.3     1  UNL1       -0.2536
     15 H          -5.7678  -14.8757   23.2481 H       1  UNL1        0.1274
     16 C          -6.6631  -15.7642   25.0102 C.3     1  UNL1        0.0718
     17 C          -5.8687  -15.6213   26.2745 C.3     1  UNL1        0.0169
     18 C          -6.8168  -15.7267   27.4321 C.3     1  UNL1        0.0025
     19 C          -8.1972  -15.9348   26.8831 C.3     1  UNL1        0.0165
     20 C          -8.1022  -15.9580   25.3863 C.3     1  UNL1        0.1058
     21 C          -9.2455  -16.1425   24.4331 C.1     1  UNL1        0.0734
     22 N         -10.3889  -16.3271   23.4798 N.1     1  UNL1       -0.1958
@<TRIPOS>BOND
     1    12    13    1
     2    13     1    1
     3     1     2    2
     4     2     3    1
     5     3    14    1
     6    16    14    1
     7    16    17    1
     8    17    18    1
     9    18    19    1
    10    19    20    1
    11    20    21    1
    12    21    22    3
    13     3     4    1
    14     4     5    2
    15     5     6    1
    16     6     7    2
    17     7     8    1
    18     8     9    2
    19     8    10    1
    20    10    11    2
    21    11     1    1
    22    20    16    1
    23    10     4    1
    24    14    15    1
@<TRIPOS>MOLECULE
*****
 22 24 0 0 0
SMALL
GASTEIGER

@<TRIPOS>ATOM
      1 C         -11.0531  -17.2295   21.0765 C.2     1  UNL1        0.3481
      2 N         -10.9073  -17.3444   22.5650 N.2     1  UNL1       -0.0461
      3 C          -9.7953  -18.1647   23.1485 C.3     1  UNL1        0.3004
      4 C          -8.8292  -18.8703   22.2436 C.2     1  UNL1        0.0911
      5 C          -7.7172  -19.6906   22.8271 C.2     1  UNL1        0.0231
      6 C          -6.7512  -20.3961   21.9222 C.2     1  UNL1        0.0890
      7 N          -6.8970  -20.2812   20.4338 N.am    1  UNL1       -0.1710
      8 C          -8.0089  -19.4608   19.8502 C.2     1  UNL1        0.3121
      9 O          -8.1547  -19.3459   18.3617 O.2     1  UNL1       -0.2639
     10 C          -8.9750  -18.7554   20.7551 C.2     1  UNL1        0.2494
     11 N         -10.0870  -17.9349   20.1716 N.2     1  UNL1       -0.0343
     12 C         -11.9497  -15.6557   19.2139 C.3     1  UNL1        0.0136
     13 C         -12.1651  -16.4090   20.4930 C.3     1  UNL1        0.1234
     14 N          -9.6495  -18.2796   24.6370 N.3     1  UNL1       -0.2536
     15 H         -10.0194  -19.0604   25.1090 H       1  UNL1        0.1274
     16 C          -8.9401  -17.2050   25.4063 C.3     1  UNL1        0.0718
     17 C          -8.8440  -17.1070   26.9000 C.3     1  UNL1        0.0169
     18 C          -8.0467  -15.8811   27.2338 C.3     1  UNL1        0.0025
     19 C          -7.6501  -15.2214   25.9463 C.3     1  UNL1        0.0165
     20 C          -8.2023  -16.0396   24.8169 C.3     1  UNL1        0.1058
     21 C          -8.0443  -15.7442   23.3548 C.1     1  UNL1        0.0734
     22 N          -7.8863  -15.4488   21.8927 N.1     1  UNL1       -0.1958
@<TRIPOS>BOND
     1    12    13    1
     2    13     1    1
     3     1     2    2
     4     2     3    1
     5     3    14    1
     6    16    14    1
     7    16    17    1
     8    17    18    1
     9    18    19    1
    10    19    20    1
    11    20    21    1
    12    21    22    3
    13     3     4    1
    14     4     5    2
    15     5     6    1
    16     6     7    2
    17     7     8    1
    18     8     9    2
    19     8    10    1
    20    10    11    2
    21    11     1    1
    22    20    16    1
    23    10     4    1
    24    14    15    1
@<TRIPOS>MOLECULE
*****
 22 24 0 0 0
SMALL
GASTEIGER

@<TRIPOS>ATOM
      1 C          -7.4944  -19.5668   19.9787 C.2     1  UNL1        0.3481
      2 N          -8.2770  -18.7606   20.9724 N.2     1  UNL1       -0.0461
      3 C          -7.5722  -18.0841   22.1107 C.3     1  UNL1        0.3004
      4 C          -6.0848  -18.2138   22.2552 C.2     1  UNL1        0.0911
      5 C          -5.3801  -17.5373   23.3934 C.2     1  UNL1        0.0231
      6 C          -3.8927  -17.6670   23.5379 C.2     1  UNL1        0.0890
      7 N          -3.1101  -18.4732   22.5441 N.am    1  UNL1       -0.1710
      8 C          -3.8148  -19.1497   21.4059 C.2     1  UNL1        0.3121
      9 O          -3.0322  -19.9559   20.4121 O.2     1  UNL1       -0.2639
     10 C          -5.3022  -19.0200   21.2614 C.2     1  UNL1        0.2494
     11 N          -6.0070  -19.6965   20.1231 N.2     1  UNL1       -0.0343
     12 C          -9.6915  -20.1499   18.7205 C.3     1  UNL1        0.0136
     13 C          -8.1992  -20.2434   18.8404 C.3     1  UNL1        0.1234
     14 N          -8.3548  -17.2780   23.1044 N.3     1  UNL1       -0.2536
     15 H          -7.9246  -16.5313   23.5806 H       1  UNL1        0.1274
     16 C          -9.7929  -17.6093   23.3728 C.3     1  UNL1        0.0718
     17 C         -10.3132  -18.4008   24.5359 C.3     1  UNL1        0.0169
     18 C         -11.8051  -18.4881   24.4071 C.3     1  UNL1        0.0025
     19 C         -12.2069  -17.7504   23.1643 C.3     1  UNL1        0.0165
     20 C         -10.9633  -17.2073   22.5251 C.3     1  UNL1        0.1058
     21 C         -10.9011  -16.4034   21.2603 C.1     1  UNL1        0.0734
     22 N         -10.8389  -15.5995   19.9954 N.1     1  UNL1       -0.1958
@<TRIPOS>BOND
     1    12    13    1
     2    13     1    1
     3     1     2    2
     4     2     3    1
     5     3    14    1
     6    16    14    1
     7    16    17    1
     8    17    18    1
     9    18    19    1
    10    19    20    1
    11    20    21    1
    12    21    22    3
    13     3     4    1
    14     4     5    2
    15     5     6    1
    16     6     7    2
    17     7     8    1
    18     8     9    2
    19     8    10    1
    20    10    11    2
    21    11     1    1
    22    20    16    1
    23    10     4    1
    24    14    15    1
@<TRIPOS>MOLECULE
*****
 22 24 0 0 0
SMALL
GASTEIGER

@<TRIPOS>ATOM
      1 C          -8.8515  -17.0612   24.4699 C.2     1  UNL1        0.3481
      2 N          -7.7543  -17.2296   23.4610 N.2     1  UNL1       -0.0461
      3 C          -8.0897  -17.5501   22.0346 C.3     1  UNL1        0.3004
      4 C          -9.5224  -17.7022   21.6170 C.2     1  UNL1        0.0911
      5 C          -9.8579  -18.0227   20.1906 C.2     1  UNL1        0.0231
      6 C         -11.2905  -18.1748   19.7731 C.2     1  UNL1        0.0890
      7 N         -12.3877  -18.0064   20.7819 N.am    1  UNL1       -0.1710
      8 C         -12.0522  -17.6859   22.2084 C.2     1  UNL1        0.3121
      9 O         -13.1494  -17.5175   23.2172 O.2     1  UNL1       -0.2639
     10 C         -10.6196  -17.5338   22.6259 C.2     1  UNL1        0.2494
     11 N         -10.2841  -17.2133   24.0524 N.2     1  UNL1       -0.0343
     12 C          -8.1325  -15.3424   26.2807 C.3     1  UNL1        0.0136
     13 C          -8.5159  -16.7407   25.8964 C.3     1  UNL1        0.1234
     14 N          -6.9926  -17.7185   21.0257 N.3     1  UNL1       -0.2536
     15 H          -6.6783  -16.9434   20.5063 H       1  UNL1        0.1274
     16 C          -6.3742  -19.0676   20.8082 C.3     1  UNL1        0.0718
     17 C          -6.9591  -20.3836   21.2281 C.3     1  UNL1        0.0169
     18 C          -6.0088  -21.4670   20.8120 C.3     1  UNL1        0.0025
     19 C          -4.8366  -20.8207   20.1350 C.3     1  UNL1        0.0165
     20 C          -5.0625  -19.3378   20.1327 C.3     1  UNL1        0.1058
     21 C          -4.1388  -18.3062   19.5560 C.1     1  UNL1        0.0734
     22 N          -3.2151  -17.2746   18.9794 N.1     1  UNL1       -0.1958
@<TRIPOS>BOND
     1    12    13    1
     2    13     1    1
     3     1     2    2
     4     2     3    1
     5     3    14    1
     6    16    14    1
     7    16    17    1
     8    17    18    1
     9    18    19    1
    10    19    20    1
    11    20    21    1
    12    21    22    3
    13     3     4    1
    14     4     5    2
    15     5     6    1
    16     6     7    2
    17     7     8    1
    18     8     9    2
    19     8    10    1
    20    10    11    2
    21    11     1    1
    22    20    16    1
    23    10     4    1
    24    14    15    1
@<TRIPOS>MOLECULE
*****
 22 24 0 0 0
SMALL
GASTEIGER

@<TRIPOS>ATOM
      1 C         -10.0893  -17.3551   20.7500 C.2     1  UNL1        0.3481
      2 N          -9.6988  -16.3367   21.7798 N.2     1  UNL1       -0.0461
      3 C          -8.3677  -16.4345   22.4641 C.3     1  UNL1        0.3004
      4 C          -7.4270  -17.5508   22.1188 C.2     1  UNL1        0.0911
      5 C          -6.0958  -17.6486   22.8032 C.2     1  UNL1        0.0231
      6 C          -5.1552  -18.7648   22.4578 C.2     1  UNL1        0.0890
      7 N          -5.5457  -19.7831   21.4281 N.am    1  UNL1       -0.1710
      8 C          -6.8769  -19.6853   20.7437 C.2     1  UNL1        0.3121
      9 O          -7.2674  -20.7037   19.7139 O.2     1  UNL1       -0.2639
     10 C          -7.8175  -18.5692   21.0891 C.2     1  UNL1        0.2494
     11 N          -9.1487  -18.4713   20.4047 N.2     1  UNL1       -0.0343
     12 C         -11.8828  -15.9434   19.5087 C.3     1  UNL1        0.0136
     13 C         -11.4206  -17.2573   20.0656 C.3     1  UNL1        0.1234
     14 N          -7.9771  -15.4162   23.4939 N.3     1  UNL1       -0.2536
     15 H          -7.7254  -14.5061   23.2154 H       1  UNL1        0.1274
     16 C          -7.9702  -15.7844   24.9479 C.3     1  UNL1        0.0718
     17 C          -7.1044  -15.1716   26.0086 C.3     1  UNL1        0.0169
     18 C          -7.4270  -15.8385   27.3128 C.3     1  UNL1        0.0025
     19 C          -8.4921  -16.8636   27.0583 C.3     1  UNL1        0.0165
     20 C          -8.8279  -16.8301   25.5967 C.3     1  UNL1        0.1058
     21 C          -9.8430  -17.6912   24.9053 C.1     1  UNL1        0.0734
     22 N         -10.8582  -18.5522   24.2140 N.1     1  UNL1       -0.1958
@<TRIPOS>BOND
     1    12    13    1
     2    13     1    1
     3     1     2    2
     4     2     3    1
     5     3    14    1
     6    16    14    1
     7    16    17    1
     8    17    18    1
     9    18    19    1
    10    19    20    1
    11    20    21    1
    12    21    22    3
    13     3     4    1
    14     4     5    2
    15     5     6    1
    16     6     7    2
    17     7     8    1
    18     8     9    2
    19     8    10    1
    20    10    11    2
    21    11     1    1
    22    20    16    1
    23    10     4    1
    24    14    15    1
