@<TRIPOS>MOLECULE
*****
 39 41 0 0 0
SMALL
GASTEIGER

@<TRIPOS>ATOM
      1 C           6.5239   -2.9740   25.8099 C.2     1  UNL1        0.2485
      2 O           6.9795   -1.6215   25.3485 O.2     1  UNL1       -0.2726
      3 N           5.7513   -3.8626   24.8805 N.am    1  UNL1       -0.2823
      4 H           5.4523   -4.7504   25.1834 H       1  UNL1        0.1549
      5 C           8.4606   -5.4785   26.6017 C.2     1  UNL1        0.2566
      6 O           8.3315   -5.2503   25.1248 O.2     1  UNL1       -0.2721
      7 N           7.7310   -4.5893   27.5646 N.am    1  UNL1       -0.2634
      8 C           7.7636   -4.6951   29.0605 C.3     1  UNL1        0.1207
      9 C           6.8935   -3.6094   29.6211 C.ar    1  UNL1       -0.0030
     10 C           6.5469   -3.2278   31.0297 C.ar    1  UNL1        0.0155
     11 C           5.6300   -2.0693   31.2888 C.ar    1  UNL1        0.1054
     12 C           5.0597   -1.2925   30.1394 C.ar    1  UNL1        0.0181
     13 C           5.4064   -1.6741   28.7308 C.ar    1  UNL1       -0.0011
     14 C           6.3233   -2.8325   28.4716 C.ar    1  UNL1        0.0022
     15 C           6.8409   -3.4381   27.2007 C.3     1  UNL1        0.1751
     16 S           5.2833   -1.6877   32.6975 S.O2    1  UNL1        0.0104
     17 C           4.9366   -1.3061   34.1060 C.3     1  UNL1        0.1816
     18 O           6.7170   -1.3282   32.9530 O.2     1  UNL1       -0.1686
     19 O           3.8497   -2.0472   32.4420 O.2     1  UNL1       -0.1686
     20 C           9.3192   -6.5958   27.1157 C.3     1  UNL1        0.2272
     21 C           8.4777   -9.0077   27.5898 C.3     1  UNL1        0.1748
     22 O           9.0772   -8.0018   26.6523 O.3     1  UNL1       -0.3417
     23 C           5.4344   -3.3985   23.4898 C.ar    1  UNL1        0.0503
     24 C           4.3094   -2.4335   23.2593 C.ar    1  UNL1        0.0144
     25 C           3.9925   -1.9694   21.8685 C.ar    1  UNL1       -0.0002
     26 C           4.8005   -2.4704   20.7084 C.ar    1  UNL1        0.0182
     27 C           5.9255   -3.4354   20.9389 C.ar    1  UNL1       -0.0002
     28 C           6.2424   -3.8995   22.3296 C.ar    1  UNL1        0.0144
     29 C           4.4836   -2.0063   19.3176 C.3     1  UNL1        0.2827
     30 O           5.2510   -0.7414   19.5647 O.3     1  UNL1       -0.3692
     31 H           5.2231   -0.1858   18.7700 H       1  UNL1        0.2112
     32 C           4.1667   -1.5424   17.9268 C.3     1  UNL1        0.4311
     33 F           3.8498   -1.0784   16.5360 F       1  UNL1       -0.1669
     34 F           3.0710   -0.6719   18.4668 F       1  UNL1       -0.1669
     35 F           4.7860   -2.0192   17.5101 F       1  UNL1       -0.1669
     36 C           3.7163   -3.2713   19.0704 C.3     1  UNL1        0.4311
     37 F           2.9489   -4.5363   18.8233 F       1  UNL1       -0.1669
     38 F           2.9546   -3.0092   19.4388 F       1  UNL1       -0.1669
     39 F           4.7001   -4.1620   18.3713 F       1  UNL1       -0.1669
@<TRIPOS>BOND
     1    21    22    1
     2    22    20    1
     3    20     5    1
     4     5     6    2
     5     5     7   am
     6     7     8    1
     7     8     9    1
     8     9    10   ar
     9    10    11   ar
    10    11    16    1
    11    16    17    1
    12    16    18    2
    13    16    19    2
    14    11    12   ar
    15    12    13   ar
    16    13    14   ar
    17    14    15    1
    18    15     1    1
    19     1     2    2
    20     1     3   am
    21     3    23    1
    22    23    24   ar
    23    24    25   ar
    24    25    26   ar
    25    26    29    1
    26    29    30    1
    27    29    32    1
    28    32    33    1
    29    32    34    1
    30    32    35    1
    31    29    36    1
    32    36    37    1
    33    36    38    1
    34    36    39    1
    35    26    27   ar
    36    27    28   ar
    37    15     7    1
    38    28    23   ar
    39    14     9   ar
    40     3     4    1
    41    30    31    1
@<TRIPOS>MOLECULE
*****
 39 41 0 0 0
SMALL
GASTEIGER

@<TRIPOS>ATOM
      1 C           5.0100   -0.8894   26.1454 C.2     1  UNL1        0.2485
      2 O           5.5992    0.3194   25.4811 O.2     1  UNL1       -0.2726
      3 N           4.3395   -1.9471   25.3195 N.am    1  UNL1       -0.2823
      4 H           3.9528   -2.7405   25.7555 H       1  UNL1        0.1549
      5 C           6.8714   -3.0311   27.7572 C.2     1  UNL1        0.2566
      6 O           6.9996   -3.1132   26.2650 O.2     1  UNL1       -0.2721
      7 N           5.9468   -2.0252   28.3764 N.am    1  UNL1       -0.2634
      8 C           5.7155   -1.8271   29.8451 C.3     1  UNL1        0.1207
      9 C           4.7169   -0.7203   30.0120 C.ar    1  UNL1       -0.0030
     10 C           4.1091   -0.0922   31.2310 C.ar    1  UNL1        0.0155
     11 C           3.1155    1.0219   31.0844 C.ar    1  UNL1        0.1054
     12 C           2.7297    1.5079   29.7187 C.ar    1  UNL1        0.0181
     13 C           3.3375    0.8798   28.4997 C.ar    1  UNL1       -0.0011
     14 C           4.3311   -0.2343   28.6464 C.ar    1  UNL1        0.0022
     15 C           5.0912   -1.0408   27.6355 C.3     1  UNL1        0.1751
     16 S           2.5077    1.6501   32.3034 S.O2    1  UNL1        0.0104
     17 C           1.8999    2.2782   33.5224 C.3     1  UNL1        0.1816
     18 O           1.1365    1.3853   31.7562 O.2     1  UNL1       -0.1686
     19 O           3.8790    1.9148   32.8507 O.2     1  UNL1       -0.1686
     20 C           7.6678   -3.9549   28.6303 C.3     1  UNL1        0.2272
     21 C           6.9720   -5.7710   30.3530 C.3     1  UNL1        0.1748
     22 O           7.1543   -5.3319   28.9303 O.3     1  UNL1       -0.3417
     23 C           4.2582   -1.7957   23.8294 C.ar    1  UNL1        0.0503
     24 C           5.2175   -2.5378   22.9467 C.ar    1  UNL1        0.0144
     25 C           5.1362   -2.3865   21.4566 C.ar    1  UNL1       -0.0002
     26 C           4.0957   -1.4929   20.8492 C.ar    1  UNL1        0.0182
     27 C           3.1365   -0.7508   21.7318 C.ar    1  UNL1       -0.0002
     28 C           3.2178   -0.9022   23.2220 C.ar    1  UNL1        0.0144
     29 C           4.0144   -1.3415   19.3590 C.3     1  UNL1        0.2827
     30 O           4.5731    0.0462   19.4695 O.3     1  UNL1       -0.3692
     31 H           4.6440    0.4376   18.5848 H       1  UNL1        0.2112
     32 C           3.9331   -1.1901   17.8689 C.3     1  UNL1        0.4311
     33 F           3.8517   -1.0388   16.3788 F       1  UNL1       -0.1669
     34 F           5.4083   -1.4403   17.7630 F       1  UNL1       -0.1669
     35 F           3.0627   -1.0327   17.8236 F       1  UNL1       -0.1669
     36 C           3.4557   -2.7292   19.2486 C.3     1  UNL1        0.4311
     37 F           2.8969   -4.1169   19.1382 F       1  UNL1       -0.1669
     38 F           2.6702   -2.5592   19.6210 F       1  UNL1       -0.1669
     39 F           4.5543   -3.5117   18.5922 F       1  UNL1       -0.1669
@<TRIPOS>BOND
     1    21    22    1
     2    22    20    1
     3    20     5    1
     4     5     6    2
     5     5     7   am
     6     7     8    1
     7     8     9    1
     8     9    10   ar
     9    10    11   ar
    10    11    16    1
    11    16    17    1
    12    16    18    2
    13    16    19    2
    14    11    12   ar
    15    12    13   ar
    16    13    14   ar
    17    14    15    1
    18    15     1    1
    19     1     2    2
    20     1     3   am
    21     3    23    1
    22    23    24   ar
    23    24    25   ar
    24    25    26   ar
    25    26    29    1
    26    29    30    1
    27    29    32    1
    28    32    33    1
    29    32    34    1
    30    32    35    1
    31    29    36    1
    32    36    37    1
    33    36    38    1
    34    36    39    1
    35    26    27   ar
    36    27    28   ar
    37    15     7    1
    38    28    23   ar
    39    14     9   ar
    40     3     4    1
    41    30    31    1
@<TRIPOS>MOLECULE
*****
 39 41 0 0 0
SMALL
GASTEIGER

@<TRIPOS>ATOM
      1 C           1.7537    1.2073   24.4841 C.2     1  UNL1        0.2485
      2 O           2.9559    1.9694   24.9569 O.2     1  UNL1       -0.2726
      3 N           0.6510    0.8745   25.4451 N.am    1  UNL1       -0.2823
      4 H          -0.1382    0.3743   25.1348 H       1  UNL1        0.1549
      5 C          -0.1716    2.5414   22.2118 C.2     1  UNL1        0.2566
      6 O          -0.2864    3.1838   23.5623 O.2     1  UNL1       -0.2721
      7 N           0.7690    1.3912   22.0058 N.am    1  UNL1       -0.2634
      8 C           0.9897    0.6522   20.7193 C.3     1  UNL1        0.1207
      9 C           2.0111   -0.4177   20.9686 C.ar    1  UNL1       -0.0030
     10 C           2.6204   -1.4526   20.0699 C.ar    1  UNL1        0.0155
     11 C           3.6401   -2.4098   20.6119 C.ar    1  UNL1        0.1054
     12 C           4.0506   -2.3321   22.0526 C.ar    1  UNL1        0.0181
     13 C           3.4413   -1.2972   22.9512 C.ar    1  UNL1       -0.0011
     14 C           2.4216   -0.3400   22.4092 C.ar    1  UNL1        0.0022
     15 C           1.6539    0.7780   23.0503 C.3     1  UNL1        0.1751
     16 S           4.2495   -3.4448   19.7132 S.O2    1  UNL1        0.0104
     17 C           4.8588   -4.4797   18.8146 C.3     1  UNL1        0.1816
     18 O           4.4559   -4.3478   20.8930 O.2     1  UNL1       -0.1686
     19 O           4.0430   -2.5419   18.5334 O.2     1  UNL1       -0.1686
     20 C          -0.9974    3.0492   21.0671 C.3     1  UNL1        0.2272
     21 C          -3.5009    3.5250   21.5731 C.3     1  UNL1        0.1748
     22 O          -2.4420    2.6613   20.9544 O.3     1  UNL1       -0.3417
     23 C           0.7508    1.3038   26.8789 C.ar    1  UNL1        0.0503
     24 C           0.2665    2.6626   27.2904 C.ar    1  UNL1        0.0144
     25 C           0.3663    3.0919   28.7242 C.ar    1  UNL1       -0.0002
     26 C           0.9503    2.1624   29.7464 C.ar    1  UNL1        0.0182
     27 C           1.4345    0.8037   29.3349 C.ar    1  UNL1       -0.0002
     28 C           1.3348    0.3744   27.9011 C.ar    1  UNL1        0.0144
     29 C           1.0501    2.5917   31.1802 C.3     1  UNL1        0.2827
     30 O          -0.1167    1.7140   31.5243 O.3     1  UNL1       -0.3692
     31 H          -0.3073    1.7866   32.4726 H       1  UNL1        0.2112
     32 C           1.1500    3.0210   32.6140 C.3     1  UNL1        0.4311
     33 F           1.2499    3.4503   34.0478 F       1  UNL1       -0.1669
     34 F           1.7721    1.7021   32.9656 F       1  UNL1       -0.1669
     35 F           0.7926    3.8248   32.5112 F       1  UNL1       -0.1669
     36 C           2.2169    3.4693   30.8362 C.3     1  UNL1        0.4311
     37 F           3.3838    4.3469   30.4921 F       1  UNL1       -0.1669
     38 F           2.8442    2.8481   30.9085 F       1  UNL1       -0.1669
     39 F           1.5998    4.8145   30.5921 F       1  UNL1       -0.1669
@<TRIPOS>BOND
     1    21    22    1
     2    22    20    1
     3    20     5    1
     4     5     6    2
     5     5     7   am
     6     7     8    1
     7     8     9    1
     8     9    10   ar
     9    10    11   ar
    10    11    16    1
    11    16    17    1
    12    16    18    2
    13    16    19    2
    14    11    12   ar
    15    12    13   ar
    16    13    14   ar
    17    14    15    1
    18    15     1    1
    19     1     2    2
    20     1     3   am
    21     3    23    1
    22    23    24   ar
    23    24    25   ar
    24    25    26   ar
    25    26    29    1
    26    29    30    1
    27    29    32    1
    28    32    33    1
    29    32    34    1
    30    32    35    1
    31    29    36    1
    32    36    37    1
    33    36    38    1
    34    36    39    1
    35    26    27   ar
    36    27    28   ar
    37    15     7    1
    38    28    23   ar
    39    14     9   ar
    40     3     4    1
    41    30    31    1
@<TRIPOS>MOLECULE
*****
 39 41 0 0 0
SMALL
GASTEIGER

@<TRIPOS>ATOM
      1 C           0.8542    1.7056   24.1374 C.2     1  UNL1        0.2485
      2 O           1.6145    2.6925   23.3021 O.2     1  UNL1       -0.2726
      3 N           1.0459    0.2338   23.9196 N.am    1  UNL1       -0.2823
      4 H           0.5470   -0.4140   24.4678 H       1  UNL1        0.1549
      5 C           1.1774    1.2812   27.3569 C.2     1  UNL1        0.2566
      6 O           2.2904    0.6839   26.5481 O.2     1  UNL1       -0.2721
      7 N           0.0509    1.9951   26.6703 N.am    1  UNL1       -0.2634
      8 C          -1.1249    2.6393   27.3430 C.3     1  UNL1        0.1207
      9 C          -2.0001    3.2325   26.2790 C.ar    1  UNL1       -0.0030
     10 C          -3.2931    3.9895   26.3496 C.ar    1  UNL1        0.0155
     11 C          -3.9512    4.4690   25.0899 C.ar    1  UNL1        0.1054
     12 C          -3.3163    4.1914   23.7595 C.ar    1  UNL1        0.0181
     13 C          -2.0233    3.4344   23.6889 C.ar    1  UNL1       -0.0011
     14 C          -1.3652    2.9549   24.9486 C.ar    1  UNL1        0.0022
     15 C          -0.0977    2.1902   25.1905 C.3     1  UNL1        0.1751
     16 S          -5.2443    5.2260   25.1604 S.O2    1  UNL1        0.0104
     17 C          -6.5373    5.9831   25.2310 C.3     1  UNL1        0.1816
     18 O          -5.2677    5.0474   26.6496 O.2     1  UNL1       -0.1686
     19 O          -5.2209    5.4047   23.6713 O.2     1  UNL1       -0.1686
     20 C           1.1908    1.1647   28.8523 C.3     1  UNL1        0.2272
     21 C          -0.7975   -0.5076   28.8396 C.3     1  UNL1        0.1748
     22 O           0.3952    0.0873   29.5278 O.3     1  UNL1       -0.3417
     23 C           1.9978   -0.2508   22.8665 C.ar    1  UNL1        0.0503
     24 C           3.3197   -0.8382   23.2634 C.ar    1  UNL1        0.0144
     25 C           4.2716   -1.3228   22.2102 C.ar    1  UNL1       -0.0002
     26 C           3.9016   -1.2199   20.7603 C.ar    1  UNL1        0.0182
     27 C           2.5797   -0.6325   20.3634 C.ar    1  UNL1       -0.0002
     28 C           1.6278   -0.1479   21.4165 C.ar    1  UNL1        0.0144
     29 C           4.8534   -1.7045   19.7071 C.3     1  UNL1        0.2827
     30 O           5.7807   -0.5684   20.0223 O.3     1  UNL1       -0.3692
     31 H           6.5609   -0.6189   19.4481 H       1  UNL1        0.2112
     32 C           5.8052   -2.1892   18.6539 C.3     1  UNL1        0.4311
     33 F           6.7570   -2.6738   17.6007 F       1  UNL1       -0.1669
     34 F           5.4752   -0.9962   17.8066 F       1  UNL1       -0.1669
     35 F           6.0672   -2.9232   19.0746 F       1  UNL1       -0.1669
     36 C           3.9262   -2.8407   19.3919 C.3     1  UNL1        0.4311
     37 F           2.9988   -3.9768   19.0766 F       1  UNL1       -0.1669
     38 F           3.6491   -2.5391   18.6065 F       1  UNL1       -0.1669
     39 F           4.0500   -3.7502   20.5783 F       1  UNL1       -0.1669
@<TRIPOS>BOND
     1    21    22    1
     2    22    20    1
     3    20     5    1
     4     5     6    2
     5     5     7   am
     6     7     8    1
     7     8     9    1
     8     9    10   ar
     9    10    11   ar
    10    11    16    1
    11    16    17    1
    12    16    18    2
    13    16    19    2
    14    11    12   ar
    15    12    13   ar
    16    13    14   ar
    17    14    15    1
    18    15     1    1
    19     1     2    2
    20     1     3   am
    21     3    23    1
    22    23    24   ar
    23    24    25   ar
    24    25    26   ar
    25    26    29    1
    26    29    30    1
    27    29    32    1
    28    32    33    1
    29    32    34    1
    30    32    35    1
    31    29    36    1
    32    36    37    1
    33    36    38    1
    34    36    39    1
    35    26    27   ar
    36    27    28   ar
    37    15     7    1
    38    28    23   ar
    39    14     9   ar
    40     3     4    1
    41    30    31    1
@<TRIPOS>MOLECULE
*****
 39 41 0 0 0
SMALL
GASTEIGER

@<TRIPOS>ATOM
      1 C           2.1700    0.9215   25.1952 C.2     1  UNL1        0.2485
      2 O           3.4778    1.4597   25.6950 O.2     1  UNL1       -0.2726
      3 N           1.0413    0.6834   26.1541 N.am    1  UNL1       -0.2823
      4 H           0.1829    0.3301   25.8260 H       1  UNL1        0.1549
      5 C           0.1700    2.4871   23.1462 C.2     1  UNL1        0.2566
      6 O           0.1360    3.0110   24.5512 O.2     1  UNL1       -0.2721
      7 N           1.0715    1.3409   22.7947 N.am    1  UNL1       -0.2634
      8 C           1.2121    0.7131   21.4396 C.3     1  UNL1        0.1207
      9 C           2.2182   -0.3945   21.5440 C.ar    1  UNL1       -0.0030
     10 C           2.7583   -1.3587   20.5298 C.ar    1  UNL1        0.0155
     11 C           3.7797   -2.3796   20.9352 C.ar    1  UNL1        0.1054
     12 C           4.2610   -2.4364   22.3547 C.ar    1  UNL1        0.0181
     13 C           3.7209   -1.4722   23.3689 C.ar    1  UNL1       -0.0011
     14 C           2.6995   -0.4512   22.9635 C.ar    1  UNL1        0.0022
     15 C           1.9908    0.6213   23.7365 C.3     1  UNL1        0.1751
     16 S           4.3198   -3.3439   19.9210 S.O2    1  UNL1        0.0104
     17 C           4.8599   -4.3082   18.9069 C.3     1  UNL1        0.1816
     18 O           4.1547   -2.3084   18.8484 O.2     1  UNL1       -0.1686
     19 O           4.4849   -4.3794   20.9936 O.2     1  UNL1       -0.1686
     20 C          -0.6976    3.1093   22.0926 C.3     1  UNL1        0.2272
     21 C           1.0708    4.9622   21.6571 C.3     1  UNL1        0.1748
     22 O          -0.1583    4.2141   21.2331 O.3     1  UNL1       -0.3417
     23 C           1.2205    0.9836   27.6128 C.ar    1  UNL1        0.0503
     24 C           1.7604   -0.0695   28.5344 C.ar    1  UNL1        0.0144
     25 C           1.9396    0.2307   29.9931 C.ar    1  UNL1       -0.0002
     26 C           1.5788    1.5840   30.5301 C.ar    1  UNL1        0.0182
     27 C           1.0389    2.6371   29.6084 C.ar    1  UNL1       -0.0002
     28 C           0.8597    2.3369   28.1497 C.ar    1  UNL1        0.0144
     29 C           1.7580    1.8843   31.9888 C.3     1  UNL1        0.2827
     30 O           0.2970    1.6348   32.2197 O.3     1  UNL1       -0.3692
     31 H           0.0914    1.7641   33.1588 H       1  UNL1        0.2112
     32 C           1.9372    2.1846   33.4475 C.3     1  UNL1        0.4311
     33 F           2.1165    2.4849   34.9061 F       1  UNL1       -0.1669
     34 F           1.1294    3.4385   33.2886 F       1  UNL1       -0.1669
     35 F           2.4236    1.4714   33.6456 F       1  UNL1       -0.1669
     36 C           3.2190    2.1338   31.7579 C.3     1  UNL1        0.4311
     37 F           4.6800    2.3834   31.5270 F       1  UNL1       -0.1669
     38 F           3.1538    2.9989   31.5791 F       1  UNL1       -0.1669
     39 F           3.8545    0.7918   31.9705 F       1  UNL1       -0.1669
@<TRIPOS>BOND
     1    21    22    1
     2    22    20    1
     3    20     5    1
     4     5     6    2
     5     5     7   am
     6     7     8    1
     7     8     9    1
     8     9    10   ar
     9    10    11   ar
    10    11    16    1
    11    16    17    1
    12    16    18    2
    13    16    19    2
    14    11    12   ar
    15    12    13   ar
    16    13    14   ar
    17    14    15    1
    18    15     1    1
    19     1     2    2
    20     1     3   am
    21     3    23    1
    22    23    24   ar
    23    24    25   ar
    24    25    26   ar
    25    26    29    1
    26    29    30    1
    27    29    32    1
    28    32    33    1
    29    32    34    1
    30    32    35    1
    31    29    36    1
    32    36    37    1
    33    36    38    1
    34    36    39    1
    35    26    27   ar
    36    27    28   ar
    37    15     7    1
    38    28    23   ar
    39    14     9   ar
    40     3     4    1
    41    30    31    1
@<TRIPOS>MOLECULE
*****
 39 41 0 0 0
SMALL
GASTEIGER

@<TRIPOS>ATOM
      1 C           3.4839    0.0366   26.2001 C.2     1  UNL1        0.2485
      2 O           4.4036    1.1200   26.6796 O.2     1  UNL1       -0.2726
      3 N           2.9869   -1.0043   27.1591 N.am    1  UNL1       -0.2823
      4 H           2.3833   -1.7155   26.8444 H       1  UNL1        0.1549
      5 C           1.3621    2.0575   24.7636 C.2     1  UNL1        0.2566
      6 O           1.5889    2.3445   26.2183 O.2     1  UNL1       -0.2721
      7 N           2.0857    0.9227   24.1013 N.am    1  UNL1       -0.2634
      8 C           1.9612    0.5177   22.6624 C.3     1  UNL1        0.1207
      9 C           2.8595   -0.6616   22.4334 C.ar    1  UNL1       -0.0030
     10 C           3.1463   -1.4824   21.2111 C.ar    1  UNL1        0.0155
     11 C           4.1128   -2.6270   21.2862 C.ar    1  UNL1        0.1054
     12 C           4.7926   -2.9508   22.5836 C.ar    1  UNL1        0.0181
     13 C           4.5058   -2.1299   23.8059 C.ar    1  UNL1       -0.0011
     14 C           3.5392   -0.9854   23.7307 C.ar    1  UNL1        0.0022
     15 C           3.0610   -0.0062   24.7615 C.3     1  UNL1        0.1751
     16 S           4.3997   -3.4479   20.0640 S.O2    1  UNL1        0.0104
     17 C           4.6865   -4.2687   18.8417 C.3     1  UNL1        0.1816
     18 O           4.4077   -4.6922   20.9015 O.2     1  UNL1       -0.1686
     19 O           4.3917   -2.2036   19.2264 O.2     1  UNL1       -0.1686
     20 C           0.4116    2.9052   23.9712 C.3     1  UNL1        0.2272
     21 C          -1.9383    3.4938   24.9103 C.3     1  UNL1        0.1748
     22 O          -0.5037    3.8633   24.6744 O.3     1  UNL1       -0.3417
     23 C           3.4098   -0.9616   28.5977 C.ar    1  UNL1        0.0503
     24 C           4.8283   -1.2741   28.9720 C.ar    1  UNL1        0.0144
     25 C           5.2512   -1.2314   30.4106 C.ar    1  UNL1       -0.0002
     26 C           4.2555   -0.8762   31.4747 C.ar    1  UNL1        0.0182
     27 C           2.8369   -0.5637   31.1003 C.ar    1  UNL1       -0.0002
     28 C           2.4141   -0.6064   29.6618 C.ar    1  UNL1        0.0144
     29 C           4.6782   -0.8334   32.9133 C.3     1  UNL1        0.2827
     30 O           4.2310    0.5956   33.0023 O.3     1  UNL1       -0.3692
     31 H           4.3924    0.9296   33.8986 H       1  UNL1        0.2112
     32 C           5.1010   -0.7907   34.3518 C.3     1  UNL1        0.4311
     33 F           5.5238   -0.7481   35.7904 F       1  UNL1       -0.1669
     34 F           6.1484    0.2284   34.0137 F       1  UNL1       -0.1669
     35 F           4.5176   -1.3849   34.6536 F       1  UNL1       -0.1669
     36 C           5.1255   -2.2624   32.8242 C.3     1  UNL1        0.4311
     37 F           5.5726   -3.6915   32.7351 F       1  UNL1       -0.1669
     38 F           4.3229   -2.6199   32.7121 F       1  UNL1       -0.1669
     39 F           6.6157   -2.1867   32.9776 F       1  UNL1       -0.1669
@<TRIPOS>BOND
     1    21    22    1
     2    22    20    1
     3    20     5    1
     4     5     6    2
     5     5     7   am
     6     7     8    1
     7     8     9    1
     8     9    10   ar
     9    10    11   ar
    10    11    16    1
    11    16    17    1
    12    16    18    2
    13    16    19    2
    14    11    12   ar
    15    12    13   ar
    16    13    14   ar
    17    14    15    1
    18    15     1    1
    19     1     2    2
    20     1     3   am
    21     3    23    1
    22    23    24   ar
    23    24    25   ar
    24    25    26   ar
    25    26    29    1
    26    29    30    1
    27    29    32    1
    28    32    33    1
    29    32    34    1
    30    32    35    1
    31    29    36    1
    32    36    37    1
    33    36    38    1
    34    36    39    1
    35    26    27   ar
    36    27    28   ar
    37    15     7    1
    38    28    23   ar
    39    14     9   ar
    40     3     4    1
    41    30    31    1
@<TRIPOS>MOLECULE
*****
 39 41 0 0 0
SMALL
GASTEIGER

@<TRIPOS>ATOM
      1 C           4.4377   -0.8254   26.8319 C.2     1  UNL1        0.2485
      2 O           4.7816    0.6272   26.6859 O.2     1  UNL1       -0.2726
      3 N           3.4670   -1.2638   27.8883 N.am    1  UNL1       -0.2823
      4 H           3.2412   -2.2173   27.9842 H       1  UNL1        0.1549
      5 C           6.7774   -2.9489   27.6482 C.2     1  UNL1        0.2566
      6 O           6.3461   -2.0544   28.7724 O.2     1  UNL1       -0.2721
      7 N           6.1398   -2.8158   26.2970 N.am    1  UNL1       -0.2634
      8 C           6.4656   -3.6354   25.0837 C.3     1  UNL1        0.1207
      9 C           5.5916   -3.1660   23.9587 C.ar    1  UNL1       -0.0030
     10 C           5.4725   -3.6056   22.5296 C.ar    1  UNL1        0.0155
     11 C           4.4873   -2.9355   21.6184 C.ar    1  UNL1        0.1054
     12 C           3.6213   -1.8257   22.1364 C.ar    1  UNL1        0.0181
     13 C           3.7404   -1.3860   23.5655 C.ar    1  UNL1       -0.0011
     14 C           4.7256   -2.0562   24.4767 C.ar    1  UNL1        0.0022
     15 C           5.0643   -1.8398   25.9218 C.3     1  UNL1        0.1751
     16 S           4.3682   -3.3751   20.1892 S.O2    1  UNL1        0.0104
     17 C           4.2490   -3.8147   18.7600 C.3     1  UNL1        0.1816
     18 O           4.3329   -4.8076   20.6327 O.2     1  UNL1       -0.1686
     19 O           4.4035   -1.9427   19.7457 O.2     1  UNL1       -0.1686
     20 C           7.8462   -3.9765   27.8753 C.3     1  UNL1        0.2272
     21 C           6.7720   -5.4677   29.7118 C.3     1  UNL1        0.1748
     22 O           7.4819   -5.3349   28.3971 O.3     1  UNL1       -0.3417
     23 C           2.8403   -0.2494   28.7984 C.ar    1  UNL1        0.0503
     24 C           3.6775    0.4581   29.8224 C.ar    1  UNL1        0.0144
     25 C           3.0508    1.4725   30.7325 C.ar    1  UNL1       -0.0002
     26 C           1.5870    1.7792   30.6186 C.ar    1  UNL1        0.0182
     27 C           0.7498    1.0717   29.5947 C.ar    1  UNL1       -0.0002
     28 C           1.3765    0.0574   28.6845 C.ar    1  UNL1        0.0144
     29 C           0.9602    2.7936   31.5287 C.3     1  UNL1        0.2827
     30 O           0.4483    1.6901   32.4063 O.3     1  UNL1       -0.3692
     31 H          -0.0441    2.0707   33.1503 H       1  UNL1        0.2112
     32 C           0.3335    3.8080   32.4388 C.3     1  UNL1        0.4311
     33 F          -0.2932    4.8225   33.3488 F       1  UNL1       -0.1669
     34 F           1.2680    3.3988   33.5385 F       1  UNL1       -0.1669
     35 F          -0.2593    4.1209   31.8598 F       1  UNL1       -0.1669
     36 C           1.4721    3.8972   30.6512 C.3     1  UNL1        0.4311
     37 F           1.9839    5.0007   29.7735 F       1  UNL1       -0.1669
     38 F           0.9213    3.7588   29.9714 F       1  UNL1       -0.1669
     39 F           2.5688    4.5248   31.4595 F       1  UNL1       -0.1669
@<TRIPOS>BOND
     1    21    22    1
     2    22    20    1
     3    20     5    1
     4     5     6    2
     5     5     7   am
     6     7     8    1
     7     8     9    1
     8     9    10   ar
     9    10    11   ar
    10    11    16    1
    11    16    17    1
    12    16    18    2
    13    16    19    2
    14    11    12   ar
    15    12    13   ar
    16    13    14   ar
    17    14    15    1
    18    15     1    1
    19     1     2    2
    20     1     3   am
    21     3    23    1
    22    23    24   ar
    23    24    25   ar
    24    25    26   ar
    25    26    29    1
    26    29    30    1
    27    29    32    1
    28    32    33    1
    29    32    34    1
    30    32    35    1
    31    29    36    1
    32    36    37    1
    33    36    38    1
    34    36    39    1
    35    26    27   ar
    36    27    28   ar
    37    15     7    1
    38    28    23   ar
    39    14     9   ar
    40     3     4    1
    41    30    31    1
@<TRIPOS>MOLECULE
*****
 39 41 0 0 0
SMALL
GASTEIGER

@<TRIPOS>ATOM
      1 C           2.0007    0.8544   24.9422 C.2     1  UNL1        0.2485
      2 O           2.4577    2.2796   24.8431 O.2     1  UNL1       -0.2726
      3 N           0.5867    0.5459   25.3366 N.am    1  UNL1       -0.2823
      4 H           0.2867   -0.3896   25.4016 H       1  UNL1        0.1549
      5 C           3.8819   -0.6856   27.1193 C.2     1  UNL1        0.2566
      6 O           3.0235    0.3935   27.7098 O.2     1  UNL1       -0.2721
      7 N           3.8224   -0.9702   25.6477 N.am    1  UNL1       -0.2634
      8 C           4.6170   -2.0126   24.9184 C.3     1  UNL1        0.1207
      9 C           4.2435   -1.9490   23.4671 C.ar    1  UNL1       -0.0030
     10 C           4.7048   -2.7363   22.2766 C.ar    1  UNL1        0.0155
     11 C           4.1404   -2.4419   20.9183 C.ar    1  UNL1        0.1054
     12 C           3.1149   -1.3602   20.7506 C.ar    1  UNL1        0.0181
     13 C           2.6537   -0.5729   21.9411 C.ar    1  UNL1       -0.0011
     14 C           3.2180   -0.8673   23.2993 C.ar    1  UNL1        0.0022
     15 C           2.9577   -0.2623   24.6470 C.3     1  UNL1        0.1751
     16 S           4.6017   -3.2293   19.7277 S.O2    1  UNL1        0.0104
     17 C           5.0629   -4.0166   18.5372 C.3     1  UNL1        0.1816
     18 O           3.2995   -2.9491   19.0379 O.2     1  UNL1       -0.1686
     19 O           5.9038   -3.5095   20.4175 O.2     1  UNL1       -0.1686
     20 C           4.7998   -1.4800   28.0003 C.3     1  UNL1        0.2272
     21 C           6.8153    0.0770   27.4870 C.3     1  UNL1        0.1748
     22 O           6.1435   -0.9285   28.3746 O.3     1  UNL1       -0.3417
     23 C          -0.3703    1.6626   25.6317 C.ar    1  UNL1        0.0503
     24 C          -0.9340    2.4834   24.5100 C.ar    1  UNL1        0.0144
     25 C          -1.8910    3.6002   24.8052 C.ar    1  UNL1       -0.0002
     26 C          -2.2841    3.8960   26.2221 C.ar    1  UNL1        0.0182
     27 C          -1.7204    3.0751   27.3439 C.ar    1  UNL1       -0.0002
     28 C          -0.7634    1.9584   27.0487 C.ar    1  UNL1        0.0144
     29 C          -3.2411    5.0127   26.5174 C.3     1  UNL1        0.2827
     30 O          -2.1266    5.8048   27.1342 O.3     1  UNL1       -0.3692
     31 H          -2.4699    6.6564   27.4472 H       1  UNL1        0.2112
     32 C          -4.1982    6.1294   26.8127 C.3     1  UNL1        0.4311
     33 F          -5.1552    7.2461   27.1079 F       1  UNL1       -0.1669
     34 F          -3.4678    7.0115   25.8438 F       1  UNL1       -0.1669
     35 F          -4.6951    5.6929   27.4017 F       1  UNL1       -0.1669
     36 C          -4.3556    4.2206   25.9007 C.3     1  UNL1        0.4311
     37 F          -5.4702    3.4284   25.2839 F       1  UNL1       -0.1669
     38 F          -4.4011    3.5940   26.5251 F       1  UNL1       -0.1669
     39 F          -4.6829    4.9718   24.6442 F       1  UNL1       -0.1669
@<TRIPOS>BOND
     1    21    22    1
     2    22    20    1
     3    20     5    1
     4     5     6    2
     5     5     7   am
     6     7     8    1
     7     8     9    1
     8     9    10   ar
     9    10    11   ar
    10    11    16    1
    11    16    17    1
    12    16    18    2
    13    16    19    2
    14    11    12   ar
    15    12    13   ar
    16    13    14   ar
    17    14    15    1
    18    15     1    1
    19     1     2    2
    20     1     3   am
    21     3    23    1
    22    23    24   ar
    23    24    25   ar
    24    25    26   ar
    25    26    29    1
    26    29    30    1
    27    29    32    1
    28    32    33    1
    29    32    34    1
    30    32    35    1
    31    29    36    1
    32    36    37    1
    33    36    38    1
    34    36    39    1
    35    26    27   ar
    36    27    28   ar
    37    15     7    1
    38    28    23   ar
    39    14     9   ar
    40     3     4    1
    41    30    31    1
@<TRIPOS>MOLECULE
*****
 39 41 0 0 0
SMALL
GASTEIGER

@<TRIPOS>ATOM
      1 C           5.0323   -1.6650   26.3513 C.2     1  UNL1        0.2485
      2 O           3.5849   -1.4288   26.0365 O.2     1  UNL1       -0.2726
      3 N           6.0344   -1.7682   25.2398 N.am    1  UNL1       -0.2823
      4 H           6.9845   -1.9232   25.4464 H       1  UNL1        0.1549
      5 C           4.7654    0.6206   28.6653 C.2     1  UNL1        0.2566
      6 O           4.2309    1.0408   27.3282 O.2     1  UNL1       -0.2721
      7 N           5.3550   -0.7474   28.8411 N.am    1  UNL1       -0.2634
      8 C           5.9255   -1.3051   30.1113 C.3     1  UNL1        0.1207
      9 C           6.4007   -2.7003   29.8328 C.ar    1  UNL1       -0.0030
     10 C           7.0497   -3.7326   30.7063 C.ar    1  UNL1        0.0155
     11 C           7.4220   -5.0696   30.1373 C.ar    1  UNL1        0.1054
     12 C           7.1452   -5.3743   28.6949 C.ar    1  UNL1        0.0181
     13 C           6.4962   -4.3419   27.8214 C.ar    1  UNL1       -0.0011
     14 C           6.1240   -3.0049   28.3904 C.ar    1  UNL1        0.0022
     15 C           5.4777   -1.7980   27.7775 C.3     1  UNL1        0.1751
     16 S           8.0710   -6.1021   31.0108 S.O2    1  UNL1        0.0104
     17 C           8.7200   -7.1345   31.8841 C.3     1  UNL1        0.1816
     18 O           6.8216   -6.1892   31.8362 O.2     1  UNL1       -0.1686
     19 O           9.3204   -6.0150   30.1853 O.2     1  UNL1       -0.1686
     20 C           4.7102    1.5684   29.8265 C.3     1  UNL1        0.2272
     21 C           2.2491    1.6969   30.6490 C.3     1  UNL1        0.1748
     22 O           3.6901    1.3706   30.9083 O.3     1  UNL1       -0.3417
     23 C           5.5891   -1.6352   23.8137 C.ar    1  UNL1        0.0503
     24 C           5.8755   -0.3746   23.0529 C.ar    1  UNL1        0.0144
     25 C           5.4301   -0.2416   21.6268 C.ar    1  UNL1       -0.0002
     26 C           4.6983   -1.3693   20.9614 C.ar    1  UNL1        0.0182
     27 C           4.4119   -2.6300   21.7222 C.ar    1  UNL1       -0.0002
     28 C           4.8573   -2.7629   23.1483 C.ar    1  UNL1        0.0144
     29 C           4.2529   -1.2364   19.5352 C.3     1  UNL1        0.2827
     30 O           5.6852   -1.1960   19.0915 O.3     1  UNL1       -0.3692
     31 H           5.7223   -1.1063   18.1264 H       1  UNL1        0.2112
     32 C           3.8073   -1.1035   18.1091 C.3     1  UNL1        0.4311
     33 F           3.3618   -0.9706   16.6830 F       1  UNL1       -0.1669
     34 F           4.5127   -2.3830   17.7695 F       1  UNL1       -0.1669
     35 F           3.3618   -0.3441   18.2054 F       1  UNL1       -0.1669
     36 C           2.8205   -1.2768   19.9789 C.3     1  UNL1        0.4311
     37 F           1.3882   -1.3173   20.4226 F       1  UNL1       -0.1669
     38 F           2.6375   -2.0900   19.6790 F       1  UNL1       -0.1669
     39 F           2.6062    0.0546   20.6356 F       1  UNL1       -0.1669
@<TRIPOS>BOND
     1    21    22    1
     2    22    20    1
     3    20     5    1
     4     5     6    2
     5     5     7   am
     6     7     8    1
     7     8     9    1
     8     9    10   ar
     9    10    11   ar
    10    11    16    1
    11    16    17    1
    12    16    18    2
    13    16    19    2
    14    11    12   ar
    15    12    13   ar
    16    13    14   ar
    17    14    15    1
    18    15     1    1
    19     1     2    2
    20     1     3   am
    21     3    23    1
    22    23    24   ar
    23    24    25   ar
    24    25    26   ar
    25    26    29    1
    26    29    30    1
    27    29    32    1
    28    32    33    1
    29    32    34    1
    30    32    35    1
    31    29    36    1
    32    36    37    1
    33    36    38    1
    34    36    39    1
    35    26    27   ar
    36    27    28   ar
    37    15     7    1
    38    28    23   ar
    39    14     9   ar
    40     3     4    1
    41    30    31    1
