@<TRIPOS>MOLECULE
*****
 40 42 0 0 0
SMALL
GASTEIGER

@<TRIPOS>ATOM
      1 O          -6.7958  -20.1463   20.2417 O.2     1  UNL1       -0.2864
      2 C          -7.2381  -18.9838   21.0801 C.2     1  UNL1        0.2000
      3 C          -8.6435  -18.4711   20.9696 C.ar    1  UNL1        0.0786
      4 C          -9.6065  -19.1210   20.0208 C.ar    1  UNL1        0.1370
      5 O          -9.1641  -20.2836   19.1824 O.3     1  UNL1       -0.5054
      6 C         -11.0118  -18.6084   19.9103 C.ar    1  UNL1        0.0398
      7 C         -11.4541  -17.4458   20.7487 C.ar    1  UNL1        0.0398
      8 C         -10.4911  -16.7959   21.6975 C.ar    1  UNL1        0.1370
      9 O         -10.9335  -15.6334   22.5358 O.3     1  UNL1       -0.5054
     10 C          -9.0858  -17.3086   21.8079 C.ar    1  UNL1        0.0786
     11 C          -8.1228  -16.6587   22.7567 C.2     1  UNL1        0.2000
     12 O          -8.5651  -15.4961   23.5951 O.2     1  UNL1       -0.2864
     13 C          -6.7175  -17.1713   22.8672 C.ar    1  UNL1        0.0564
     14 C          -5.7544  -16.5214   23.8160 C.ar    1  UNL1        0.0479
     15 C          -4.3491  -17.0341   23.9265 C.ar    1  UNL1        0.0157
     16 C          -3.9067  -18.1966   23.0881 C.ar    1  UNL1        0.0157
     17 C          -4.8697  -18.8465   22.1393 C.ar    1  UNL1        0.0479
     18 C          -6.2751  -18.3339   22.0289 C.ar    1  UNL1        0.0564
     19 H          -8.2863  -20.6038   19.2514 H       1  UNL1        0.2922
     20 H         -11.8113  -15.3131   22.4668 H       1  UNL1        0.2922
     21 N          -6.1967  -15.3589   24.6544 N.pl3   1  UNL1       -0.3315
     22 H          -6.6499  -14.5928   24.2337 H       1  UNL1        0.1469
     23 C          -5.9485  -15.3635   26.1337 C.3     1  UNL1        0.1044
     24 C          -7.0514  -15.7400   27.0780 C.3     1  UNL1        0.0901
     25 N          -8.4185  -16.0549   26.5471 N.3     1  UNL1       -0.2940
     26 H          -8.3994  -15.8546   25.5472 H       1  UNL1        0.1234
     27 C          -8.9832  -17.4360   26.7014 C.3     1  UNL1        0.1008
     28 C          -9.5848  -18.1366   25.5193 C.3     1  UNL1        0.1542
     29 O         -10.0488  -19.5574   25.6458 O.3     1  UNL1       -0.3805
     30 H          -9.2852  -20.1340   25.8050 H       1  UNL1        0.2105
     31 N          -4.4274  -20.0091   21.3010 N.pl3   1  UNL1       -0.3315
     32 H          -4.9253  -20.8577   21.3344 H       1  UNL1        0.1469
     33 C          -3.2265  -19.8786   20.4118 C.3     1  UNL1        0.1044
     34 C          -3.1998  -18.8339   19.3358 C.3     1  UNL1        0.0901
     35 N          -2.8022  -17.4260   19.6671 N.3     1  UNL1       -0.2940
     36 H          -3.5436  -17.0405   20.2519 H       1  UNL1        0.1234
     37 C          -1.5080  -17.1595   20.3769 C.3     1  UNL1        0.1008
     38 C          -0.2203  -17.6787   19.8090 C.3     1  UNL1        0.1542
     39 O           0.9475  -17.9390   20.7137 O.3     1  UNL1       -0.3805
     40 H           1.2610  -17.1001   21.0865 H       1  UNL1        0.2105
@<TRIPOS>BOND
     1     1     2    2
     2     2     3    1
     3     3     4   ar
     4     4     5    1
     5     4     6   ar
     6     6     7   ar
     7     7     8   ar
     8     8     9    1
     9     8    10   ar
    10    10    11    1
    11    11    12    2
    12    11    13    1
    13    13    14   ar
    14    14    21    1
    15    21    23    1
    16    23    24    1
    17    24    25    1
    18    25    27    1
    19    27    28    1
    20    28    29    1
    21    14    15   ar
    22    15    16   ar
    23    16    17   ar
    24    17    31    1
    25    31    33    1
    26    33    34    1
    27    34    35    1
    28    35    37    1
    29    37    38    1
    30    38    39    1
    31    17    18   ar
    32    18     2    1
    33    10     3   ar
    34    18    13   ar
    35     5    19    1
    36     9    20    1
    37    21    22    1
    38    25    26    1
    39    29    30    1
    40    31    32    1
    41    35    36    1
    42    39    40    1
@<TRIPOS>MOLECULE
*****
 40 42 0 0 0
SMALL
GASTEIGER

@<TRIPOS>ATOM
      1 O          -4.6804  -16.4902   24.2236 O.2     1  UNL1       -0.2864
      2 C          -5.5371  -17.2403   23.2472 C.2     1  UNL1        0.2000
      3 C          -4.9391  -18.3299   22.4074 C.ar    1  UNL1        0.0786
      4 C          -3.4845  -18.6693   22.5440 C.ar    1  UNL1        0.1370
      5 O          -2.6278  -17.9192   23.5204 O.3     1  UNL1       -0.5054
      6 C          -2.8865  -19.7589   21.7042 C.ar    1  UNL1        0.0398
      7 C          -3.7432  -20.5090   20.7278 C.ar    1  UNL1        0.0398
      8 C          -5.1979  -20.1695   20.5912 C.ar    1  UNL1        0.1370
      9 O          -6.0546  -20.9196   19.6147 O.3     1  UNL1       -0.5054
     10 C          -5.7958  -19.0800   21.4310 C.ar    1  UNL1        0.0786
     11 C          -7.2505  -18.7405   21.2943 C.2     1  UNL1        0.2000
     12 O          -8.1072  -19.4906   20.3179 O.2     1  UNL1       -0.2864
     13 C          -7.8485  -17.6509   22.1341 C.ar    1  UNL1        0.0564
     14 C          -9.3032  -17.3114   21.9975 C.ar    1  UNL1        0.0479
     15 C          -9.9012  -16.2219   22.8373 C.ar    1  UNL1        0.0157
     16 C          -9.0445  -15.4718   23.8137 C.ar    1  UNL1        0.0157
     17 C          -7.5898  -15.8112   23.9504 C.ar    1  UNL1        0.0479
     18 C          -6.9918  -16.9008   23.1105 C.ar    1  UNL1        0.0564
     19 H          -3.0013  -17.2386   24.0450 H       1  UNL1        0.2922
     20 H          -5.6810  -21.6003   19.0901 H       1  UNL1        0.2922
     21 N         -10.1599  -18.0615   21.0211 N.pl3   1  UNL1       -0.3315
     22 H          -9.8556  -18.1853   20.0930 H       1  UNL1        0.1469
     23 C         -11.4802  -18.6230   21.4587 C.3     1  UNL1        0.1044
     24 C         -12.6830  -17.7309   21.5452 C.3     1  UNL1        0.0901
     25 N         -13.1799  -17.2696   22.8832 N.3     1  UNL1       -0.2940
     26 H         -14.1467  -16.9722   22.7517 H       1  UNL1        0.1234
     27 C         -13.1712  -18.2103   24.0516 C.3     1  UNL1        0.1008
     28 C         -14.4369  -18.4721   24.8130 C.3     1  UNL1        0.1542
     29 O         -14.3905  -18.6715   26.2990 O.3     1  UNL1       -0.3805
     30 H         -13.9078  -19.4883   26.5007 H       1  UNL1        0.2105
     31 N          -6.7331  -15.0611   24.9268 N.pl3   1  UNL1       -0.3315
     32 H          -6.1230  -14.3576   24.6072 H       1  UNL1        0.1469
     33 C          -6.8060  -15.3828   26.3900 C.3     1  UNL1        0.1044
     34 C          -8.0819  -15.9059   26.9803 C.3     1  UNL1        0.0901
     35 N          -8.4044  -17.3682   26.8933 N.3     1  UNL1       -0.2940
     36 H          -8.4317  -17.7211   27.8499 H       1  UNL1        0.1234
     37 C          -9.6717  -17.8186   26.2293 C.3     1  UNL1        0.1008
     38 C          -9.6374  -18.9321   25.2248 C.3     1  UNL1        0.1542
     39 O         -10.3111  -20.2373   25.5287 O.3     1  UNL1       -0.3805
     40 H          -9.8568  -20.6714   26.2677 H       1  UNL1        0.2105
@<TRIPOS>BOND
     1     1     2    2
     2     2     3    1
     3     3     4   ar
     4     4     5    1
     5     4     6   ar
     6     6     7   ar
     7     7     8   ar
     8     8     9    1
     9     8    10   ar
    10    10    11    1
    11    11    12    2
    12    11    13    1
    13    13    14   ar
    14    14    21    1
    15    21    23    1
    16    23    24    1
    17    24    25    1
    18    25    27    1
    19    27    28    1
    20    28    29    1
    21    14    15   ar
    22    15    16   ar
    23    16    17   ar
    24    17    31    1
    25    31    33    1
    26    33    34    1
    27    34    35    1
    28    35    37    1
    29    37    38    1
    30    38    39    1
    31    17    18   ar
    32    18     2    1
    33    10     3   ar
    34    18    13   ar
    35     5    19    1
    36     9    20    1
    37    21    22    1
    38    25    26    1
    39    29    30    1
    40    31    32    1
    41    35    36    1
    42    39    40    1
@<TRIPOS>MOLECULE
*****
 40 42 0 0 0
SMALL
GASTEIGER

@<TRIPOS>ATOM
      1 O         -14.0654   -7.7599   18.6295 O.2     1  UNL1       -0.2864
      2 C         -13.7826   -6.3064   18.8691 C.2     1  UNL1        0.2000
      3 C         -12.3834   -5.7825   18.7350 C.ar    1  UNL1        0.0786
      4 C         -11.2671   -6.7121   18.3614 C.ar    1  UNL1        0.1370
      5 O         -11.5499   -8.1656   18.1218 O.3     1  UNL1       -0.5054
      6 C          -9.8680   -6.1882   18.2273 C.ar    1  UNL1        0.0398
      7 C          -9.5852   -4.7347   18.4669 C.ar    1  UNL1        0.0398
      8 C         -10.7015   -3.8051   18.8405 C.ar    1  UNL1        0.1370
      9 O         -10.4187   -2.3516   19.0801 O.3     1  UNL1       -0.5054
     10 C         -12.1006   -4.3290   18.9746 C.ar    1  UNL1        0.0786
     11 C         -13.2170   -3.3994   19.3483 C.2     1  UNL1        0.2000
     12 O         -12.9342   -1.9459   19.5878 O.2     1  UNL1       -0.2864
     13 C         -14.6161   -3.9233   19.4823 C.ar    1  UNL1        0.0564
     14 C         -15.7325   -2.9937   19.8560 C.ar    1  UNL1        0.0479
     15 C         -17.1316   -3.5176   19.9900 C.ar    1  UNL1        0.0157
     16 C         -17.4144   -4.9711   19.7504 C.ar    1  UNL1        0.0157
     17 C         -16.2981   -5.9007   19.3768 C.ar    1  UNL1        0.0479
     18 C         -14.8989   -5.3768   19.2427 C.ar    1  UNL1        0.0564
     19 H         -12.4239   -8.4928   18.2055 H       1  UNL1        0.2922
     20 H          -9.5448   -2.0244   18.9964 H       1  UNL1        0.2922
     21 N         -15.4497   -1.5402   20.0956 N.pl3   1  UNL1       -0.3315
     22 H         -14.8808   -1.2675   20.8513 H       1  UNL1        0.1469
     23 C         -16.0338   -0.5022   19.1837 C.3     1  UNL1        0.1044
     24 C         -15.1959    0.6576   18.7334 C.3     1  UNL1        0.0901
     25 N         -14.1365    0.4573   17.6906 N.3     1  UNL1       -0.2940
     26 H         -13.2732    0.2360   18.1867 H       1  UNL1        0.1234
     27 C         -14.3117   -0.5947   16.6358 C.3     1  UNL1        0.1008
     28 C         -13.1149   -1.3143   16.0882 C.3     1  UNL1        0.1542
     29 O         -11.8083   -1.2642   16.8233 O.3     1  UNL1       -0.3805
     30 H         -11.4685   -0.3557   16.8170 H       1  UNL1        0.2105
     31 N         -16.5809   -7.3541   19.1372 N.pl3   1  UNL1       -0.3315
     32 H         -16.2110   -7.8032   18.3430 H       1  UNL1        0.1469
     33 C         -17.4272   -8.1234   20.1077 C.3     1  UNL1        0.1044
     34 C         -18.7773   -8.6267   19.6905 C.3     1  UNL1        0.0901
     35 N         -18.9315  -10.0310   19.1865 N.3     1  UNL1       -0.2940
     36 H         -19.8835  -10.1130   18.8298 H       1  UNL1        0.1234
     37 C         -18.0206  -10.5464   18.1119 C.3     1  UNL1        0.1008
     38 C         -16.6978  -11.1524   18.4769 C.3     1  UNL1        0.1542
     39 O         -15.4410  -10.3441   18.3466 O.3     1  UNL1       -0.3805
     40 H         -15.2775  -10.1493   17.4105 H       1  UNL1        0.2105
@<TRIPOS>BOND
     1     1     2    2
     2     2     3    1
     3     3     4   ar
     4     4     5    1
     5     4     6   ar
     6     6     7   ar
     7     7     8   ar
     8     8     9    1
     9     8    10   ar
    10    10    11    1
    11    11    12    2
    12    11    13    1
    13    13    14   ar
    14    14    21    1
    15    21    23    1
    16    23    24    1
    17    24    25    1
    18    25    27    1
    19    27    28    1
    20    28    29    1
    21    14    15   ar
    22    15    16   ar
    23    16    17   ar
    24    17    31    1
    25    31    33    1
    26    33    34    1
    27    34    35    1
    28    35    37    1
    29    37    38    1
    30    38    39    1
    31    17    18   ar
    32    18     2    1
    33    10     3   ar
    34    18    13   ar
    35     5    19    1
    36     9    20    1
    37    21    22    1
    38    25    26    1
    39    29    30    1
    40    31    32    1
    41    35    36    1
    42    39    40    1
@<TRIPOS>MOLECULE
*****
 40 42 0 0 0
SMALL
GASTEIGER

@<TRIPOS>ATOM
      1 O         -14.1180   -7.6487   18.7053 O.2     1  UNL1       -0.2864
      2 C         -13.8288   -6.1924   18.9191 C.2     1  UNL1        0.2000
      3 C         -12.4238   -5.6810   18.7976 C.ar    1  UNL1        0.0786
      4 C         -11.3082   -6.6259   18.4623 C.ar    1  UNL1        0.1370
      5 O         -11.5974   -8.0821   18.2484 O.3     1  UNL1       -0.5054
      6 C          -9.9033   -6.1145   18.3408 C.ar    1  UNL1        0.0398
      7 C          -9.6141   -4.6583   18.5546 C.ar    1  UNL1        0.0398
      8 C         -10.7298   -3.7134   18.8900 C.ar    1  UNL1        0.1370
      9 O         -10.4406   -2.2572   19.1038 O.3     1  UNL1       -0.5054
     10 C         -12.1347   -4.2248   19.0114 C.ar    1  UNL1        0.0786
     11 C         -13.2504   -3.2799   19.3468 C.2     1  UNL1        0.2000
     12 O         -12.9612   -1.8237   19.5606 O.2     1  UNL1       -0.2864
     13 C         -14.6553   -3.7913   19.4683 C.ar    1  UNL1        0.0564
     14 C         -15.7710   -2.8464   19.8036 C.ar    1  UNL1        0.0479
     15 C         -17.1759   -3.3578   19.9251 C.ar    1  UNL1        0.0157
     16 C         -17.4651   -4.8141   19.7113 C.ar    1  UNL1        0.0157
     17 C         -16.3494   -5.7589   19.3760 C.ar    1  UNL1        0.0479
     18 C         -14.9445   -5.2476   19.2544 C.ar    1  UNL1        0.0564
     19 H         -12.4750   -8.4016   18.3243 H       1  UNL1        0.2922
     20 H          -9.5630   -1.9377   19.0279 H       1  UNL1        0.2922
     21 N         -15.4818   -1.3902   20.0175 N.pl3   1  UNL1       -0.3315
     22 H         -14.5981   -1.1069   20.3462 H       1  UNL1        0.1469
     23 C         -16.5390   -0.3656   19.7305 C.3     1  UNL1        0.1044
     24 C         -17.0457    0.5180   20.8316 C.3     1  UNL1        0.0901
     25 N         -18.4342    1.0813   20.7624 N.3     1  UNL1       -0.2940
     26 H         -19.0595    0.2997   20.5662 H       1  UNL1        0.1234
     27 C         -19.0079    1.8093   21.9418 C.3     1  UNL1        0.1008
     28 C         -18.1138    2.2319   23.0697 C.3     1  UNL1        0.1542
     29 O         -18.4443    1.8348   24.4779 O.3     1  UNL1       -0.3805
     30 H         -19.2673    2.2691   24.7517 H       1  UNL1        0.2105
     31 N         -16.6386   -7.2152   19.1621 N.pl3   1  UNL1       -0.3315
     32 H         -16.2244   -7.6937   18.4080 H       1  UNL1        0.1469
     33 C         -17.5589   -7.9423   20.0972 C.3     1  UNL1        0.1044
     34 C         -18.8563   -8.4990   19.5904 C.3     1  UNL1        0.0901
     35 N         -18.9634   -9.9543   19.2435 N.3     1  UNL1       -0.2940
     36 H         -19.9336  -10.1230   18.9776 H       1  UNL1        0.1234
     37 C         -18.1093  -10.5303   18.1532 C.3     1  UNL1        0.1008
     38 C         -16.7555  -11.0893   18.4772 C.3     1  UNL1        0.1542
     39 O         -15.5510  -10.1956   18.4583 O.3     1  UNL1       -0.3805
     40 H         -15.3882   -9.8913   17.5518 H       1  UNL1        0.2105
@<TRIPOS>BOND
     1     1     2    2
     2     2     3    1
     3     3     4   ar
     4     4     5    1
     5     4     6   ar
     6     6     7   ar
     7     7     8   ar
     8     8     9    1
     9     8    10   ar
    10    10    11    1
    11    11    12    2
    12    11    13    1
    13    13    14   ar
    14    14    21    1
    15    21    23    1
    16    23    24    1
    17    24    25    1
    18    25    27    1
    19    27    28    1
    20    28    29    1
    21    14    15   ar
    22    15    16   ar
    23    16    17   ar
    24    17    31    1
    25    31    33    1
    26    33    34    1
    27    34    35    1
    28    35    37    1
    29    37    38    1
    30    38    39    1
    31    17    18   ar
    32    18     2    1
    33    10     3   ar
    34    18    13   ar
    35     5    19    1
    36     9    20    1
    37    21    22    1
    38    25    26    1
    39    29    30    1
    40    31    32    1
    41    35    36    1
    42    39    40    1
@<TRIPOS>MOLECULE
*****
 40 42 0 0 0
SMALL
GASTEIGER

@<TRIPOS>ATOM
      1 O         -12.7746   -1.5129   19.2826 O.2     1  UNL1       -0.2864
      2 C         -13.3115   -2.9135   19.2826 C.2     1  UNL1        0.2000
      3 C         -12.3750   -4.0756   19.1323 C.ar    1  UNL1        0.0786
      4 C         -10.9018   -3.8371   18.9821 C.ar    1  UNL1        0.1370
      5 O         -10.3649   -2.4365   18.9821 O.3     1  UNL1       -0.5054
      6 C          -9.9654   -4.9992   18.8318 C.ar    1  UNL1        0.0398
      7 C         -10.5022   -6.3999   18.8318 C.ar    1  UNL1        0.0398
      8 C         -11.9755   -6.6384   18.9820 C.ar    1  UNL1        0.1370
      9 O         -12.5123   -8.0390   18.9820 O.3     1  UNL1       -0.5054
     10 C         -12.9119   -5.4763   19.1323 C.ar    1  UNL1        0.0786
     11 C         -14.3852   -5.7148   19.2825 C.2     1  UNL1        0.2000
     12 O         -14.9220   -7.1154   19.2825 O.2     1  UNL1       -0.2864
     13 C         -15.3216   -4.5527   19.4328 C.ar    1  UNL1        0.0564
     14 C         -16.7949   -4.7912   19.5830 C.ar    1  UNL1        0.0479
     15 C         -17.7313   -3.6291   19.7333 C.ar    1  UNL1        0.0157
     16 C         -17.1945   -2.2284   19.7333 C.ar    1  UNL1        0.0157
     17 C         -15.7212   -1.9899   19.5831 C.ar    1  UNL1        0.0479
     18 C         -14.7847   -3.1520   19.4328 C.ar    1  UNL1        0.0564
     19 H         -10.9499   -1.7105   19.0760 H       1  UNL1        0.2922
     20 H         -11.9274   -8.7650   18.8881 H       1  UNL1        0.2922
     21 N         -17.3318   -6.1918   19.5830 N.pl3   1  UNL1       -0.3315
     22 H         -16.8811   -6.8917   20.1086 H       1  UNL1        0.1469
     23 C         -18.5552   -6.5261   18.7821 C.3     1  UNL1        0.1044
     24 C         -18.5468   -7.7073   17.8577 C.3     1  UNL1        0.0901
     25 N         -17.2566   -8.4048   17.5436 N.3     1  UNL1       -0.2940
     26 H         -16.5053   -7.7774   17.8305 H       1  UNL1        0.1234
     27 C         -16.9596   -9.7429   18.1529 C.3     1  UNL1        0.1008
     28 C         -17.0884   -9.9375   19.6347 C.3     1  UNL1        0.1542
     29 O         -15.9641   -9.5386   20.5440 O.3     1  UNL1       -0.3805
     30 H         -15.1939  -10.1028   20.3725 H       1  UNL1        0.2105
     31 N         -15.1844   -0.5892   19.5831 N.pl3   1  UNL1       -0.3315
     32 H         -14.3184   -0.3940   20.0088 H       1  UNL1        0.1469
     33 C         -15.9670    0.5139   18.9347 C.3     1  UNL1        0.1044
     34 C         -15.3050    1.8256   18.6325 C.3     1  UNL1        0.0901
     35 N         -13.8366    1.8726   18.3299 N.3     1  UNL1       -0.2940
     36 H         -13.3597    1.4323   19.1167 H       1  UNL1        0.1234
     37 C         -13.3063    1.2254   17.0850 C.3     1  UNL1        0.1008
     38 C         -11.8390    0.9430   16.9532 C.3     1  UNL1        0.1542
     39 O         -11.3371   -0.4685   17.0296 O.3     1  UNL1       -0.3805
     40 H         -11.4904   -0.8184   17.9212 H       1  UNL1        0.2105
@<TRIPOS>BOND
     1     1     2    2
     2     2     3    1
     3     3     4   ar
     4     4     5    1
     5     4     6   ar
     6     6     7   ar
     7     7     8   ar
     8     8     9    1
     9     8    10   ar
    10    10    11    1
    11    11    12    2
    12    11    13    1
    13    13    14   ar
    14    14    21    1
    15    21    23    1
    16    23    24    1
    17    24    25    1
    18    25    27    1
    19    27    28    1
    20    28    29    1
    21    14    15   ar
    22    15    16   ar
    23    16    17   ar
    24    17    31    1
    25    31    33    1
    26    33    34    1
    27    34    35    1
    28    35    37    1
    29    37    38    1
    30    38    39    1
    31    17    18   ar
    32    18     2    1
    33    10     3   ar
    34    18    13   ar
    35     5    19    1
    36     9    20    1
    37    21    22    1
    38    25    26    1
    39    29    30    1
    40    31    32    1
    41    35    36    1
    42    39    40    1
@<TRIPOS>MOLECULE
*****
 40 42 0 0 0
SMALL
GASTEIGER

@<TRIPOS>ATOM
      1 O         -12.8669   -2.1989   19.7012 O.2     1  UNL1       -0.2864
      2 C         -13.0830   -3.6467   19.3738 C.2     1  UNL1        0.2000
      3 C         -11.9236   -4.5028   18.9579 C.ar    1  UNL1        0.0786
      4 C         -10.5481   -3.9111   18.8693 C.ar    1  UNL1        0.1370
      5 O         -10.3320   -2.4633   19.1967 O.3     1  UNL1       -0.5054
      6 C          -9.3888   -4.7671   18.4534 C.ar    1  UNL1        0.0398
      7 C          -9.6049   -6.2149   18.1260 C.ar    1  UNL1        0.0398
      8 C         -10.9804   -6.8067   18.2146 C.ar    1  UNL1        0.1370
      9 O         -11.1965   -8.2545   17.8872 O.3     1  UNL1       -0.5054
     10 C         -12.1397   -5.9506   18.6305 C.ar    1  UNL1        0.0786
     11 C         -13.5153   -6.5423   18.7191 C.2     1  UNL1        0.2000
     12 O         -13.7314   -7.9901   18.3917 O.2     1  UNL1       -0.2864
     13 C         -14.6746   -5.6862   19.1350 C.ar    1  UNL1        0.0564
     14 C         -16.0502   -6.2780   19.2236 C.ar    1  UNL1        0.0479
     15 C         -17.2095   -5.4219   19.6395 C.ar    1  UNL1        0.0157
     16 C         -16.9934   -3.9741   19.9669 C.ar    1  UNL1        0.0157
     17 C         -15.6179   -3.3824   19.8783 C.ar    1  UNL1        0.0479
     18 C         -14.4585   -4.2384   19.4624 C.ar    1  UNL1        0.0564
     19 H         -11.0562   -1.9285   19.4565 H       1  UNL1        0.2922
     20 H         -10.4723   -8.7892   17.6274 H       1  UNL1        0.2922
     21 N         -16.2663   -7.7258   18.8962 N.pl3   1  UNL1       -0.3315
     22 H         -16.1240   -8.0492   17.9773 H       1  UNL1        0.1469
     23 C         -16.6992   -8.6807   19.9689 C.3     1  UNL1        0.1044
     24 C         -18.1341   -8.7192   20.4043 C.3     1  UNL1        0.0901
     25 N         -19.1187   -9.5783   19.6678 N.3     1  UNL1       -0.2940
     26 H         -20.0380   -9.3753   20.0602 H       1  UNL1        0.1234
     27 C         -19.2485   -9.4617   18.1780 C.3     1  UNL1        0.1008
     28 C         -19.8390  -10.5905   17.3860 C.3     1  UNL1        0.1542
     29 O         -20.4632  -11.7568   18.0932 O.3     1  UNL1       -0.3805
     30 H         -19.7801  -12.2416   18.5823 H       1  UNL1        0.2105
     31 N         -15.4018   -1.9346   20.2057 N.pl3   1  UNL1       -0.3315
     32 H         -14.7713   -1.6797   20.9176 H       1  UNL1        0.1469
     33 C         -16.1462   -0.8752   19.4484 C.3     1  UNL1        0.1044
     34 C         -15.9065   -0.6954   17.9786 C.3     1  UNL1        0.0901
     35 N         -14.5092   -0.7426   17.4353 N.3     1  UNL1       -0.2940
     36 H         -14.5483   -1.2785   16.5683 H       1  UNL1        0.1234
     37 C         -13.7819    0.5318   17.1242 C.3     1  UNL1        0.1008
     38 C         -12.3571    0.7077   17.5593 C.3     1  UNL1        0.1542
     39 O         -11.4537   -0.4847   17.6685 O.3     1  UNL1       -0.3805
     40 H         -11.7695   -1.0657   18.3780 H       1  UNL1        0.2105
@<TRIPOS>BOND
     1     1     2    2
     2     2     3    1
     3     3     4   ar
     4     4     5    1
     5     4     6   ar
     6     6     7   ar
     7     7     8   ar
     8     8     9    1
     9     8    10   ar
    10    10    11    1
    11    11    12    2
    12    11    13    1
    13    13    14   ar
    14    14    21    1
    15    21    23    1
    16    23    24    1
    17    24    25    1
    18    25    27    1
    19    27    28    1
    20    28    29    1
    21    14    15   ar
    22    15    16   ar
    23    16    17   ar
    24    17    31    1
    25    31    33    1
    26    33    34    1
    27    34    35    1
    28    35    37    1
    29    37    38    1
    30    38    39    1
    31    17    18   ar
    32    18     2    1
    33    10     3   ar
    34    18    13   ar
    35     5    19    1
    36     9    20    1
    37    21    22    1
    38    25    26    1
    39    29    30    1
    40    31    32    1
    41    35    36    1
    42    39    40    1
@<TRIPOS>MOLECULE
*****
 40 42 0 0 0
SMALL
GASTEIGER

@<TRIPOS>ATOM
      1 O         -13.2942   -1.6286   19.3898 O.2     1  UNL1       -0.2864
      2 C         -13.5163   -3.1071   19.2693 C.2     1  UNL1        0.2000
      3 C         -12.3511   -4.0248   19.0454 C.ar    1  UNL1        0.0786
      4 C         -10.9637   -3.4640   18.9421 C.ar    1  UNL1        0.1370
      5 O         -10.7416   -1.9854   19.0627 O.3     1  UNL1       -0.5054
      6 C          -9.7986   -4.3816   18.7183 C.ar    1  UNL1        0.0398
      7 C         -10.0207   -5.8602   18.5977 C.ar    1  UNL1        0.0398
      8 C         -11.4080   -6.4211   18.7010 C.ar    1  UNL1        0.1370
      9 O         -11.6302   -7.8996   18.5805 O.3     1  UNL1       -0.5054
     10 C         -12.5732   -5.5034   18.9249 C.ar    1  UNL1        0.0786
     11 C         -13.9606   -6.0642   19.0282 C.2     1  UNL1        0.2000
     12 O         -14.1828   -7.5428   18.9076 O.2     1  UNL1       -0.2864
     13 C         -15.1258   -5.1465   19.2520 C.ar    1  UNL1        0.0564
     14 C         -16.5132   -5.7074   19.3553 C.ar    1  UNL1        0.0479
     15 C         -17.6784   -4.7897   19.5791 C.ar    1  UNL1        0.0157
     16 C         -17.4563   -3.3112   19.6997 C.ar    1  UNL1        0.0157
     17 C         -16.0689   -2.7503   19.5964 C.ar    1  UNL1        0.0479
     18 C         -14.9037   -3.6680   19.3726 C.ar    1  UNL1        0.0564
     19 H         -11.4695   -1.4121   19.2025 H       1  UNL1        0.2922
     20 H         -10.9023   -8.4729   18.4406 H       1  UNL1        0.2922
     21 N         -16.7354   -7.1859   19.2348 N.pl3   1  UNL1       -0.3315
     22 H         -16.2832   -7.6953   18.5238 H       1  UNL1        0.1469
     23 C         -17.6463   -7.8884   20.1973 C.3     1  UNL1        0.1044
     24 C         -18.9041   -8.5382   19.7016 C.3     1  UNL1        0.0901
     25 N         -18.9005   -9.9905   19.3265 N.3     1  UNL1       -0.2940
     26 H         -19.8668  -10.2439   19.1208 H       1  UNL1        0.1234
     27 C         -18.0728  -10.4640   18.1685 C.3     1  UNL1        0.1008
     28 C         -16.7040  -11.0296   18.4066 C.3     1  UNL1        0.1542
     29 O         -15.5428  -10.1096   18.6416 O.3     1  UNL1       -0.3805
     30 H         -15.3688   -9.5966   17.8369 H       1  UNL1        0.2105
     31 N         -15.8468   -1.2717   19.7170 N.pl3   1  UNL1       -0.3315
     32 H         -15.0175   -0.9300   20.1229 H       1  UNL1        0.1469
     33 C         -16.8881   -0.3138   19.2190 C.3     1  UNL1        0.1044
     34 C         -17.3473    0.8156   20.0928 C.3     1  UNL1        0.0901
     35 N         -17.0812    0.7782   21.5685 N.3     1  UNL1       -0.2940
     36 H         -16.0968    0.5373   21.6841 H       1  UNL1        0.1234
     37 C         -17.3301    1.9971   22.4066 C.3     1  UNL1        0.1008
     38 C         -18.6421    2.1659   23.1139 C.3     1  UNL1        0.1542
     39 O         -18.7584    1.8245   24.5699 O.3     1  UNL1       -0.3805
     40 H         -18.6311    0.8704   24.6895 H       1  UNL1        0.2105
@<TRIPOS>BOND
     1     1     2    2
     2     2     3    1
     3     3     4   ar
     4     4     5    1
     5     4     6   ar
     6     6     7   ar
     7     7     8   ar
     8     8     9    1
     9     8    10   ar
    10    10    11    1
    11    11    12    2
    12    11    13    1
    13    13    14   ar
    14    14    21    1
    15    21    23    1
    16    23    24    1
    17    24    25    1
    18    25    27    1
    19    27    28    1
    20    28    29    1
    21    14    15   ar
    22    15    16   ar
    23    16    17   ar
    24    17    31    1
    25    31    33    1
    26    33    34    1
    27    34    35    1
    28    35    37    1
    29    37    38    1
    30    38    39    1
    31    17    18   ar
    32    18     2    1
    33    10     3   ar
    34    18    13   ar
    35     5    19    1
    36     9    20    1
    37    21    22    1
    38    25    26    1
    39    29    30    1
    40    31    32    1
    41    35    36    1
    42    39    40    1
@<TRIPOS>MOLECULE
*****
 40 42 0 0 0
SMALL
GASTEIGER

@<TRIPOS>ATOM
      1 O          -3.8772  -16.2121   23.1531 O.2     1  UNL1       -0.2864
      2 C          -4.8952  -17.1979   22.6613 C.2     1  UNL1        0.2000
      3 C          -4.4618  -18.3794   21.8450 C.ar    1  UNL1        0.0786
      4 C          -3.0105  -18.5751   21.5205 C.ar    1  UNL1        0.1370
      5 O          -1.9925  -17.5893   22.0123 O.3     1  UNL1       -0.5054
      6 C          -2.5772  -19.7566   20.7043 C.ar    1  UNL1        0.0398
      7 C          -3.5953  -20.7424   20.2126 C.ar    1  UNL1        0.0398
      8 C          -5.0466  -20.5467   20.5371 C.ar    1  UNL1        0.1370
      9 O          -6.0646  -21.5325   20.0453 O.3     1  UNL1       -0.5054
     10 C          -5.4799  -19.3652   21.3533 C.ar    1  UNL1        0.0786
     11 C          -6.9312  -19.1695   21.6778 C.2     1  UNL1        0.2000
     12 O          -7.9493  -20.1553   21.1861 O.2     1  UNL1       -0.2864
     13 C          -7.3645  -17.9880   22.4941 C.ar    1  UNL1        0.0564
     14 C          -8.8159  -17.7923   22.8186 C.ar    1  UNL1        0.0479
     15 C          -9.2492  -16.6108   23.6349 C.ar    1  UNL1        0.0157
     16 C          -8.2312  -15.6250   24.1266 C.ar    1  UNL1        0.0157
     17 C          -6.7799  -15.8206   23.8021 C.ar    1  UNL1        0.0479
     18 C          -6.3465  -17.0022   22.9858 C.ar    1  UNL1        0.0564
     19 H          -2.2632  -16.8512   22.5222 H       1  UNL1        0.2922
     20 H          -5.7939  -22.2706   19.5354 H       1  UNL1        0.2922
     21 N          -9.8339  -18.7781   22.3269 N.pl3   1  UNL1       -0.3315
     22 H          -9.5493  -19.5546   21.7928 H       1  UNL1        0.1469
     23 C         -11.2856  -18.5808   22.6489 C.3     1  UNL1        0.1044
     24 C         -12.3018  -18.5555   21.5459 C.3     1  UNL1        0.0901
     25 N         -12.4791  -17.3174   20.7178 N.3     1  UNL1       -0.2940
     26 H         -13.4760  -17.1017   20.7205 H       1  UNL1        0.1234
     27 C         -11.7618  -16.0548   21.0934 C.3     1  UNL1        0.1008
     28 C         -10.7434  -15.4655   20.1628 C.3     1  UNL1        0.1542
     29 O          -9.5002  -14.8333   20.7147 O.3     1  UNL1       -0.3805
     30 H          -9.7377  -14.0395   21.2191 H       1  UNL1        0.2105
     31 N          -5.7618  -14.8348   24.2938 N.pl3   1  UNL1       -0.3315
     32 H          -5.5180  -14.0601   23.7374 H       1  UNL1        0.1469
     33 C          -5.1154  -15.0294   25.6333 C.3     1  UNL1        0.1044
     34 C          -5.9167  -15.5666   26.7819 C.3     1  UNL1        0.0901
     35 N          -7.0595  -14.7694   27.3370 N.3     1  UNL1       -0.2940
     36 H          -7.1452  -13.9345   26.7572 H       1  UNL1        0.1234
     37 C          -8.4274  -15.3790   27.4230 C.3     1  UNL1        0.1008
     38 C          -8.5806  -16.8338   27.7553 C.3     1  UNL1        0.1542
     39 O          -9.2235  -17.7644   26.7701 O.3     1  UNL1       -0.3805
     40 H         -10.1567  -17.5239   26.6597 H       1  UNL1        0.2105
@<TRIPOS>BOND
     1     1     2    2
     2     2     3    1
     3     3     4   ar
     4     4     5    1
     5     4     6   ar
     6     6     7   ar
     7     7     8   ar
     8     8     9    1
     9     8    10   ar
    10    10    11    1
    11    11    12    2
    12    11    13    1
    13    13    14   ar
    14    14    21    1
    15    21    23    1
    16    23    24    1
    17    24    25    1
    18    25    27    1
    19    27    28    1
    20    28    29    1
    21    14    15   ar
    22    15    16   ar
    23    16    17   ar
    24    17    31    1
    25    31    33    1
    26    33    34    1
    27    34    35    1
    28    35    37    1
    29    37    38    1
    30    38    39    1
    31    17    18   ar
    32    18     2    1
    33    10     3   ar
    34    18    13   ar
    35     5    19    1
    36     9    20    1
    37    21    22    1
    38    25    26    1
    39    29    30    1
    40    31    32    1
    41    35    36    1
    42    39    40    1
@<TRIPOS>MOLECULE
*****
 40 42 0 0 0
SMALL
GASTEIGER

@<TRIPOS>ATOM
      1 O           3.7995   -1.1545   25.5149 O.2     1  UNL1       -0.2864
      2 C           3.7662   -1.3478   24.0278 C.2     1  UNL1        0.2000
      3 C           4.7230   -2.2999   23.3736 C.ar    1  UNL1        0.0786
      4 C           5.7132   -3.0587   24.2065 C.ar    1  UNL1        0.1370
      5 O           5.7466   -2.8654   25.6936 O.3     1  UNL1       -0.5054
      6 C           6.6701   -4.0107   23.5522 C.ar    1  UNL1        0.0398
      7 C           6.6367   -4.2040   22.0651 C.ar    1  UNL1        0.0398
      8 C           5.6465   -3.4453   21.2322 C.ar    1  UNL1        0.1370
      9 O           5.6131   -3.6386   19.7451 O.3     1  UNL1       -0.5054
     10 C           4.6896   -2.4932   21.8864 C.ar    1  UNL1        0.0786
     11 C           3.6994   -1.7344   21.0536 C.2     1  UNL1        0.2000
     12 O           3.6660   -1.9277   19.5664 O.2     1  UNL1       -0.2864
     13 C           2.7426   -0.7824   21.7078 C.ar    1  UNL1        0.0564
     14 C           1.7523   -0.0236   20.8749 C.ar    1  UNL1        0.0479
     15 C           0.7955    0.9285   21.5291 C.ar    1  UNL1        0.0157
     16 C           0.8289    1.1218   23.0162 C.ar    1  UNL1        0.0157
     17 C           1.8191    0.3631   23.8491 C.ar    1  UNL1        0.0479
     18 C           2.7759   -0.5891   23.1949 C.ar    1  UNL1        0.0564
     19 H           5.1489   -2.2706   26.1022 H       1  UNL1        0.2922
     20 H           6.2108   -4.2333   19.3364 H       1  UNL1        0.2922
     21 N           1.7189   -0.2169   19.3878 N.pl3   1  UNL1       -0.3315
     22 H           1.5359   -1.1079   19.0112 H       1  UNL1        0.1469
     23 C           1.9642    0.9474   18.4744 C.3     1  UNL1        0.1044
     24 C           3.2978    1.6341   18.4762 C.3     1  UNL1        0.0901
     25 N           4.5562    0.8281   18.6061 N.3     1  UNL1       -0.2940
     26 H           4.3526    0.0665   19.2533 H       1  UNL1        0.1234
     27 C           5.1788    0.2084   17.3902 C.3     1  UNL1        0.1008
     28 C           6.4988   -0.4957   17.4997 C.3     1  UNL1        0.1542
     29 O           6.5656   -1.9885   17.3692 O.3     1  UNL1       -0.3805
     30 H           6.1001   -2.3994   18.1145 H       1  UNL1        0.2105
     31 N           1.8525    0.5564   25.3362 N.pl3   1  UNL1       -0.3315
     32 H           2.4266   -0.0165   25.8943 H       1  UNL1        0.1469
     33 C           1.0112    1.6225   25.9730 C.3     1  UNL1        0.1044
     34 C          -0.2519    1.2515   26.6921 C.3     1  UNL1        0.0901
     35 N          -0.2648    1.1652   28.1895 N.3     1  UNL1       -0.2940
     36 H          -1.2263    1.3329   28.4858 H       1  UNL1        0.1234
     37 C           0.1857   -0.0921   28.8722 C.3     1  UNL1        0.1008
     38 C           1.6500   -0.3849   29.0147 C.3     1  UNL1        0.1542
     39 O           2.3710   -1.1438   27.9403 O.3     1  UNL1       -0.3805
     40 H           2.0276   -2.0500   27.8985 H       1  UNL1        0.2105
@<TRIPOS>BOND
     1     1     2    2
     2     2     3    1
     3     3     4   ar
     4     4     5    1
     5     4     6   ar
     6     6     7   ar
     7     7     8   ar
     8     8     9    1
     9     8    10   ar
    10    10    11    1
    11    11    12    2
    12    11    13    1
    13    13    14   ar
    14    14    21    1
    15    21    23    1
    16    23    24    1
    17    24    25    1
    18    25    27    1
    19    27    28    1
    20    28    29    1
    21    14    15   ar
    22    15    16   ar
    23    16    17   ar
    24    17    31    1
    25    31    33    1
    26    33    34    1
    27    34    35    1
    28    35    37    1
    29    37    38    1
    30    38    39    1
    31    17    18   ar
    32    18     2    1
    33    10     3   ar
    34    18    13   ar
    35     5    19    1
    36     9    20    1
    37    21    22    1
    38    25    26    1
    39    29    30    1
    40    31    32    1
    41    35    36    1
    42    39    40    1
