@<TRIPOS>MOLECULE
*****
 21 23 0 0 0
SMALL
GASTEIGER

@<TRIPOS>ATOM
      1 C          -8.6883  -17.2551   23.9912 C.ar    1  UNL1       -0.0153
      2 C          -7.6279  -17.1750   22.9333 C.ar    1  UNL1        0.0050
      3 S          -6.4855  -16.3727   23.4821 S.2     1  UNL1       -0.0915
      4 C          -6.8398  -15.9569   24.8791 C.ar    1  UNL1        0.0288
      5 C          -6.0986  -15.1522   25.9052 C.ar    1  UNL1        0.0065
      6 C          -6.7189  -14.8929   27.2461 C.ar    1  UNL1        0.0005
      7 C          -8.0804  -15.4382   27.5608 C.ar    1  UNL1        0.0000
      8 C          -8.8215  -16.2430   26.5346 C.ar    1  UNL1        0.0002
      9 C          -8.2012  -16.5023   25.1937 C.ar    1  UNL1        0.0025
     10 C         -10.3705  -19.0415   24.8453 C.3     1  UNL1        0.0100
     11 C         -10.0047  -17.9636   23.8682 C.3     1  UNL1        0.0524
     12 C         -10.9553  -17.5944   22.7683 C.ar    1  UNL1        0.0316
     13 C         -11.5554  -18.5374   21.7680 C.ar    1  UNL1        0.1020
     14 N         -12.4437  -17.7431   20.8570 N.ar    1  UNL1       -0.2351
     15 C         -12.3927  -16.3092   21.2942 C.ar    1  UNL1        0.1342
     16 S         -11.4727  -16.2173   22.4755 S.2     1  UNL1       -0.0685
     17 C          -7.6977  -17.7894   21.5667 C.3     1  UNL1        0.0499
     18 C          -6.9881  -19.0812   21.2880 C.3     1  UNL1        0.0774
     19 N          -5.4993  -19.0948   21.1054 N.3     1  UNL1       -0.2700
     20 C          -4.9096  -18.9142   19.7380 C.3     1  UNL1        0.0897
     21 C          -4.6002  -19.2891   22.2902 C.3     1  UNL1        0.0897
@<TRIPOS>BOND
     1    11    10    1
     2    11    12    1
     3    12    13   ar
     4    13    14   ar
     5    14    15   ar
     6    15    16   ar
     7    11     1    1
     8     1     2   ar
     9     2    17    1
    10    17    18    1
    11    18    19    1
    12    19    20    1
    13    19    21    1
    14     2     3   ar
    15     3     4   ar
    16     4     5   ar
    17     5     6   ar
    18     6     7   ar
    19     7     8   ar
    20     8     9   ar
    21    16    12   ar
    22     9     1   ar
    23     9     4   ar
@<TRIPOS>MOLECULE
*****
 21 23 0 0 0
SMALL
GASTEIGER

@<TRIPOS>ATOM
      1 C          -8.3204  -18.4399   22.4430 C.ar    1  UNL1       -0.0153
      2 C          -7.7904  -17.2881   23.2445 C.ar    1  UNL1        0.0050
      3 S          -6.2989  -17.2616   23.0877 S.2     1  UNL1       -0.0915
      4 C          -5.9070  -18.3970   22.1892 C.ar    1  UNL1        0.0288
      5 C          -4.5740  -18.8619   21.6824 C.ar    1  UNL1        0.0065
      6 C          -4.4903  -20.0549   20.7772 C.ar    1  UNL1        0.0005
      7 C          -5.7396  -20.7832   20.3787 C.ar    1  UNL1        0.0000
      8 C          -7.0727  -20.3183   20.8855 C.ar    1  UNL1        0.0002
      9 C          -7.1564  -19.1253   21.7907 C.ar    1  UNL1        0.0025
     10 C         -10.2637  -20.0691   23.0082 C.3     1  UNL1        0.0100
     11 C          -9.7613  -18.8367   22.3159 C.3     1  UNL1        0.0524
     12 C         -10.6999  -18.0014   21.4968 C.ar    1  UNL1        0.0316
     13 C         -10.8342  -18.0337   20.0032 C.ar    1  UNL1        0.1020
     14 N         -11.8863  -17.0393   19.6107 N.ar    1  UNL1       -0.2351
     15 C         -12.4024  -16.3924   20.8617 C.ar    1  UNL1        0.1342
     16 S         -11.6691  -16.9870   22.0274 S.2     1  UNL1       -0.0685
     17 C          -8.6084  -16.3309   24.0598 C.3     1  UNL1        0.0499
     18 C          -7.9341  -15.2305   24.8242 C.3     1  UNL1        0.0774
     19 N          -7.2848  -15.5231   26.1444 N.3     1  UNL1       -0.2700
     20 C          -5.8104  -15.3089   26.3188 C.3     1  UNL1        0.0897
     21 C          -8.1097  -16.0299   27.2900 C.3     1  UNL1        0.0897
@<TRIPOS>BOND
     1    11    10    1
     2    11    12    1
     3    12    13   ar
     4    13    14   ar
     5    14    15   ar
     6    15    16   ar
     7    11     1    1
     8     1     2   ar
     9     2    17    1
    10    17    18    1
    11    18    19    1
    12    19    20    1
    13    19    21    1
    14     2     3   ar
    15     3     4   ar
    16     4     5   ar
    17     5     6   ar
    18     6     7   ar
    19     7     8   ar
    20     8     9   ar
    21    16    12   ar
    22     9     1   ar
    23     9     4   ar
@<TRIPOS>MOLECULE
*****
 21 23 0 0 0
SMALL
GASTEIGER

@<TRIPOS>ATOM
      1 C          -7.9949  -18.9656   21.7878 C.ar    1  UNL1       -0.0153
      2 C          -8.6142  -19.3705   20.4830 C.ar    1  UNL1        0.0050
      3 S          -7.5064  -19.6943   19.5249 S.2     1  UNL1       -0.0915
      4 C          -6.2025  -19.4895   20.2375 C.ar    1  UNL1        0.0288
      5 C          -4.7793  -19.6548   19.7936 C.ar    1  UNL1        0.0065
      6 C          -3.6580  -19.3699   20.7483 C.ar    1  UNL1        0.0005
      7 C          -3.9600  -18.9195   22.1469 C.ar    1  UNL1        0.0000
      8 C          -5.3832  -18.7541   22.5908 C.ar    1  UNL1        0.0002
      9 C          -6.5044  -19.0391   21.6361 C.ar    1  UNL1        0.0025
     10 C          -9.7102  -19.5054   23.6631 C.3     1  UNL1        0.0100
     11 C          -8.7360  -18.5586   23.0268 C.3     1  UNL1        0.0524
     12 C          -8.5031  -17.2050   23.6295 C.ar    1  UNL1        0.0316
     13 C          -7.7518  -16.0737   22.9927 C.ar    1  UNL1        0.1020
     14 N          -7.7650  -14.9145   23.9446 N.ar    1  UNL1       -0.2351
     15 C          -8.5245  -15.3294   25.1697 C.ar    1  UNL1        0.1342
     16 S          -8.9807  -16.7450   24.9750 S.2     1  UNL1       -0.0685
     17 C         -10.0833  -19.4396   20.1880 C.3     1  UNL1        0.0499
     18 C         -10.8243  -18.2026   19.7750 C.3     1  UNL1        0.0774
     19 N         -11.4304  -17.3086   20.8160 N.3     1  UNL1       -0.2700
     20 C         -10.8661  -15.9382   21.0483 C.3     1  UNL1        0.0897
     21 C         -12.6005  -17.7849   21.6245 C.3     1  UNL1        0.0897
@<TRIPOS>BOND
     1    11    10    1
     2    11    12    1
     3    12    13   ar
     4    13    14   ar
     5    14    15   ar
     6    15    16   ar
     7    11     1    1
     8     1     2   ar
     9     2    17    1
    10    17    18    1
    11    18    19    1
    12    19    20    1
    13    19    21    1
    14     2     3   ar
    15     3     4   ar
    16     4     5   ar
    17     5     6   ar
    18     6     7   ar
    19     7     8   ar
    20     8     9   ar
    21    16    12   ar
    22     9     1   ar
    23     9     4   ar
@<TRIPOS>MOLECULE
*****
 21 23 0 0 0
SMALL
GASTEIGER

@<TRIPOS>ATOM
      1 C          -8.5285  -17.0873   22.7711 C.ar    1  UNL1       -0.0153
      2 C          -7.8932  -18.3260   22.2124 C.ar    1  UNL1        0.0050
      3 S          -8.9708  -19.1528   21.5760 S.2     1  UNL1       -0.0915
      4 C         -10.2720  -18.4252   21.7413 C.ar    1  UNL1        0.0288
      5 C         -11.6705  -18.7602   21.3147 C.ar    1  UNL1        0.0065
      6 C         -12.7956  -17.8185   21.6267 C.ar    1  UNL1        0.0005
      7 C         -12.5222  -16.5419   22.3654 C.ar    1  UNL1        0.0000
      8 C         -11.1238  -16.2070   22.7920 C.ar    1  UNL1        0.0002
      9 C          -9.9987  -17.1486   22.4799 C.ar    1  UNL1        0.0025
     10 C          -7.2096  -14.8493   22.7206 C.3     1  UNL1        0.0100
     11 C          -7.8182  -15.9814   23.4940 C.3     1  UNL1        0.0524
     12 C          -7.7166  -16.0075   24.9903 C.ar    1  UNL1        0.0316
     13 C          -8.7376  -16.5707   25.9337 C.ar    1  UNL1        0.1020
     14 N          -8.2280  -16.3862   27.3324 N.ar    1  UNL1       -0.2351
     15 C          -6.8920  -15.7090   27.2534 C.ar    1  UNL1        0.1342
     16 S          -6.5758  -15.4749   25.8058 S.2     1  UNL1       -0.0685
     17 C          -6.4362  -18.6762   22.2786 C.3     1  UNL1        0.0499
     18 C          -5.7073  -19.0912   21.0350 C.3     1  UNL1        0.0774
     19 N          -4.2507  -18.7698   20.8768 N.3     1  UNL1       -0.2700
     20 C          -3.5991  -18.8854   19.5306 C.3     1  UNL1        0.0897
     21 C          -3.4458  -18.3327   22.0646 C.3     1  UNL1        0.0897
@<TRIPOS>BOND
     1    11    10    1
     2    11    12    1
     3    12    13   ar
     4    13    14   ar
     5    14    15   ar
     6    15    16   ar
     7    11     1    1
     8     1     2   ar
     9     2    17    1
    10    17    18    1
    11    18    19    1
    12    19    20    1
    13    19    21    1
    14     2     3   ar
    15     3     4   ar
    16     4     5   ar
    17     5     6   ar
    18     6     7   ar
    19     7     8   ar
    20     8     9   ar
    21    16    12   ar
    22     9     1   ar
    23     9     4   ar
@<TRIPOS>MOLECULE
*****
 21 23 0 0 0
SMALL
GASTEIGER

@<TRIPOS>ATOM
      1 C          -6.6525  -17.4441   22.8762 C.ar    1  UNL1       -0.0153
      2 C          -7.4347  -18.6318   22.3992 C.ar    1  UNL1        0.0050
      3 S          -6.4592  -19.6820   21.9570 S.2     1  UNL1       -0.0915
      4 C          -5.0741  -19.1433   22.1607 C.ar    1  UNL1        0.0288
      5 C          -3.7196  -19.7336   21.9023 C.ar    1  UNL1        0.0065
      6 C          -2.4846  -18.9407   22.2121 C.ar    1  UNL1        0.0005
      7 C          -2.6041  -17.5576   22.7802 C.ar    1  UNL1        0.0000
      8 C          -3.9586  -16.9674   23.0386 C.ar    1  UNL1        0.0002
      9 C          -5.1936  -17.7602   22.7288 C.ar    1  UNL1        0.0025
     10 C          -7.7986  -15.1495   22.4619 C.3     1  UNL1        0.0100
     11 C          -7.2282  -16.1648   23.4074 C.3     1  UNL1        0.0524
     12 C          -7.2334  -15.9008   24.8838 C.ar    1  UNL1        0.0316
     13 C          -6.0513  -15.4884   25.7100 C.ar    1  UNL1        0.1020
     14 N          -6.5090  -15.3355   27.1302 N.ar    1  UNL1       -0.2351
     15 C          -7.9740  -15.6534   27.1819 C.ar    1  UNL1        0.1342
     16 S          -8.4217  -16.0028   25.7935 S.2     1  UNL1       -0.0685
     17 C          -8.9298  -18.7488   22.3695 C.3     1  UNL1        0.0499
     18 C          -9.7067  -18.1494   21.2350 C.3     1  UNL1        0.0774
     19 N         -10.7003  -17.0576   21.5006 N.3     1  UNL1       -0.2700
     20 C         -11.2602  -16.2595   20.3605 C.3     1  UNL1        0.0897
     21 C         -11.1340  -16.7638   22.9061 C.3     1  UNL1        0.0897
@<TRIPOS>BOND
     1    11    10    1
     2    11    12    1
     3    12    13   ar
     4    13    14   ar
     5    14    15   ar
     6    15    16   ar
     7    11     1    1
     8     1     2   ar
     9     2    17    1
    10    17    18    1
    11    18    19    1
    12    19    20    1
    13    19    21    1
    14     2     3   ar
    15     3     4   ar
    16     4     5   ar
    17     5     6   ar
    18     6     7   ar
    19     7     8   ar
    20     8     9   ar
    21    16    12   ar
    22     9     1   ar
    23     9     4   ar
@<TRIPOS>MOLECULE
*****
 21 23 0 0 0
SMALL
GASTEIGER

@<TRIPOS>ATOM
      1 C          -8.6173  -17.2549   24.1034 C.ar    1  UNL1       -0.0153
      2 C          -7.5880  -17.1982   23.0138 C.ar    1  UNL1        0.0050
      3 S          -6.4334  -16.3788   23.5091 S.2     1  UNL1       -0.0915
      4 C          -6.7491  -15.9291   24.9049 C.ar    1  UNL1        0.0288
      5 C          -5.9819  -15.0965   25.8888 C.ar    1  UNL1        0.0065
      6 C          -6.5645  -14.8054   27.2400 C.ar    1  UNL1        0.0005
      7 C          -7.9142  -15.3469   27.6073 C.ar    1  UNL1        0.0000
      8 C          -8.6814  -16.1795   26.6234 C.ar    1  UNL1        0.0002
      9 C          -8.0989  -16.4706   25.2722 C.ar    1  UNL1        0.0025
     10 C         -10.2097  -19.1221   24.9569 C.3     1  UNL1        0.0100
     11 C          -9.9340  -17.9704   24.0361 C.3     1  UNL1        0.0524
     12 C         -10.9750  -17.5343   23.0482 C.ar    1  UNL1        0.0316
     13 C         -10.9901  -16.2349   22.2990 C.ar    1  UNL1        0.1020
     14 N         -12.2082  -16.2187   21.4238 N.ar    1  UNL1       -0.2351
     15 C         -12.9458  -17.5080   21.6319 C.ar    1  UNL1        0.1342
     16 S         -12.1836  -18.3212   22.6359 S.2     1  UNL1       -0.0685
     17 C          -7.6946  -17.8470   21.6655 C.3     1  UNL1        0.0499
     18 C          -6.5946  -18.7404   21.1741 C.3     1  UNL1        0.0774
     19 N          -6.9107  -19.8835   20.2557 N.3     1  UNL1       -0.2700
     20 C          -6.0099  -21.0823   20.2128 C.3     1  UNL1        0.0897
     21 C          -8.1274  -19.8280   19.3803 C.3     1  UNL1        0.0897
@<TRIPOS>BOND
     1    11    10    1
     2    11    12    1
     3    12    13   ar
     4    13    14   ar
     5    14    15   ar
     6    15    16   ar
     7    11     1    1
     8     1     2   ar
     9     2    17    1
    10    17    18    1
    11    18    19    1
    12    19    20    1
    13    19    21    1
    14     2     3   ar
    15     3     4   ar
    16     4     5   ar
    17     5     6   ar
    18     6     7   ar
    19     7     8   ar
    20     8     9   ar
    21    16    12   ar
    22     9     1   ar
    23     9     4   ar
@<TRIPOS>MOLECULE
*****
 21 23 0 0 0
SMALL
GASTEIGER

@<TRIPOS>ATOM
      1 C          -6.2833  -18.8031   21.5239 C.ar    1  UNL1       -0.0153
      2 C          -7.7430  -18.6229   21.2296 C.ar    1  UNL1        0.0050
      3 S          -8.2614  -17.5254   22.1109 S.2     1  UNL1       -0.0915
      4 C          -7.1221  -17.0273   22.9499 C.ar    1  UNL1        0.0288
      5 C          -7.0399  -15.9568   23.9973 C.ar    1  UNL1        0.0065
      6 C          -5.7352  -15.6759   24.6819 C.ar    1  UNL1        0.0005
      7 C          -4.5126  -16.4656   24.3191 C.ar    1  UNL1        0.0000
      8 C          -4.5947  -17.5362   23.2717 C.ar    1  UNL1        0.0002
      9 C          -5.8995  -17.8170   22.5871 C.ar    1  UNL1        0.0025
     10 C          -5.8742  -21.1618   20.5140 C.3     1  UNL1        0.0100
     11 C          -5.3679  -19.7953   20.8698 C.3     1  UNL1        0.0524
     12 C          -3.9463  -19.4211   20.5716 C.ar    1  UNL1        0.0316
     13 C          -2.7405  -19.8402   21.3591 C.ar    1  UNL1        0.1020
     14 N          -1.5299  -19.2402   20.7077 N.ar    1  UNL1       -0.2351
     15 C          -1.9875  -18.4504   19.5175 C.ar    1  UNL1        0.1342
     16 S          -3.4810  -18.5621   19.4334 S.2     1  UNL1       -0.0685
     17 C          -8.5438  -19.4032   20.2296 C.3     1  UNL1        0.0499
     18 C          -9.9403  -18.9750   19.8889 C.3     1  UNL1        0.0774
     19 N         -11.0191  -19.0384   20.9291 N.3     1  UNL1       -0.2700
     20 C         -12.0588  -17.9593   20.9981 C.3     1  UNL1        0.0897
     21 C         -11.0583  -20.1808   21.9004 C.3     1  UNL1        0.0897
@<TRIPOS>BOND
     1    11    10    1
     2    11    12    1
     3    12    13   ar
     4    13    14   ar
     5    14    15   ar
     6    15    16   ar
     7    11     1    1
     8     1     2   ar
     9     2    17    1
    10    17    18    1
    11    18    19    1
    12    19    20    1
    13    19    21    1
    14     2     3   ar
    15     3     4   ar
    16     4     5   ar
    17     5     6   ar
    18     6     7   ar
    19     7     8   ar
    20     8     9   ar
    21    16    12   ar
    22     9     1   ar
    23     9     4   ar
@<TRIPOS>MOLECULE
*****
 21 23 0 0 0
SMALL
GASTEIGER

@<TRIPOS>ATOM
      1 C          -6.1639  -18.3006   22.2641 C.ar    1  UNL1       -0.0153
      2 C          -4.7062  -18.6247   22.4056 C.ar    1  UNL1        0.0050
      3 S          -4.1119  -17.6651   23.3935 S.2     1  UNL1       -0.0915
      4 C          -5.2022  -16.7480   23.8626 C.ar    1  UNL1        0.0288
      5 C          -5.2041  -15.6060   24.8351 C.ar    1  UNL1        0.0065
      6 C          -6.4743  -14.8569   25.1096 C.ar    1  UNL1        0.0005
      7 C          -7.7425  -15.2496   24.4116 C.ar    1  UNL1        0.0000
      8 C          -7.7407  -16.3916   23.4391 C.ar    1  UNL1        0.0002
      9 C          -6.4705  -17.1408   23.1646 C.ar    1  UNL1        0.0025
     10 C          -6.7729  -19.3381   19.9612 C.3     1  UNL1        0.0100
     11 C          -7.1432  -19.0116   21.3778 C.3     1  UNL1        0.0524
     12 C          -8.4926  -19.3961   21.9078 C.ar    1  UNL1        0.0316
     13 C          -8.7664  -20.0593   23.2251 C.ar    1  UNL1        0.1020
     14 N         -10.2483  -20.2580   23.3450 N.ar    1  UNL1       -0.2351
     15 C         -10.8905  -19.7176   22.1019 C.ar    1  UNL1        0.1342
     16 S          -9.8055  -19.1849   21.2136 S.2     1  UNL1       -0.0685
     17 C          -3.9718  -19.7166   21.6856 C.3     1  UNL1        0.0499
     18 C          -2.5221  -19.5446   21.3411 C.3     1  UNL1        0.0774
     19 N          -2.1230  -18.6625   20.1954 N.3     1  UNL1       -0.2700
     20 C          -0.7185  -18.1440   20.1019 C.3     1  UNL1        0.0897
     21 C          -3.1283  -18.2987   19.1433 C.3     1  UNL1        0.0897
@<TRIPOS>BOND
     1    11    10    1
     2    11    12    1
     3    12    13   ar
     4    13    14   ar
     5    14    15   ar
     6    15    16   ar
     7    11     1    1
     8     1     2   ar
     9     2    17    1
    10    17    18    1
    11    18    19    1
    12    19    20    1
    13    19    21    1
    14     2     3   ar
    15     3     4   ar
    16     4     5   ar
    17     5     6   ar
    18     6     7   ar
    19     7     8   ar
    20     8     9   ar
    21    16    12   ar
    22     9     1   ar
    23     9     4   ar
@<TRIPOS>MOLECULE
*****
 21 23 0 0 0
SMALL
GASTEIGER

@<TRIPOS>ATOM
      1 C          -7.7665  -18.0398   23.0187 C.ar    1  UNL1       -0.0153
      2 C          -8.3118  -16.8022   23.6674 C.ar    1  UNL1        0.0050
      3 S          -7.1577  -15.8975   23.9831 S.2     1  UNL1       -0.0915
      4 C          -5.8992  -16.5760   23.5296 C.ar    1  UNL1        0.0288
      5 C          -4.4593  -16.1593   23.5823 C.ar    1  UNL1        0.0065
      6 C          -3.3956  -17.0667   23.0390 C.ar    1  UNL1        0.0005
      7 C          -3.7718  -18.3907   22.4430 C.ar    1  UNL1        0.0000
      8 C          -5.2118  -18.8075   22.3903 C.ar    1  UNL1        0.0002
      9 C          -6.2755  -17.9001   22.9335 C.ar    1  UNL1        0.0025
     10 C          -9.0738  -20.2282   23.5212 C.3     1  UNL1        0.0100
     11 C          -8.5710  -19.2116   22.5394 C.3     1  UNL1        0.0524
     12 C          -8.8728  -19.3668   21.0783 C.ar    1  UNL1        0.0316
     13 C          -7.8672  -19.3674   19.9654 C.ar    1  UNL1        0.1020
     14 N          -8.6062  -19.5497   18.6729 N.ar    1  UNL1       -0.2351
     15 C         -10.0686  -19.6618   18.9869 C.ar    1  UNL1        0.1342
     16 S         -10.2334  -19.5488   20.4736 S.2     1  UNL1       -0.0685
     17 C          -9.7573  -16.5189   23.9506 C.3     1  UNL1        0.0499
     18 C         -10.7219  -16.3360   22.8166 C.3     1  UNL1        0.0774
     19 N         -11.9015  -17.2525   22.6802 N.3     1  UNL1       -0.2700
     20 C         -12.1962  -18.2602   23.7515 C.3     1  UNL1        0.0897
     21 C         -12.7864  -17.1613   21.4724 C.3     1  UNL1        0.0897
@<TRIPOS>BOND
     1    11    10    1
     2    11    12    1
     3    12    13   ar
     4    13    14   ar
     5    14    15   ar
     6    15    16   ar
     7    11     1    1
     8     1     2   ar
     9     2    17    1
    10    17    18    1
    11    18    19    1
    12    19    20    1
    13    19    21    1
    14     2     3   ar
    15     3     4   ar
    16     4     5   ar
    17     5     6   ar
    18     6     7   ar
    19     7     8   ar
    20     8     9   ar
    21    16    12   ar
    22     9     1   ar
    23     9     4   ar
