@<TRIPOS>MOLECULE
*****
 32 35 0 0 0
SMALL
GASTEIGER

@<TRIPOS>ATOM
      1 C           7.1530   -3.8912   21.1936 C.ar    1  UNL1        0.0154
      2 C           8.2218   -4.7680   20.6115 C.ar    1  UNL1        0.0985
      3 N           9.0751   -5.6096   21.5133 N.ar    1  UNL1       -0.2423
      4 C           8.8597   -5.5745   22.9974 C.ar    1  UNL1        0.0985
      5 C           7.7909   -4.6977   23.5796 C.ar    1  UNL1        0.0152
      6 C           6.9376   -3.8560   22.6776 C.ar    1  UNL1       -0.0188
      7 C           5.8688   -2.9792   23.2598 C.3     1  UNL1        0.0311
      8 C           3.9770   -2.0715   19.6599 C.ar    1  UNL1        0.1754
      9 C           4.8304   -2.9131   20.5617 C.ar    1  UNL1        0.0403
     10 C           6.2996   -3.0495   20.2917 C.ar    1  UNL1        0.0074
     11 C           6.9154   -2.3442   19.1198 C.ar    1  UNL1        0.0403
     12 C           6.0620   -1.5026   18.2180 C.ar    1  UNL1        0.1754
     13 C           4.5928   -1.3663   18.4880 C.ar    1  UNL1        0.2061
     14 C           2.0011   -0.7960   20.7640 C.3     1  UNL1        0.2526
     15 O           2.5079   -1.9351   19.9299 O.3     1  UNL1       -0.4683
     16 O           6.6778   -0.7973   17.0460 O.3     1  UNL1       -0.4683
     17 C           7.0528    0.6509   17.1547 C.3     1  UNL1        0.2526
     18 O           3.7394   -0.5246   17.5861 O.3     1  UNL1       -0.4654
     19 C           3.4241    0.8934   17.9603 C.3     1  UNL1        0.2528
     20 C           7.5755   -4.6625   25.0636 C.ar    1  UNL1        0.0013
     21 C           6.8759   -5.7998   25.7470 C.ar    1  UNL1        0.0013
     22 C           6.6604   -5.7647   27.2310 C.ar    1  UNL1        0.0145
     23 C           7.1446   -4.5923   28.0316 C.ar    1  UNL1        0.0479
     24 C           7.8443   -3.4549   27.3482 C.ar    1  UNL1        0.0145
     25 C           8.0597   -3.4901   25.8642 C.ar    1  UNL1        0.0013
     26 N           6.9292   -4.5571   29.5156 N.pl3   1  UNL1       -0.3047
     27 C           7.1064   -5.8049   30.3289 C.3     1  UNL1        0.1079
     28 C           6.8910   -5.7698   31.8130 C.3     1  UNL1        0.0903
     29 N           6.4984   -4.4868   32.4837 N.3     1  UNL1       -0.2946
     30 C           6.3212   -3.2390   31.6703 C.3     1  UNL1        0.0903
     31 C           6.5366   -3.2741   30.1863 C.3     1  UNL1        0.1079
     32 H           7.2175   -4.2858   33.1786 H       1  UNL1        0.1233
@<TRIPOS>BOND
     1    14    15    1
     2    15     8    1
     3     8     9   ar
     4     9    10   ar
     5    10     1    1
     6     1     2   ar
     7     2     3   ar
     8     3     4   ar
     9     4     5   ar
    10     5    20    1
    11    20    21   ar
    12    21    22   ar
    13    22    23   ar
    14    23    26    1
    15    26    27    1
    16    27    28    1
    17    28    29    1
    18    29    30    1
    19    30    31    1
    20    23    24   ar
    21    24    25   ar
    22     5     6   ar
    23     6     7    1
    24    10    11   ar
    25    11    12   ar
    26    12    16    1
    27    16    17    1
    28    12    13   ar
    29    13    18    1
    30    18    19    1
    31    13     8   ar
    32     6     1   ar
    33    25    20   ar
    34    31    26    1
    35    29    32    1
@<TRIPOS>MOLECULE
*****
 32 35 0 0 0
SMALL
GASTEIGER

@<TRIPOS>ATOM
      1 C           7.2003   -3.8050   21.1851 C.ar    1  UNL1        0.0154
      2 C           8.2972   -4.6440   20.5996 C.ar    1  UNL1        0.0985
      3 N           9.1700   -5.4702   21.4972 N.ar    1  UNL1       -0.2423
      4 C           8.9458   -5.4573   22.9803 C.ar    1  UNL1        0.0985
      5 C           7.8489   -4.6183   23.5658 C.ar    1  UNL1        0.0152
      6 C           6.9761   -3.7922   22.6681 C.ar    1  UNL1       -0.0188
      7 C           5.8791   -2.9532   23.2536 C.3     1  UNL1        0.0311
      8 C           6.0507   -1.4428   18.2104 C.ar    1  UNL1        0.1754
      9 C           6.9234   -2.2689   19.1081 C.ar    1  UNL1        0.0403
     10 C           6.3275   -2.9788   20.2874 C.ar    1  UNL1        0.0074
     11 C           4.8588   -2.8626   20.5691 C.ar    1  UNL1        0.0403
     12 C           3.9861   -2.0365   19.6715 C.ar    1  UNL1        0.1754
     13 C           4.5820   -1.3266   18.4921 C.ar    1  UNL1        0.2061
     14 C           7.1561    0.6701   17.1792 C.3     1  UNL1        0.2526
     15 O           6.6467   -0.7329   17.0311 O.3     1  UNL1       -0.4683
     16 O           2.5173   -1.9202   19.9531 O.3     1  UNL1       -0.4683
     17 C           2.0028   -0.7938   20.7995 C.3     1  UNL1        0.2526
     18 O           3.7092   -0.5004   17.5944 O.3     1  UNL1       -0.4654
     19 C           3.4627    0.9449   17.9111 C.3     1  UNL1        0.2528
     20 C           7.6247   -4.6055   25.0489 C.ar    1  UNL1        0.0013
     21 C           8.1460   -3.4681   25.8763 C.ar    1  UNL1        0.0013
     22 C           7.9218   -3.4552   27.3595 C.ar    1  UNL1        0.0145
     23 C           7.1764   -4.5797   28.0151 C.ar    1  UNL1        0.0479
     24 C           6.6552   -5.7171   27.1876 C.ar    1  UNL1        0.0145
     25 C           6.8793   -5.7300   25.7045 C.ar    1  UNL1        0.0013
     26 N           6.9522   -4.5669   29.4982 N.pl3   1  UNL1       -0.3047
     27 C           7.1225   -5.8273   30.2933 C.3     1  UNL1        0.1079
     28 C           6.8983   -5.8145   31.7765 C.3     1  UNL1        0.0903
     29 N           6.5039   -4.5412   32.4644 N.3     1  UNL1       -0.2946
     30 C           6.3337   -3.2807   31.6691 C.3     1  UNL1        0.0903
     31 C           6.5579   -3.2936   30.1861 C.3     1  UNL1        0.1079
     32 H           7.2193   -4.3520   33.1665 H       1  UNL1        0.1233
@<TRIPOS>BOND
     1    14    15    1
     2    15     8    1
     3     8     9   ar
     4     9    10   ar
     5    10     1    1
     6     1     2   ar
     7     2     3   ar
     8     3     4   ar
     9     4     5   ar
    10     5    20    1
    11    20    21   ar
    12    21    22   ar
    13    22    23   ar
    14    23    26    1
    15    26    27    1
    16    27    28    1
    17    28    29    1
    18    29    30    1
    19    30    31    1
    20    23    24   ar
    21    24    25   ar
    22     5     6   ar
    23     6     7    1
    24    10    11   ar
    25    11    12   ar
    26    12    16    1
    27    16    17    1
    28    12    13   ar
    29    13    18    1
    30    18    19    1
    31    13     8   ar
    32     6     1   ar
    33    25    20   ar
    34    31    26    1
    35    29    32    1
@<TRIPOS>MOLECULE
*****
 32 35 0 0 0
SMALL
GASTEIGER

@<TRIPOS>ATOM
      1 C           1.4017    0.9824   21.0397 C.ar    1  UNL1        0.0154
      2 C           0.2930    1.7906   20.4335 C.ar    1  UNL1        0.0985
      3 N          -0.6418    2.5627   21.3167 N.ar    1  UNL1       -0.2423
      4 C          -0.4678    2.5266   22.8061 C.ar    1  UNL1        0.0985
      5 C           0.6409    1.7184   23.4124 C.ar    1  UNL1        0.0152
      6 C           1.5757    0.9463   22.5291 C.ar    1  UNL1       -0.0188
      7 C           2.6844    0.1381   23.1353 C.3     1  UNL1        0.0311
      8 C           4.2191    0.1660   18.3665 C.ar    1  UNL1        0.1754
      9 C           3.2843    0.9380   19.2497 C.ar    1  UNL1        0.0403
     10 C           2.3365    0.2103   20.1564 C.ar    1  UNL1        0.0074
     11 C           2.3234   -1.2894   20.1798 C.ar    1  UNL1        0.0403
     12 C           3.2581   -2.0615   19.2965 C.ar    1  UNL1        0.1754
     13 C           4.2060   -1.3338   18.3899 C.ar    1  UNL1        0.2061
     14 C           6.4979    1.3518   17.9781 C.3     1  UNL1        0.2526
     15 O           5.1669    0.8937   17.4598 O.3     1  UNL1       -0.4683
     16 O           3.2450   -3.5613   19.3199 O.3     1  UNL1       -0.4683
     17 C           4.2088   -4.3062   20.1952 C.3     1  UNL1        0.2526
     18 O           5.1407   -2.1059   17.5066 O.3     1  UNL1       -0.4654
     19 C           6.5339   -2.4092   17.9725 C.3     1  UNL1        0.2528
     20 C           0.8149    1.6823   24.9018 C.ar    1  UNL1        0.0013
     21 C          -0.2110    1.0040   25.7604 C.ar    1  UNL1        0.0013
     22 C          -0.0370    0.9678   27.2499 C.ar    1  UNL1        0.0145
     23 C           1.1629    1.6100   27.8807 C.ar    1  UNL1        0.0479
     24 C           2.1888    2.2883   27.0219 C.ar    1  UNL1        0.0145
     25 C           2.0148    2.3244   25.5325 C.ar    1  UNL1        0.0013
     26 N           1.3369    1.5738   29.3701 N.pl3   1  UNL1       -0.3047
     27 C           0.5326    2.4923   30.2416 C.3     1  UNL1        0.1079
     28 C           0.7065    2.4562   31.7311 C.3     1  UNL1        0.0903
     29 N           1.6848    1.5016   32.3490 N.3     1  UNL1       -0.2946
     30 C           2.4891    0.5832   31.4774 C.3     1  UNL1        0.0903
     31 C           2.3151    0.6193   29.9880 C.3     1  UNL1        0.1079
     32 H           1.1550    0.9106   32.9896 H       1  UNL1        0.1233
@<TRIPOS>BOND
     1    14    15    1
     2    15     8    1
     3     8     9   ar
     4     9    10   ar
     5    10     1    1
     6     1     2   ar
     7     2     3   ar
     8     3     4   ar
     9     4     5   ar
    10     5    20    1
    11    20    21   ar
    12    21    22   ar
    13    22    23   ar
    14    23    26    1
    15    26    27    1
    16    27    28    1
    17    28    29    1
    18    29    30    1
    19    30    31    1
    20    23    24   ar
    21    24    25   ar
    22     5     6   ar
    23     6     7    1
    24    10    11   ar
    25    11    12   ar
    26    12    16    1
    27    16    17    1
    28    12    13   ar
    29    13    18    1
    30    18    19    1
    31    13     8   ar
    32     6     1   ar
    33    25    20   ar
    34    31    26    1
    35    29    32    1
@<TRIPOS>MOLECULE
*****
 32 35 0 0 0
SMALL
GASTEIGER

@<TRIPOS>ATOM
      1 C           1.4244    1.0701   21.0757 C.ar    1  UNL1        0.0154
      2 C           0.3344    1.9023   20.4681 C.ar    1  UNL1        0.0985
      3 N          -0.5915    2.6858   21.3506 N.ar    1  UNL1       -0.2423
      4 C          -0.4274    2.6371   22.8408 C.ar    1  UNL1        0.0985
      5 C           0.6627    1.8048   23.4485 C.ar    1  UNL1        0.0152
      6 C           1.5886    1.0214   22.5659 C.ar    1  UNL1       -0.0188
      7 C           2.6786    0.1891   23.1735 C.3     1  UNL1        0.0311
      8 C           3.2207   -1.9958   19.3083 C.ar    1  UNL1        0.1754
      9 C           2.2948   -1.2123   20.1909 C.ar    1  UNL1        0.0403
     10 C           2.3503    0.2866   20.1931 C.ar    1  UNL1        0.0074
     11 C           3.3317    1.0021   19.3129 C.ar    1  UNL1        0.0403
     12 C           4.2576    0.2186   18.4303 C.ar    1  UNL1        0.1754
     13 C           4.2020   -1.2803   18.4281 C.ar    1  UNL1        0.2061
     14 C           4.1072   -4.2815   20.1683 C.3     1  UNL1        0.2526
     15 O           3.1651   -3.4948   19.3061 O.3     1  UNL1       -0.4683
     16 O           5.2390    0.9341   17.5500 O.3     1  UNL1       -0.4683
     17 C           6.5683    1.3595   18.0996 C.3     1  UNL1        0.2526
     18 O           5.1280   -2.0638   17.5455 O.3     1  UNL1       -0.4654
     19 C           6.5163   -2.3859   18.0132 C.3     1  UNL1        0.2528
     20 C           0.8268    1.7561   24.9387 C.ar    1  UNL1        0.0013
     21 C           2.0090    2.4153   25.5849 C.ar    1  UNL1        0.0013
     22 C           2.1732    2.3666   27.0751 C.ar    1  UNL1        0.0145
     23 C           1.1551    1.6586   27.9191 C.ar    1  UNL1        0.0479
     24 C          -0.0271    0.9993   27.2727 C.ar    1  UNL1        0.0145
     25 C          -0.1913    1.0481   25.7826 C.ar    1  UNL1        0.0013
     26 N           1.3193    1.6098   29.4092 N.pl3   1  UNL1       -0.3047
     27 C           2.2807    0.6379   30.0264 C.3     1  UNL1        0.1079
     28 C           2.4449    0.5891   31.5166 C.3     1  UNL1        0.0903
     29 N           1.6476    1.5123   32.3896 N.3     1  UNL1       -0.2946
     30 C           0.6862    2.4842   31.7724 C.3     1  UNL1        0.0903
     31 C           0.5220    2.5330   30.2822 C.3     1  UNL1        0.1079
     32 H           2.3183    2.0622   32.9265 H       1  UNL1        0.1233
@<TRIPOS>BOND
     1    14    15    1
     2    15     8    1
     3     8     9   ar
     4     9    10   ar
     5    10     1    1
     6     1     2   ar
     7     2     3   ar
     8     3     4   ar
     9     4     5   ar
    10     5    20    1
    11    20    21   ar
    12    21    22   ar
    13    22    23   ar
    14    23    26    1
    15    26    27    1
    16    27    28    1
    17    28    29    1
    18    29    30    1
    19    30    31    1
    20    23    24   ar
    21    24    25   ar
    22     5     6   ar
    23     6     7    1
    24    10    11   ar
    25    11    12   ar
    26    12    16    1
    27    16    17    1
    28    12    13   ar
    29    13    18    1
    30    18    19    1
    31    13     8   ar
    32     6     1   ar
    33    25    20   ar
    34    31    26    1
    35    29    32    1
@<TRIPOS>MOLECULE
*****
 32 35 0 0 0
SMALL
GASTEIGER

@<TRIPOS>ATOM
      1 C           3.4788    1.4786   34.7786 C.ar    1  UNL1        0.0154
      2 C           2.4026    2.1046   33.9419 C.ar    1  UNL1        0.0985
      3 N           2.1574    1.6141   32.5457 N.ar    1  UNL1       -0.2423
      4 C           2.9884    0.4976   31.9862 C.ar    1  UNL1        0.0985
      5 C           4.0645   -0.1283   32.8229 C.ar    1  UNL1        0.0152
      6 C           4.3097    0.3622   34.2191 C.ar    1  UNL1       -0.0188
      7 C           5.3859   -0.2638   35.0558 C.3     1  UNL1        0.0311
      8 C           3.0474    2.0516   38.6819 C.ar    1  UNL1        0.1754
      9 C           2.8023    1.5611   37.2857 C.ar    1  UNL1        0.0403
     10 C           3.7239    1.9691   36.1748 C.ar    1  UNL1        0.0074
     11 C           4.8907    2.8675   36.4601 C.ar    1  UNL1        0.0403
     12 C           5.1359    3.3579   37.8562 C.ar    1  UNL1        0.1754
     13 C           4.2142    2.9500   38.9671 C.ar    1  UNL1        0.2061
     14 C           1.2757    0.4161   39.6494 C.3     1  UNL1        0.2526
     15 O           2.1258    1.6436   39.7928 O.3     1  UNL1       -0.4683
     16 O           6.3027    4.2564   38.1415 O.3     1  UNL1       -0.4683
     17 C           7.5943    3.6746   38.6347 C.3     1  UNL1        0.2526
     18 O           4.4594    3.4405   40.3634 O.3     1  UNL1       -0.4654
     19 C           3.9366    4.7800   40.7903 C.3     1  UNL1        0.2528
     20 C           4.8955   -1.2448   32.2634 C.ar    1  UNL1        0.0013
     21 C           5.0325   -2.5310   33.0228 C.ar    1  UNL1        0.0013
     22 C           5.8635   -3.6475   32.4633 C.ar    1  UNL1        0.0145
     23 C           6.5575   -3.4777   31.1444 C.ar    1  UNL1        0.0479
     24 C           6.4204   -2.1914   30.3850 C.ar    1  UNL1        0.0145
     25 C           5.5895   -1.0749   30.9444 C.ar    1  UNL1        0.0013
     26 N           7.3884   -4.5941   30.5849 N.pl3   1  UNL1       -0.3047
     27 C           6.9030   -5.3662   29.3940 C.3     1  UNL1        0.1079
     28 C           7.7340   -6.4827   28.8345 C.3     1  UNL1        0.0903
     29 N           9.0504   -6.8270   29.4659 N.3     1  UNL1       -0.2946
     30 C           9.5357   -6.0548   30.6568 C.3     1  UNL1        0.0903
     31 C           8.7048   -4.9384   31.2163 C.3     1  UNL1        0.1079
     32 H           9.7602   -6.7263   28.7404 H       1  UNL1        0.1233
@<TRIPOS>BOND
     1    14    15    1
     2    15     8    1
     3     8     9   ar
     4     9    10   ar
     5    10     1    1
     6     1     2   ar
     7     2     3   ar
     8     3     4   ar
     9     4     5   ar
    10     5    20    1
    11    20    21   ar
    12    21    22   ar
    13    22    23   ar
    14    23    26    1
    15    26    27    1
    16    27    28    1
    17    28    29    1
    18    29    30    1
    19    30    31    1
    20    23    24   ar
    21    24    25   ar
    22     5     6   ar
    23     6     7    1
    24    10    11   ar
    25    11    12   ar
    26    12    16    1
    27    16    17    1
    28    12    13   ar
    29    13    18    1
    30    18    19    1
    31    13     8   ar
    32     6     1   ar
    33    25    20   ar
    34    31    26    1
    35    29    32    1
@<TRIPOS>MOLECULE
*****
 32 35 0 0 0
SMALL
GASTEIGER

@<TRIPOS>ATOM
      1 C           2.9826    1.2669   21.7372 C.ar    1  UNL1        0.0154
      2 C           3.9751    2.2861   22.2127 C.ar    1  UNL1        0.0985
      3 N           3.5027    3.6275   22.6895 N.ar    1  UNL1       -0.2423
      4 C           2.0377    3.9497   22.6909 C.ar    1  UNL1        0.0985
      5 C           1.0452    2.9305   22.2154 C.ar    1  UNL1        0.0152
      6 C           1.5177    1.5890   21.7385 C.ar    1  UNL1       -0.0188
      7 C           0.5252    0.5698   21.2630 C.3     1  UNL1        0.0311
      8 C           4.1641   -2.5217   21.7692 C.ar    1  UNL1        0.1754
      9 C           3.6916   -1.1803   22.2459 C.ar    1  UNL1        0.0403
     10 C           3.4552   -0.0746   21.2603 C.ar    1  UNL1        0.0074
     11 C           3.6912   -0.3103   19.7979 C.ar    1  UNL1        0.0403
     12 C           4.1637   -1.6517   19.3211 C.ar    1  UNL1        0.1754
     13 C           4.4001   -2.7574   20.3067 C.ar    1  UNL1        0.2061
     14 C           5.7344   -3.7593   23.4282 C.3     1  UNL1        0.2526
     15 O           4.4006   -3.6274   22.7548 O.3     1  UNL1       -0.4683
     16 O           4.3997   -1.8874   17.8586 O.3     1  UNL1       -0.4683
     17 C           3.8062   -0.9561   16.8435 C.3     1  UNL1        0.2526
     18 O           4.8727   -4.0988   19.8299 O.3     1  UNL1       -0.4654
     19 C           3.8946   -5.0739   19.2444 C.3     1  UNL1        0.2528
     20 C          -0.4198    3.2526   22.2167 C.ar    1  UNL1        0.0013
     21 C          -1.1637    3.3562   23.5151 C.ar    1  UNL1        0.0013
     22 C          -2.6288    3.6784   23.5165 C.ar    1  UNL1        0.0145
     23 C          -3.3498    3.8970   22.2195 C.ar    1  UNL1        0.0479
     24 C          -2.6058    3.7934   20.9210 C.ar    1  UNL1        0.0145
     25 C          -1.1409    3.4713   20.9197 C.ar    1  UNL1        0.0013
     26 N          -4.8148    4.2191   22.2208 N.pl3   1  UNL1       -0.3047
     27 C          -5.4742    4.7174   20.9691 C.3     1  UNL1        0.1079
     28 C          -6.9393    5.0396   20.9704 C.3     1  UNL1        0.0903
     29 N          -7.7448    4.8635   22.2234 N.3     1  UNL1       -0.2946
     30 C          -7.0853    4.3652   23.4752 C.3     1  UNL1        0.0903
     31 C          -5.6203    4.0430   23.4738 C.3     1  UNL1        0.1079
     32 H          -8.4926    4.2059   22.0028 H       1  UNL1        0.1233
@<TRIPOS>BOND
     1    14    15    1
     2    15     8    1
     3     8     9   ar
     4     9    10   ar
     5    10     1    1
     6     1     2   ar
     7     2     3   ar
     8     3     4   ar
     9     4     5   ar
    10     5    20    1
    11    20    21   ar
    12    21    22   ar
    13    22    23   ar
    14    23    26    1
    15    26    27    1
    16    27    28    1
    17    28    29    1
    18    29    30    1
    19    30    31    1
    20    23    24   ar
    21    24    25   ar
    22     5     6   ar
    23     6     7    1
    24    10    11   ar
    25    11    12   ar
    26    12    16    1
    27    16    17    1
    28    12    13   ar
    29    13    18    1
    30    18    19    1
    31    13     8   ar
    32     6     1   ar
    33    25    20   ar
    34    31    26    1
    35    29    32    1
@<TRIPOS>MOLECULE
*****
 32 35 0 0 0
SMALL
GASTEIGER

@<TRIPOS>ATOM
      1 C           3.0331    1.1898   21.7467 C.ar    1  UNL1        0.0154
      2 C           4.0175    2.2022   22.2527 C.ar    1  UNL1        0.0985
      3 N           3.5357    3.5308   22.7552 N.ar    1  UNL1       -0.2423
      4 C           2.0693    3.8471   22.7518 C.ar    1  UNL1        0.0985
      5 C           1.0849    2.8347   22.2458 C.ar    1  UNL1        0.0152
      6 C           1.5668    1.5061   21.7433 C.ar    1  UNL1       -0.0188
      7 C           0.5824    0.4937   21.2373 C.3     1  UNL1        0.0311
      8 C           4.2425   -1.6706   19.2758 C.ar    1  UNL1        0.1754
      9 C           3.7606   -0.3420   19.7784 C.ar    1  UNL1        0.0403
     10 C           3.5149   -0.1389   21.2441 C.ar    1  UNL1        0.0074
     11 C           3.7511   -1.2642   22.2073 C.ar    1  UNL1        0.0403
     12 C           4.2330   -2.5928   21.7047 C.ar    1  UNL1        0.1754
     13 C           4.4787   -2.7960   20.2390 C.ar    1  UNL1        0.2061
     14 C           3.9095   -0.9147   16.8126 C.3     1  UNL1        0.2526
     15 O           4.4882   -1.8738   17.8101 O.3     1  UNL1       -0.4683
     16 O           4.4692   -3.7183   22.6678 O.3     1  UNL1       -0.4683
     17 C           5.8262   -3.9120   23.2768 C.3     1  UNL1        0.2526
     18 O           4.9606   -4.1247   19.7364 O.3     1  UNL1       -0.4654
     19 C           3.9982   -5.0752   19.0880 C.3     1  UNL1        0.2528
     20 C          -0.3813    3.1510   22.2424 C.ar    1  UNL1        0.0013
     21 C          -1.1264    3.2678   23.5390 C.ar    1  UNL1        0.0013
     22 C          -2.5927    3.5841   23.5356 C.ar    1  UNL1        0.0145
     23 C          -3.3139    3.7835   22.2356 C.ar    1  UNL1        0.0479
     24 C          -2.5688    3.6666   20.9389 C.ar    1  UNL1        0.0145
     25 C          -1.1025    3.3504   20.9423 C.ar    1  UNL1        0.0013
     26 N          -4.7802    4.0997   22.2321 N.pl3   1  UNL1       -0.3047
     27 C          -5.4576    4.5020   20.9557 C.3     1  UNL1        0.1079
     28 C          -6.9239    4.8183   20.9522 C.3     1  UNL1        0.0903
     29 N          -7.7127    4.7323   22.2252 N.3     1  UNL1       -0.2946
     30 C          -7.0352    4.3300   23.5016 C.3     1  UNL1        0.0903
     31 C          -5.5690    4.0137   23.5051 C.3     1  UNL1        0.1079
     32 H          -8.4603    4.0575   22.0633 H       1  UNL1        0.1233
@<TRIPOS>BOND
     1    14    15    1
     2    15     8    1
     3     8     9   ar
     4     9    10   ar
     5    10     1    1
     6     1     2   ar
     7     2     3   ar
     8     3     4   ar
     9     4     5   ar
    10     5    20    1
    11    20    21   ar
    12    21    22   ar
    13    22    23   ar
    14    23    26    1
    15    26    27    1
    16    27    28    1
    17    28    29    1
    18    29    30    1
    19    30    31    1
    20    23    24   ar
    21    24    25   ar
    22     5     6   ar
    23     6     7    1
    24    10    11   ar
    25    11    12   ar
    26    12    16    1
    27    16    17    1
    28    12    13   ar
    29    13    18    1
    30    18    19    1
    31    13     8   ar
    32     6     1   ar
    33    25    20   ar
    34    31    26    1
    35    29    32    1
@<TRIPOS>MOLECULE
*****
 32 35 0 0 0
SMALL
GASTEIGER

@<TRIPOS>ATOM
      1 C          -2.0817    3.6327   20.2957 C.ar    1  UNL1        0.0154
      2 C          -2.6100    4.3877   19.1121 C.ar    1  UNL1        0.0985
      3 N          -1.8479    4.3859   17.8202 N.ar    1  UNL1       -0.2423
      4 C          -0.5574    3.6290   17.7118 C.ar    1  UNL1        0.0985
      5 C          -0.0290    2.8740   18.8953 C.ar    1  UNL1        0.0152
      6 C          -0.7912    2.8758   20.1873 C.ar    1  UNL1       -0.0188
      7 C          -0.2628    2.1208   21.3708 C.3     1  UNL1        0.0311
      8 C          -2.8682    3.6366   24.1856 C.ar    1  UNL1        0.1754
      9 C          -2.1061    3.6347   22.8937 C.ar    1  UNL1        0.0403
     10 C          -2.8439    3.6346   21.5877 C.ar    1  UNL1        0.0074
     11 C          -4.3438    3.6363   21.5736 C.ar    1  UNL1        0.0403
     12 C          -5.1059    3.6382   22.8655 C.ar    1  UNL1        0.1754
     13 C          -4.3681    3.6383   24.1715 C.ar    1  UNL1        0.2061
     14 C          -1.7524    4.9357   26.1394 C.3     1  UNL1        0.2526
     15 O          -2.1304    3.6367   25.4916 O.3     1  UNL1       -0.4683
     16 O          -6.6058    3.6399   22.8515 O.3     1  UNL1       -0.4683
     17 C          -7.3529    4.9315   22.6987 C.3     1  UNL1        0.2526
     18 O          -5.1302    3.6401   25.4635 O.3     1  UNL1       -0.4654
     19 C          -5.5140    4.9401   26.1060 C.3     1  UNL1        0.2528
     20 C           1.2615    2.1171   18.7869 C.ar    1  UNL1        0.0013
     21 C           2.5624    2.8085   19.0690 C.ar    1  UNL1        0.0013
     22 C           3.8529    2.0516   18.9606 C.ar    1  UNL1        0.0145
     23 C           3.8425    0.6034   18.5701 C.ar    1  UNL1        0.0479
     24 C           2.5415   -0.0880   18.2880 C.ar    1  UNL1        0.0145
     25 C           1.2510    0.6688   18.3964 C.ar    1  UNL1        0.0013
     26 N           5.1329   -0.1535   18.4617 N.pl3   1  UNL1       -0.3047
     27 C           5.1161   -1.6341   18.2219 C.3     1  UNL1        0.1079
     28 C           6.4066   -2.3911   18.1135 C.3     1  UNL1        0.0903
     29 N           7.7139   -1.6674   18.2449 N.3     1  UNL1       -0.2946
     30 C           7.7307   -0.1867   18.4847 C.3     1  UNL1        0.0903
     31 C           6.4402    0.5702   18.5931 C.3     1  UNL1        0.1079
     32 H           8.2295   -1.8315   17.3803 H       1  UNL1        0.1233
@<TRIPOS>BOND
     1    14    15    1
     2    15     8    1
     3     8     9   ar
     4     9    10   ar
     5    10     1    1
     6     1     2   ar
     7     2     3   ar
     8     3     4   ar
     9     4     5   ar
    10     5    20    1
    11    20    21   ar
    12    21    22   ar
    13    22    23   ar
    14    23    26    1
    15    26    27    1
    16    27    28    1
    17    28    29    1
    18    29    30    1
    19    30    31    1
    20    23    24   ar
    21    24    25   ar
    22     5     6   ar
    23     6     7    1
    24    10    11   ar
    25    11    12   ar
    26    12    16    1
    27    16    17    1
    28    12    13   ar
    29    13    18    1
    30    18    19    1
    31    13     8   ar
    32     6     1   ar
    33    25    20   ar
    34    31    26    1
    35    29    32    1
@<TRIPOS>MOLECULE
*****
 32 35 0 0 0
SMALL
GASTEIGER

@<TRIPOS>ATOM
      1 C          -2.0328    3.6496   20.4258 C.ar    1  UNL1        0.0154
      2 C          -2.5658    4.4221   19.2557 C.ar    1  UNL1        0.0985
      3 N          -1.8123    4.4340   17.9588 N.ar    1  UNL1       -0.2423
      4 C          -0.5256    3.6734   17.8320 C.ar    1  UNL1        0.0985
      5 C           0.0074    2.9009   19.0021 C.ar    1  UNL1        0.0152
      6 C          -0.7462    2.8890   20.2990 C.ar    1  UNL1       -0.0188
      7 C          -0.2131    2.1165   21.4691 C.3     1  UNL1        0.0311
      8 C          -5.0372    3.7176   23.0179 C.ar    1  UNL1        0.1754
      9 C          -4.2836    3.7295   21.7210 C.ar    1  UNL1        0.0403
     10 C          -2.7864    3.6378   21.7228 C.ar    1  UNL1        0.0074
     11 C          -2.0428    3.5342   23.0213 C.ar    1  UNL1        0.0403
     12 C          -2.7965    3.5223   24.3182 C.ar    1  UNL1        0.1754
     13 C          -4.2937    3.6140   24.3165 C.ar    1  UNL1        0.2061
     14 C          -7.2179    4.9030   22.2504 C.3     1  UNL1        0.2526
     15 O          -6.5344    3.8093   23.0162 O.3     1  UNL1       -0.4683
     16 O          -2.0529    3.4187   25.6168 O.3     1  UNL1       -0.4683
     17 C          -0.9828    2.3816   25.7877 C.3     1  UNL1        0.2526
     18 O          -5.0473    3.6021   25.6134 O.3     1  UNL1       -0.4654
     19 C          -5.0571    4.8220   26.4863 C.3     1  UNL1        0.2528
     20 C           1.2940    2.1403   18.8753 C.ar    1  UNL1        0.0013
     21 C           1.2749    0.6969   18.4677 C.ar    1  UNL1        0.0013
     22 C           2.5615   -0.0638   18.3409 C.ar    1  UNL1        0.0145
     23 C           3.8673    0.6190   18.6216 C.ar    1  UNL1        0.0479
     24 C           3.8864    2.0625   19.0292 C.ar    1  UNL1        0.0145
     25 C           2.5998    2.8231   19.1560 C.ar    1  UNL1        0.0013
     26 N           5.1538   -0.1416   18.4948 N.pl3   1  UNL1       -0.3047
     27 C           6.4643    0.5668   18.6707 C.3     1  UNL1        0.1079
     28 C           7.7510   -0.1938   18.5439 C.3     1  UNL1        0.0903
     29 N           7.7271   -1.6628   18.2412 N.3     1  UNL1       -0.2946
     30 C           6.4166   -2.3711   18.0653 C.3     1  UNL1        0.0903
     31 C           5.1300   -1.6105   18.1921 C.3     1  UNL1        0.1079
     32 H           8.2135   -2.1291   19.0070 H       1  UNL1        0.1233
@<TRIPOS>BOND
     1    14    15    1
     2    15     8    1
     3     8     9   ar
     4     9    10   ar
     5    10     1    1
     6     1     2   ar
     7     2     3   ar
     8     3     4   ar
     9     4     5   ar
    10     5    20    1
    11    20    21   ar
    12    21    22   ar
    13    22    23   ar
    14    23    26    1
    15    26    27    1
    16    27    28    1
    17    28    29    1
    18    29    30    1
    19    30    31    1
    20    23    24   ar
    21    24    25   ar
    22     5     6   ar
    23     6     7    1
    24    10    11   ar
    25    11    12   ar
    26    12    16    1
    27    16    17    1
    28    12    13   ar
    29    13    18    1
    30    18    19    1
    31    13     8   ar
    32     6     1   ar
    33    25    20   ar
    34    31    26    1
    35    29    32    1
