@<TRIPOS>MOLECULE
*****
 34 38 0 0 0
SMALL
GASTEIGER

@<TRIPOS>ATOM
      1 N          -8.2521  -18.5191   21.2952 N.3     1  UNL1       -0.2679
      2 C          -9.1974  -18.9592   22.3735 C.3     1  UNL1        0.0978
      3 C          -8.7995  -20.0534   23.3191 C.3     1  UNL1        0.0224
      4 C          -9.7448  -20.4935   24.3974 C.3     1  UNL1        0.0065
      5 C         -11.0880  -19.8392   24.5302 C.3     1  UNL1        0.0277
      6 C         -11.4859  -18.7449   23.5846 C.ar    1  UNL1       -0.0073
      7 C         -12.8292  -18.0906   23.7173 C.ar    1  UNL1       -0.0015
      8 C         -13.2271  -16.9964   22.7717 C.ar    1  UNL1        0.0203
      9 C         -12.2818  -16.5563   21.6934 C.ar    1  UNL1        0.0985
     10 N         -10.9386  -17.2106   21.5607 N.ar    1  UNL1       -0.2471
     11 C         -10.5406  -18.3049   22.5063 C.ar    1  UNL1        0.0695
     12 C          -8.0337  -19.3850   20.0900 C.3     1  UNL1        0.0738
     13 C          -6.9487  -20.4208   20.0973 C.3     1  UNL1        0.0347
     14 C          -5.8906  -20.3911   21.1600 C.3     1  UNL1        0.0736
     15 N          -2.2230  -17.8418   20.6125 N.3     1  UNL1       -0.2703
     16 C          -3.0840  -18.1805   19.4319 C.3     1  UNL1        0.0897
     17 C          -4.3066  -19.0303   19.6144 C.3     1  UNL1        0.0897
     18 N          -4.6681  -19.5414   20.9775 N.3     1  UNL1       -0.2703
     19 C          -3.8070  -19.2026   22.1582 C.3     1  UNL1        0.0897
     20 C          -2.5845  -18.3529   21.9757 C.3     1  UNL1        0.0897
     21 C           0.2966  -17.6227   20.0174 C.3     1  UNL1        0.0188
     22 C          -1.0004  -16.9920   20.4300 C.3     1  UNL1        0.0722
     23 C          -7.5251  -17.2132   21.4221 C.3     1  UNL1        0.0886
     24 C          -7.1179  -16.7099   22.7752 C.3     1  UNL1        0.0748
     25 C          -8.1628  -16.3980   23.8051 C.3     1  UNL1        0.0432
     26 C          -7.7555  -15.8947   25.1582 C.ar    1  UNL1       -0.0234
     27 C          -8.8005  -15.5828   26.1882 C.ar    1  UNL1       -0.0045
     28 C          -8.3932  -15.0795   27.5412 C.ar    1  UNL1       -0.0003
     29 C          -6.9409  -14.8880   27.8643 C.ar    1  UNL1       -0.0003
     30 C          -5.8960  -15.1999   26.8344 C.ar    1  UNL1       -0.0032
     31 C          -6.3033  -15.7032   25.4813 C.ar    1  UNL1       -0.0103
     32 C          -5.2583  -16.0151   24.4513 C.3     1  UNL1        0.0953
     33 N          -5.6656  -16.5185   23.0983 N.3     1  UNL1       -0.2934
     34 H          -5.2142  -17.4245   22.9730 H       1  UNL1        0.1236
@<TRIPOS>BOND
     1    21    22    1
     2    22    15    1
     3    15    16    1
     4    16    17    1
     5    17    18    1
     6    18    14    1
     7    14    13    1
     8    13    12    1
     9    12     1    1
    10     1    23    1
    11    24    23    1
    12    24    25    1
    13    25    26    1
    14    26    27   ar
    15    27    28   ar
    16    28    29   ar
    17    29    30   ar
    18    30    31   ar
    19    31    32    1
    20    32    33    1
    21     2     1    1
    22     2     3    1
    23     3     4    1
    24     4     5    1
    25     5     6    1
    26     6     7   ar
    27     7     8   ar
    28     8     9   ar
    29     9    10   ar
    30    10    11   ar
    31    18    19    1
    32    19    20    1
    33    20    15    1
    34    33    24    1
    35    11     2    1
    36    31    26   ar
    37    11     6   ar
    38    33    34    1
@<TRIPOS>MOLECULE
*****
 34 38 0 0 0
SMALL
GASTEIGER

@<TRIPOS>ATOM
      1 N          -8.7042  -17.9882   21.3097 N.3     1  UNL1       -0.2679
      2 C         -10.1361  -17.5420   21.2834 C.3     1  UNL1        0.0978
      3 C         -10.6479  -16.7315   20.1297 C.3     1  UNL1        0.0224
      4 C         -12.0798  -16.2853   20.1033 C.3     1  UNL1        0.0065
      5 C         -12.9998  -16.6495   21.2306 C.3     1  UNL1        0.0277
      6 C         -12.4879  -17.4600   22.3843 C.ar    1  UNL1       -0.0073
      7 C         -13.4079  -17.8244   23.5117 C.ar    1  UNL1       -0.0015
      8 C         -12.8961  -18.6349   24.6654 C.ar    1  UNL1        0.0203
      9 C         -11.4642  -19.0811   24.6918 C.ar    1  UNL1        0.0985
     10 N         -10.5442  -18.7168   23.5644 N.ar    1  UNL1       -0.2471
     11 C         -11.0561  -17.9063   22.4107 C.ar    1  UNL1        0.0695
     12 C          -8.3706  -19.4458   21.1911 C.3     1  UNL1        0.0738
     13 C          -7.3000  -20.0429   22.0556 C.3     1  UNL1        0.0347
     14 C          -6.0615  -20.6126   21.4297 C.3     1  UNL1        0.0736
     15 N          -2.4969  -17.9691   20.6847 N.3     1  UNL1       -0.2703
     16 C          -3.3758  -18.3828   19.5417 C.3     1  UNL1        0.0897
     17 C          -4.5640  -19.2640   19.7901 C.3     1  UNL1        0.0897
     18 N          -4.8734  -19.7315   21.1814 N.3     1  UNL1       -0.2703
     19 C          -3.9945  -19.3177   22.3244 C.3     1  UNL1        0.0897
     20 C          -2.8063  -18.4365   22.0761 C.3     1  UNL1        0.0897
     21 C          -0.0012  -17.6922   20.0179 C.3     1  UNL1        0.0188
     22 C          -1.3087  -17.0879   20.4364 C.3     1  UNL1        0.0722
     23 C          -7.6060  -16.9769   21.4548 C.3     1  UNL1        0.0886
     24 C          -7.1804  -16.5223   22.8195 C.3     1  UNL1        0.0748
     25 C          -8.2120  -16.2328   23.8692 C.3     1  UNL1        0.0432
     26 C          -7.7864  -15.7783   25.2339 C.ar    1  UNL1       -0.0234
     27 C          -8.8180  -15.4888   26.2836 C.ar    1  UNL1       -0.0045
     28 C          -8.3923  -15.0343   27.6482 C.ar    1  UNL1       -0.0003
     29 C          -6.9351  -14.8694   27.9631 C.ar    1  UNL1       -0.0003
     30 C          -5.9035  -15.1589   26.9134 C.ar    1  UNL1       -0.0032
     31 C          -6.3291  -15.6134   25.5488 C.ar    1  UNL1       -0.0103
     32 C          -5.2975  -15.9029   24.4990 C.3     1  UNL1        0.0953
     33 N          -5.7231  -16.3574   23.1344 N.3     1  UNL1       -0.2934
     34 H          -5.2831  -17.2637   22.9753 H       1  UNL1        0.1236
@<TRIPOS>BOND
     1    21    22    1
     2    22    15    1
     3    15    16    1
     4    16    17    1
     5    17    18    1
     6    18    14    1
     7    14    13    1
     8    13    12    1
     9    12     1    1
    10     1    23    1
    11    24    23    1
    12    24    25    1
    13    25    26    1
    14    26    27   ar
    15    27    28   ar
    16    28    29   ar
    17    29    30   ar
    18    30    31   ar
    19    31    32    1
    20    32    33    1
    21     2     1    1
    22     2     3    1
    23     3     4    1
    24     4     5    1
    25     5     6    1
    26     6     7   ar
    27     7     8   ar
    28     8     9   ar
    29     9    10   ar
    30    10    11   ar
    31    18    19    1
    32    19    20    1
    33    20    15    1
    34    33    24    1
    35    11     2    1
    36    31    26   ar
    37    11     6   ar
    38    33    34    1
@<TRIPOS>MOLECULE
*****
 34 38 0 0 0
SMALL
GASTEIGER

@<TRIPOS>ATOM
      1 N          -7.2758  -20.0813   21.9313 N.3     1  UNL1       -0.2679
      2 C          -8.2287  -19.5437   22.9574 C.3     1  UNL1        0.0978
      3 C          -9.1756  -20.4708   23.6601 C.3     1  UNL1        0.0224
      4 C         -10.1286  -19.9333   24.6863 C.3     1  UNL1        0.0065
      5 C         -10.1346  -18.4686   25.0097 C.3     1  UNL1        0.0277
      6 C          -9.1877  -17.5415   24.3070 C.ar    1  UNL1       -0.0073
      7 C          -9.1938  -16.0767   24.6304 C.ar    1  UNL1       -0.0015
      8 C          -8.2469  -15.1496   23.9277 C.ar    1  UNL1        0.0203
      9 C          -7.2940  -15.6872   22.9015 C.ar    1  UNL1        0.0985
     10 N          -7.2879  -17.1519   22.5781 N.ar    1  UNL1       -0.2471
     11 C          -8.2348  -18.0791   23.2808 C.ar    1  UNL1        0.0695
     12 C          -7.7255  -20.2613   20.5117 C.3     1  UNL1        0.0738
     13 C          -8.0616  -19.0633   19.6738 C.3     1  UNL1        0.0347
     14 C          -9.4874  -18.7860   19.2995 C.3     1  UNL1        0.0736
     15 N         -12.4424  -17.5461   22.4588 N.3     1  UNL1       -0.2703
     16 C         -11.5843  -16.5146   21.7883 C.3     1  UNL1        0.0897
     17 C         -10.5992  -16.9279   20.7352 C.3     1  UNL1        0.0897
     18 N         -10.4724  -18.3727   20.3526 N.3     1  UNL1       -0.2703
     19 C         -11.3305  -19.4043   21.0231 C.3     1  UNL1        0.0897
     20 C         -12.3155  -18.9910   22.0762 C.3     1  UNL1        0.0897
     21 C         -14.0691  -18.1689   24.3864 C.3     1  UNL1        0.0188
     22 C         -13.4274  -17.1329   23.5119 C.3     1  UNL1        0.0722
     23 C          -5.8732  -20.4389   22.3248 C.3     1  UNL1        0.0886
     24 C          -4.7578  -19.4626   22.0951 C.3     1  UNL1        0.0748
     25 C          -3.9230  -19.5563   20.8524 C.3     1  UNL1        0.0432
     26 C          -2.8075  -18.5800   20.6227 C.ar    1  UNL1       -0.0234
     27 C          -1.9728  -18.6738   19.3800 C.ar    1  UNL1       -0.0045
     28 C          -0.8574  -17.6975   19.1504 C.ar    1  UNL1       -0.0003
     29 C          -0.5768  -16.6275   20.1635 C.ar    1  UNL1       -0.0003
     30 C          -1.4116  -16.5337   21.4061 C.ar    1  UNL1       -0.0032
     31 C          -2.5270  -17.5100   21.6358 C.ar    1  UNL1       -0.0103
     32 C          -3.3618  -17.4162   22.8785 C.3     1  UNL1        0.0953
     33 N          -4.4772  -18.3925   23.1081 N.3     1  UNL1       -0.2934
     34 H          -5.3327  -17.8452   23.2030 H       1  UNL1        0.1236
@<TRIPOS>BOND
     1    21    22    1
     2    22    15    1
     3    15    16    1
     4    16    17    1
     5    17    18    1
     6    18    14    1
     7    14    13    1
     8    13    12    1
     9    12     1    1
    10     1    23    1
    11    24    23    1
    12    24    25    1
    13    25    26    1
    14    26    27   ar
    15    27    28   ar
    16    28    29   ar
    17    29    30   ar
    18    30    31   ar
    19    31    32    1
    20    32    33    1
    21     2     1    1
    22     2     3    1
    23     3     4    1
    24     4     5    1
    25     5     6    1
    26     6     7   ar
    27     7     8   ar
    28     8     9   ar
    29     9    10   ar
    30    10    11   ar
    31    18    19    1
    32    19    20    1
    33    20    15    1
    34    33    24    1
    35    11     2    1
    36    31    26   ar
    37    11     6   ar
    38    33    34    1
@<TRIPOS>MOLECULE
*****
 34 38 0 0 0
SMALL
GASTEIGER

@<TRIPOS>ATOM
      1 N          -7.1327  -18.9558   21.1065 N.3     1  UNL1       -0.2679
      2 C          -7.9144  -18.1228   22.0786 C.3     1  UNL1        0.0978
      3 C          -7.8956  -16.6269   21.9691 C.3     1  UNL1        0.0224
      4 C          -8.6773  -15.7939   22.9412 C.3     1  UNL1        0.0065
      5 C          -9.4779  -16.4567   24.0227 C.3     1  UNL1        0.0277
      6 C          -9.4967  -17.9526   24.1322 C.ar    1  UNL1       -0.0073
      7 C         -10.2973  -18.6155   25.2137 C.ar    1  UNL1       -0.0015
      8 C         -10.3161  -20.1113   25.3231 C.ar    1  UNL1        0.0203
      9 C          -9.5344  -20.9444   24.3511 C.ar    1  UNL1        0.0985
     10 N          -8.7338  -20.2815   23.2695 N.ar    1  UNL1       -0.2471
     11 C          -8.7150  -18.7856   23.1601 C.ar    1  UNL1        0.0695
     12 C          -7.5195  -18.9783   19.6574 C.3     1  UNL1        0.0738
     13 C          -8.3139  -20.1274   19.1109 C.3     1  UNL1        0.0347
     14 C          -9.7914  -19.9830   18.8966 C.3     1  UNL1        0.0736
     15 N         -12.3078  -17.8338   21.9459 N.3     1  UNL1       -0.2703
     16 C         -11.7123  -17.0760   20.7965 C.3     1  UNL1        0.0897
     17 C         -10.8734  -17.7924   19.7800 C.3     1  UNL1        0.0897
     18 N         -10.6302  -19.2666   19.9130 N.3     1  UNL1       -0.2703
     19 C         -11.2258  -20.0243   21.0624 C.3     1  UNL1        0.0897
     20 C         -12.0646  -19.3079   22.0788 C.3     1  UNL1        0.0897
     21 C         -13.7790  -17.8828   24.0868 C.3     1  UNL1        0.0188
     22 C         -13.1467  -17.1173   22.9624 C.3     1  UNL1        0.0722
     23 C          -5.9641  -19.7663   21.5835 C.3     1  UNL1        0.0886
     24 C          -4.5738  -19.2137   21.4750 C.3     1  UNL1        0.0748
     25 C          -3.9530  -19.0047   20.1256 C.3     1  UNL1        0.0432
     26 C          -2.5626  -18.4522   20.0171 C.ar    1  UNL1       -0.0234
     27 C          -1.9418  -18.2432   18.6677 C.ar    1  UNL1       -0.0045
     28 C          -0.5516  -17.6906   18.5593 C.ar    1  UNL1       -0.0003
     29 C           0.2179  -17.3471   19.8002 C.ar    1  UNL1       -0.0003
     30 C          -0.4029  -17.5561   21.1496 C.ar    1  UNL1       -0.0032
     31 C          -1.7932  -18.1086   21.2580 C.ar    1  UNL1       -0.0103
     32 C          -2.4141  -18.3176   22.6075 C.3     1  UNL1        0.0953
     33 N          -3.8044  -18.8702   22.7159 N.3     1  UNL1       -0.2934
     34 H          -4.3571  -18.1792   23.2232 H       1  UNL1        0.1236
@<TRIPOS>BOND
     1    21    22    1
     2    22    15    1
     3    15    16    1
     4    16    17    1
     5    17    18    1
     6    18    14    1
     7    14    13    1
     8    13    12    1
     9    12     1    1
    10     1    23    1
    11    24    23    1
    12    24    25    1
    13    25    26    1
    14    26    27   ar
    15    27    28   ar
    16    28    29   ar
    17    29    30   ar
    18    30    31   ar
    19    31    32    1
    20    32    33    1
    21     2     1    1
    22     2     3    1
    23     3     4    1
    24     4     5    1
    25     5     6    1
    26     6     7   ar
    27     7     8   ar
    28     8     9   ar
    29     9    10   ar
    30    10    11   ar
    31    18    19    1
    32    19    20    1
    33    20    15    1
    34    33    24    1
    35    11     2    1
    36    31    26   ar
    37    11     6   ar
    38    33    34    1
@<TRIPOS>MOLECULE
*****
 34 38 0 0 0
SMALL
GASTEIGER

@<TRIPOS>ATOM
      1 N          -6.5243  -18.7717   20.8363 N.3     1  UNL1       -0.2679
      2 C          -5.0948  -18.8834   21.2768 C.3     1  UNL1        0.0978
      3 C          -4.7700  -19.4101   22.6432 C.3     1  UNL1        0.0224
      4 C          -3.3404  -19.5218   23.0836 C.3     1  UNL1        0.0065
      5 C          -2.2357  -19.1068   22.1577 C.3     1  UNL1        0.0277
      6 C          -2.5606  -18.5801   20.7913 C.ar    1  UNL1       -0.0073
      7 C          -1.4558  -18.1651   19.8653 C.ar    1  UNL1       -0.0015
      8 C          -1.7807  -17.6384   18.4989 C.ar    1  UNL1        0.0203
      9 C          -3.2102  -17.5267   18.0585 C.ar    1  UNL1        0.0985
     10 N          -4.3149  -17.9417   18.9844 N.ar    1  UNL1       -0.2471
     11 C          -3.9901  -18.4684   20.3509 C.ar    1  UNL1        0.0695
     12 C          -7.1786  -19.9133   20.1161 C.3     1  UNL1        0.0738
     13 C          -8.1084  -19.6431   18.9705 C.3     1  UNL1        0.0347
     14 C          -9.5633  -19.9886   19.0878 C.3     1  UNL1        0.0736
     15 N         -12.1253  -17.9247   22.1581 N.3     1  UNL1       -0.2703
     16 C         -11.7693  -17.2204   20.8826 C.3     1  UNL1        0.0897
     17 C         -10.9152  -17.9083   19.8591 C.3     1  UNL1        0.0897
     18 N         -10.4173  -19.3006   20.1112 N.3     1  UNL1       -0.2703
     19 C         -10.7734  -20.0050   21.3869 C.3     1  UNL1        0.0897
     20 C         -11.6274  -19.3170   22.4103 C.3     1  UNL1        0.0897
     21 C         -13.8851  -18.0415   24.0659 C.3     1  UNL1        0.0188
     22 C         -12.9794  -17.2368   23.1816 C.3     1  UNL1        0.0722
     23 C          -7.2995  -17.5185   21.1161 C.3     1  UNL1        0.0886
     24 C          -7.6223  -17.1361   22.5302 C.3     1  UNL1        0.0748
     25 C          -6.5975  -16.4322   23.3694 C.3     1  UNL1        0.0432
     26 C          -6.9203  -16.0499   24.7835 C.ar    1  UNL1       -0.0234
     27 C          -5.8955  -15.3459   25.6227 C.ar    1  UNL1       -0.0045
     28 C          -6.2183  -14.9636   27.0367 C.ar    1  UNL1       -0.0003
     29 C          -7.5659  -15.2852   27.6116 C.ar    1  UNL1       -0.0003
     30 C          -8.5907  -15.9891   26.7725 C.ar    1  UNL1       -0.0032
     31 C          -8.2679  -16.3715   25.3584 C.ar    1  UNL1       -0.0103
     32 C          -9.2927  -17.0754   24.5192 C.3     1  UNL1        0.0953
     33 N          -8.9699  -17.4577   23.1051 N.3     1  UNL1       -0.2934
     34 H          -9.6606  -16.9989   22.5111 H       1  UNL1        0.1236
@<TRIPOS>BOND
     1    21    22    1
     2    22    15    1
     3    15    16    1
     4    16    17    1
     5    17    18    1
     6    18    14    1
     7    14    13    1
     8    13    12    1
     9    12     1    1
    10     1    23    1
    11    24    23    1
    12    24    25    1
    13    25    26    1
    14    26    27   ar
    15    27    28   ar
    16    28    29   ar
    17    29    30   ar
    18    30    31   ar
    19    31    32    1
    20    32    33    1
    21     2     1    1
    22     2     3    1
    23     3     4    1
    24     4     5    1
    25     5     6    1
    26     6     7   ar
    27     7     8   ar
    28     8     9   ar
    29     9    10   ar
    30    10    11   ar
    31    18    19    1
    32    19    20    1
    33    20    15    1
    34    33    24    1
    35    11     2    1
    36    31    26   ar
    37    11     6   ar
    38    33    34    1
@<TRIPOS>MOLECULE
*****
 34 38 0 0 0
SMALL
GASTEIGER

@<TRIPOS>ATOM
      1 N          -6.8541  -19.2435   21.8496 N.3     1  UNL1       -0.2679
      2 C          -6.0858  -18.2088   22.6172 C.3     1  UNL1        0.0978
      3 C          -4.5880  -18.2717   22.6686 C.3     1  UNL1        0.0224
      4 C          -3.8198  -17.2370   23.4363 C.3     1  UNL1        0.0065
      5 C          -4.5493  -16.1395   24.1525 C.3     1  UNL1        0.0277
      6 C          -6.0471  -16.0766   24.1011 C.ar    1  UNL1       -0.0073
      7 C          -6.7767  -14.9789   24.8174 C.ar    1  UNL1       -0.0015
      8 C          -8.2745  -14.9160   24.7660 C.ar    1  UNL1        0.0203
      9 C          -9.0427  -15.9507   23.9984 C.ar    1  UNL1        0.0985
     10 N          -8.3132  -17.0483   23.2821 N.ar    1  UNL1       -0.2471
     11 C          -6.8153  -17.1112   23.3335 C.ar    1  UNL1        0.0695
     12 C          -6.7694  -19.2829   20.3525 C.3     1  UNL1        0.0738
     13 C          -6.2390  -20.5052   19.6633 C.3     1  UNL1        0.0347
     14 C          -4.8270  -20.9494   19.9053 C.3     1  UNL1        0.0736
     15 N          -1.5221  -17.9055   20.1543 N.3     1  UNL1       -0.2703
     16 C          -2.6313  -17.7285   19.1602 C.3     1  UNL1        0.0897
     17 C          -3.7330  -18.7432   19.0772 C.3     1  UNL1        0.0897
     18 N          -3.7254  -19.9348   19.9882 N.3     1  UNL1       -0.2703
     19 C          -2.6160  -20.1117   20.9823 C.3     1  UNL1        0.0897
     20 C          -1.5144  -19.0971   21.0653 C.3     1  UNL1        0.0897
     21 C           1.0109  -17.3276   20.1331 C.3     1  UNL1        0.0188
     22 C          -0.4204  -16.8908   20.2373 C.3     1  UNL1        0.0722
     23 C          -7.7070  -20.2386   22.5790 C.3     1  UNL1        0.0886
     24 C          -9.0361  -19.8219   23.1357 C.3     1  UNL1        0.0748
     25 C         -10.0741  -19.2254   22.2320 C.3     1  UNL1        0.0432
     26 C         -11.4032  -18.8087   22.7887 C.ar    1  UNL1       -0.0234
     27 C         -12.4411  -18.2121   21.8850 C.ar    1  UNL1       -0.0045
     28 C         -13.7702  -17.7955   22.4417 C.ar    1  UNL1       -0.0003
     29 C         -14.0613  -17.9753   23.9022 C.ar    1  UNL1       -0.0003
     30 C         -13.0233  -18.5719   24.8059 C.ar    1  UNL1       -0.0032
     31 C         -11.6943  -18.9885   24.2492 C.ar    1  UNL1       -0.0103
     32 C         -10.6562  -19.5851   25.1529 C.3     1  UNL1        0.0953
     33 N          -9.3272  -20.0018   24.5962 N.3     1  UNL1       -0.2934
     34 H          -9.2226  -20.9963   24.7969 H       1  UNL1        0.1236
@<TRIPOS>BOND
     1    21    22    1
     2    22    15    1
     3    15    16    1
     4    16    17    1
     5    17    18    1
     6    18    14    1
     7    14    13    1
     8    13    12    1
     9    12     1    1
    10     1    23    1
    11    24    23    1
    12    24    25    1
    13    25    26    1
    14    26    27   ar
    15    27    28   ar
    16    28    29   ar
    17    29    30   ar
    18    30    31   ar
    19    31    32    1
    20    32    33    1
    21     2     1    1
    22     2     3    1
    23     3     4    1
    24     4     5    1
    25     5     6    1
    26     6     7   ar
    27     7     8   ar
    28     8     9   ar
    29     9    10   ar
    30    10    11   ar
    31    18    19    1
    32    19    20    1
    33    20    15    1
    34    33    24    1
    35    11     2    1
    36    31    26   ar
    37    11     6   ar
    38    33    34    1
@<TRIPOS>MOLECULE
*****
 34 38 0 0 0
SMALL
GASTEIGER

@<TRIPOS>ATOM
      1 N           7.1257   -3.9722   23.0439 N.3     1  UNL1       -0.2679
      2 C           7.7289   -5.2013   23.6567 C.3     1  UNL1        0.0978
      3 C           8.5000   -6.1638   22.8029 C.3     1  UNL1        0.0224
      4 C           9.1032   -7.3929   23.4157 C.3     1  UNL1        0.0065
      5 C           8.9353   -7.6594   24.8822 C.3     1  UNL1        0.0277
      6 C           8.1642   -6.6969   25.7360 C.ar    1  UNL1       -0.0073
      7 C           7.9963   -6.9634   27.2026 C.ar    1  UNL1       -0.0015
      8 C           7.2253   -6.0009   28.0563 C.ar    1  UNL1        0.0203
      9 C           6.6221   -4.7718   27.4436 C.ar    1  UNL1        0.0985
     10 N           6.7899   -4.5052   25.9770 N.ar    1  UNL1       -0.2471
     11 C           7.5610   -5.4678   25.1232 C.ar    1  UNL1        0.0695
     12 C           7.9751   -2.7593   22.8046 C.3     1  UNL1        0.0738
     13 C           8.6260   -2.5510   21.4693 C.3     1  UNL1        0.0347
     14 C           7.9544   -3.0449   20.2224 C.3     1  UNL1        0.0736
     15 N           4.4048   -0.8388   18.5541 N.3     1  UNL1       -0.2703
     16 C           5.4626   -0.0931   19.3124 C.3     1  UNL1        0.0897
     17 C           6.6458   -0.8285   19.8685 C.3     1  UNL1        0.0897
     18 N           6.7712   -2.3095   19.6663 N.3     1  UNL1       -0.2703
     19 C           5.7133   -3.0552   18.9080 C.3     1  UNL1        0.0897
     20 C           4.5302   -2.3198   18.3519 C.3     1  UNL1        0.0897
     21 C           3.0046    1.3397   18.3448 C.3     1  UNL1        0.0188
     22 C           3.2215   -0.1034   17.9980 C.3     1  UNL1        0.0722
     23 C           5.6731   -3.9560   22.6704 C.3     1  UNL1        0.0886
     24 C           4.7931   -2.8313   23.1296 C.3     1  UNL1        0.0748
     25 C           3.9399   -2.0945   22.1400 C.3     1  UNL1        0.0432
     26 C           3.0599   -0.9698   22.5991 C.ar    1  UNL1       -0.0234
     27 C           2.2068   -0.2331   21.6096 C.ar    1  UNL1       -0.0045
     28 C           1.3269    0.8915   22.0688 C.ar    1  UNL1       -0.0003
     29 C           1.3000    1.2794   23.5175 C.ar    1  UNL1       -0.0003
     30 C           2.1531    0.5426   24.5071 C.ar    1  UNL1       -0.0032
     31 C           3.0331   -0.5820   24.0479 C.ar    1  UNL1       -0.0103
     32 C           3.8863   -1.3189   25.0375 C.3     1  UNL1        0.0953
     33 N           4.7662   -2.4435   24.5783 N.3     1  UNL1       -0.2934
     34 H           4.4809   -3.2724   25.0998 H       1  UNL1        0.1236
@<TRIPOS>BOND
     1    21    22    1
     2    22    15    1
     3    15    16    1
     4    16    17    1
     5    17    18    1
     6    18    14    1
     7    14    13    1
     8    13    12    1
     9    12     1    1
    10     1    23    1
    11    24    23    1
    12    24    25    1
    13    25    26    1
    14    26    27   ar
    15    27    28   ar
    16    28    29   ar
    17    29    30   ar
    18    30    31   ar
    19    31    32    1
    20    32    33    1
    21     2     1    1
    22     2     3    1
    23     3     4    1
    24     4     5    1
    25     5     6    1
    26     6     7   ar
    27     7     8   ar
    28     8     9   ar
    29     9    10   ar
    30    10    11   ar
    31    18    19    1
    32    19    20    1
    33    20    15    1
    34    33    24    1
    35    11     2    1
    36    31    26   ar
    37    11     6   ar
    38    33    34    1
@<TRIPOS>MOLECULE
*****
 34 38 0 0 0
SMALL
GASTEIGER

@<TRIPOS>ATOM
      1 N          -7.1919  -17.6057   22.5317 N.3     1  UNL1       -0.2679
      2 C          -6.5404  -16.6785   23.5145 C.3     1  UNL1        0.0978
      3 C          -5.2860  -15.9475   23.1379 C.3     1  UNL1        0.0224
      4 C          -4.6344  -15.0203   24.1207 C.3     1  UNL1        0.0065
      5 C          -5.2374  -14.8242   25.4801 C.3     1  UNL1        0.0277
      6 C          -6.4918  -15.5552   25.8567 C.ar    1  UNL1       -0.0073
      7 C          -7.0948  -15.3592   27.2161 C.ar    1  UNL1       -0.0015
      8 C          -8.3492  -16.0902   27.5927 C.ar    1  UNL1        0.0203
      9 C          -9.0007  -17.0174   26.6100 C.ar    1  UNL1        0.0985
     10 N          -8.3978  -17.2135   25.2506 N.ar    1  UNL1       -0.2471
     11 C          -7.1433  -16.4824   24.8739 C.ar    1  UNL1        0.0695
     12 C          -6.8021  -19.0537   22.4946 C.3     1  UNL1        0.0738
     13 C          -6.7869  -19.7931   21.1896 C.3     1  UNL1        0.0347
     14 C          -5.5080  -20.3881   20.6795 C.3     1  UNL1        0.0736
     15 N          -1.8263  -17.8275   20.3074 N.3     1  UNL1       -0.2703
     16 C          -2.8540  -17.8266   19.2149 C.3     1  UNL1        0.0897
     17 C          -4.0813  -18.6802   19.3389 C.3     1  UNL1        0.0897
     18 N          -4.2808  -19.5346   20.5555 N.3     1  UNL1       -0.2703
     19 C          -3.2530  -19.5355   21.6481 C.3     1  UNL1        0.0897
     20 C          -2.0258  -18.6820   21.5240 C.3     1  UNL1        0.0897
     21 C           0.7586  -17.6115   20.1592 C.3     1  UNL1        0.0188
     22 C          -0.5990  -16.9740   20.1834 C.3     1  UNL1        0.0722
     23 C          -8.2333  -17.0850   21.5861 C.3     1  UNL1        0.0886
     24 C          -9.6864  -17.1745   21.9474 C.3     1  UNL1        0.0748
     25 C         -10.1071  -17.9036   23.1889 C.3     1  UNL1        0.0432
     26 C         -11.5602  -17.9931   23.5501 C.ar    1  UNL1       -0.0234
     27 C         -11.9809  -18.7222   24.7917 C.ar    1  UNL1       -0.0045
     28 C         -13.4339  -18.8116   25.1529 C.ar    1  UNL1       -0.0003
     29 C         -14.4664  -18.1720   24.2725 C.ar    1  UNL1       -0.0003
     30 C         -14.0457  -17.4429   23.0310 C.ar    1  UNL1       -0.0032
     31 C         -12.5927  -17.3535   22.6698 C.ar    1  UNL1       -0.0103
     32 C         -12.1719  -16.6243   21.4282 C.3     1  UNL1        0.0953
     33 N         -10.7189  -16.5349   21.0670 N.3     1  UNL1       -0.2934
     34 H         -10.4886  -15.5425   21.0163 H       1  UNL1        0.1236
@<TRIPOS>BOND
     1    21    22    1
     2    22    15    1
     3    15    16    1
     4    16    17    1
     5    17    18    1
     6    18    14    1
     7    14    13    1
     8    13    12    1
     9    12     1    1
    10     1    23    1
    11    24    23    1
    12    24    25    1
    13    25    26    1
    14    26    27   ar
    15    27    28   ar
    16    28    29   ar
    17    29    30   ar
    18    30    31   ar
    19    31    32    1
    20    32    33    1
    21     2     1    1
    22     2     3    1
    23     3     4    1
    24     4     5    1
    25     5     6    1
    26     6     7   ar
    27     7     8   ar
    28     8     9   ar
    29     9    10   ar
    30    10    11   ar
    31    18    19    1
    32    19    20    1
    33    20    15    1
    34    33    24    1
    35    11     2    1
    36    31    26   ar
    37    11     6   ar
    38    33    34    1
@<TRIPOS>MOLECULE
*****
 34 38 0 0 0
SMALL
GASTEIGER

@<TRIPOS>ATOM
      1 N           7.6318   -1.9840   20.5748 N.3     1  UNL1       -0.2679
      2 C           6.2067   -2.3059   20.2351 C.3     1  UNL1        0.0978
      3 C           5.8994   -3.3216   19.1750 C.3     1  UNL1        0.0224
      4 C           4.4743   -3.6435   18.8353 C.3     1  UNL1        0.0065
      5 C           3.3564   -2.9497   19.5557 C.3     1  UNL1        0.0277
      6 C           3.6638   -1.9340   20.6158 C.ar    1  UNL1       -0.0073
      7 C           2.5459   -1.2401   21.3363 C.ar    1  UNL1       -0.0015
      8 C           2.8532   -0.2244   22.3964 C.ar    1  UNL1        0.0203
      9 C           4.2784    0.0975   22.7361 C.ar    1  UNL1        0.0985
     10 N           5.3962   -0.5963   22.0157 N.ar    1  UNL1       -0.2471
     11 C           5.0889   -1.6121   20.9555 C.ar    1  UNL1        0.0695
     12 C           8.1912   -0.6292   20.2562 C.3     1  UNL1        0.0738
     13 C           8.4769   -0.2515   18.8329 C.3     1  UNL1        0.0347
     14 C           7.6675    0.8198   18.1642 C.3     1  UNL1        0.0736
     15 N           3.1736    0.5880   18.1857 N.3     1  UNL1       -0.2703
     16 C           3.9647   -0.2779   17.2507 C.3     1  UNL1        0.0897
     17 C           5.4628   -0.2006   17.2435 C.3     1  UNL1        0.0897
     18 N           6.1696    0.7425   18.1714 N.3     1  UNL1       -0.2703
     19 C           5.3783    1.6084   19.1064 C.3     1  UNL1        0.0897
     20 C           3.8803    1.5311   19.1136 C.3     1  UNL1        0.0897
     21 C           0.8685    1.6488   18.7438 C.3     1  UNL1        0.0188
     22 C           1.6755    0.5107   18.1929 C.3     1  UNL1        0.0722
     23 C           8.4977   -3.0169   21.2331 C.3     1  UNL1        0.0886
     24 C           8.0635   -3.6482   22.5227 C.3     1  UNL1        0.0748
     25 C           8.3531   -5.0966   22.7836 C.3     1  UNL1        0.0432
     26 C           7.9189   -5.7278   24.0733 C.ar    1  UNL1       -0.0234
     27 C           8.2086   -7.1763   24.3342 C.ar    1  UNL1       -0.0045
     28 C           7.7744   -7.8074   25.6238 C.ar    1  UNL1       -0.0003
     29 C           7.0505   -6.9902   26.6524 C.ar    1  UNL1       -0.0003
     30 C           6.7609   -5.5417   26.3915 C.ar    1  UNL1       -0.0032
     31 C           7.1951   -4.9106   25.1019 C.ar    1  UNL1       -0.0103
     32 C           6.9054   -3.4621   24.8409 C.3     1  UNL1        0.0953
     33 N           7.3396   -2.8309   23.5513 N.3     1  UNL1       -0.2934
     34 H           7.9538   -2.0542   23.7958 H       1  UNL1        0.1236
@<TRIPOS>BOND
     1    21    22    1
     2    22    15    1
     3    15    16    1
     4    16    17    1
     5    17    18    1
     6    18    14    1
     7    14    13    1
     8    13    12    1
     9    12     1    1
    10     1    23    1
    11    24    23    1
    12    24    25    1
    13    25    26    1
    14    26    27   ar
    15    27    28   ar
    16    28    29   ar
    17    29    30   ar
    18    30    31   ar
    19    31    32    1
    20    32    33    1
    21     2     1    1
    22     2     3    1
    23     3     4    1
    24     4     5    1
    25     5     6    1
    26     6     7   ar
    27     7     8   ar
    28     8     9   ar
    29     9    10   ar
    30    10    11   ar
    31    18    19    1
    32    19    20    1
    33    20    15    1
    34    33    24    1
    35    11     2    1
    36    31    26   ar
    37    11     6   ar
    38    33    34    1
