@<TRIPOS>MOLECULE
*****
 30 32 0 0 0
SMALL
GASTEIGER

@<TRIPOS>ATOM
      1 C          -9.6089  -18.0570   20.8131 C.3     1  UNL1        0.0926
      2 C         -10.6807  -18.2169   19.7759 C.3     1  UNL1        0.0887
      3 N         -11.8191  -17.3115   20.1423 N.3     1  UNL1       -0.2958
      4 C         -11.4509  -16.5919   21.4059 C.3     1  UNL1        0.0747
      5 C         -10.0849  -17.0527   21.8205 C.3     1  UNL1        0.0573
      6 H         -12.6649  -17.8617   20.2911 H       1  UNL1        0.1233
      7 C          -9.3279  -16.5904   23.0301 C.ar    1  UNL1       -0.0195
      8 C          -8.1618  -15.6598   22.8746 C.ar    1  UNL1       -0.0042
      9 C          -7.4048  -15.1974   24.0842 C.ar    1  UNL1        0.0035
     10 C          -7.8139  -15.6656   25.4493 C.ar    1  UNL1        0.0714
     11 C          -8.9800  -16.5961   25.6048 C.ar    1  UNL1        0.0035
     12 C          -9.7370  -17.0585   24.3952 C.ar    1  UNL1       -0.0042
     13 C          -7.0569  -15.2032   26.6589 C.3     1  UNL1        0.4186
     14 F          -6.3000  -14.7409   27.8686 F       1  UNL1       -0.1659
     15 F          -5.7660  -15.3610   25.9114 F       1  UNL1       -0.1659
     16 F          -8.3478  -15.0455   27.4065 F       1  UNL1       -0.1659
     17 C          -8.0204  -19.8059   21.8938 C.2     1  UNL1        0.2269
     18 O          -9.0651  -20.1183   22.9239 O.2     1  UNL1       -0.2747
     19 N          -8.2923  -18.7753   20.8384 N.am    1  UNL1       -0.3040
     20 H          -7.6066  -18.5703   20.1624 H       1  UNL1        0.1494
     21 C          -6.7038  -20.5241   21.9191 C.3     1  UNL1        0.1113
     22 C          -2.9097  -18.3021   20.9608 C.ar    1  UNL1        0.0479
     23 C          -3.5654  -19.1529   19.9138 C.ar    1  UNL1        0.0142
     24 C          -4.8301  -19.8936   20.2333 C.ar    1  UNL1       -0.0025
     25 C          -5.4391  -19.7835   21.5996 C.ar    1  UNL1       -0.0130
     26 C          -4.7834  -18.9326   22.6466 C.ar    1  UNL1       -0.0025
     27 C          -3.5188  -18.1920   22.3272 C.ar    1  UNL1        0.0142
     28 C          -1.4052  -16.2006   21.2250 C.3     1  UNL1        0.1122
     29 N          -1.6451  -17.5614   20.6414 N.pl3   1  UNL1       -0.3041
     30 C          -0.6204  -18.1816   19.7385 C.3     1  UNL1        0.1122
@<TRIPOS>BOND
     1    28    29    1
     2    29    30    1
     3    29    22    1
     4    22    23   ar
     5    23    24   ar
     6    24    25   ar
     7    25    21    1
     8    21    17    1
     9    17    18    2
    10    17    19   am
    11     1    19    1
    12     1     2    1
    13     2     3    1
    14     3     4    1
    15     4     5    1
    16     5     7    1
    17     7     8   ar
    18     8     9   ar
    19     9    10   ar
    20    10    13    1
    21    13    14    1
    22    13    15    1
    23    13    16    1
    24    10    11   ar
    25    11    12   ar
    26    25    26   ar
    27    26    27   ar
    28    27    22   ar
    29     5     1    1
    30    12     7   ar
    31    19    20    1
    32     3     6    1
@<TRIPOS>MOLECULE
*****
 30 32 0 0 0
SMALL
GASTEIGER

@<TRIPOS>ATOM
      1 C         -11.4623   -6.6880   18.9736 C.3     1  UNL1        0.0926
      2 C         -10.0036   -6.9953   18.8068 C.3     1  UNL1        0.0887
      3 N          -9.2563   -5.6950   18.7791 N.3     1  UNL1       -0.2958
      4 C         -10.2532   -4.5842   18.9288 C.3     1  UNL1        0.0747
      5 C         -11.6165   -5.1979   19.0490 C.3     1  UNL1        0.0573
      6 H          -8.7615   -5.5990   17.8923 H       1  UNL1        0.1233
      7 C         -12.9075   -4.4524   19.2153 C.ar    1  UNL1       -0.0195
      8 C         -13.3140   -3.4218   18.2040 C.ar    1  UNL1       -0.0042
      9 C         -14.6049   -2.6762   18.3703 C.ar    1  UNL1        0.0035
     10 C         -15.4893   -2.9612   19.5479 C.ar    1  UNL1        0.0714
     11 C         -15.0828   -3.9918   20.5591 C.ar    1  UNL1        0.0035
     12 C         -13.7919   -4.7373   20.3928 C.ar    1  UNL1       -0.0042
     13 C         -16.7803   -2.2157   19.7142 C.3     1  UNL1        0.4186
     14 F         -18.0711   -1.4701   19.8806 F       1  UNL1       -0.1659
     15 F         -17.5377   -3.4226   19.2456 F       1  UNL1       -0.1659
     16 F         -16.0228   -1.0087   20.1828 F       1  UNL1       -0.1659
     17 C         -13.3933   -8.0007   17.8342 C.2     1  UNL1        0.2269
     18 O         -13.1050   -7.3008   16.5392 O.2     1  UNL1       -0.2747
     19 N         -12.5720   -7.6944   19.0514 N.am    1  UNL1       -0.3040
     20 H         -12.7613   -8.1538   19.9013 H       1  UNL1        0.1494
     21 C         -14.5029   -9.0070   17.9120 C.3     1  UNL1        0.1113
     22 C         -18.4742   -7.8450   19.6810 C.ar    1  UNL1        0.0479
     23 C         -18.1973   -9.2784   19.3364 C.ar    1  UNL1        0.0142
     24 C         -16.8735   -9.6657   18.7467 C.ar    1  UNL1       -0.0025
     25 C         -15.8267   -8.6197   18.5017 C.ar    1  UNL1       -0.0130
     26 C         -16.1037   -7.1863   18.8464 C.ar    1  UNL1       -0.0025
     27 C         -17.4273   -6.7990   19.4360 C.ar    1  UNL1        0.0142
     28 C         -20.4628   -6.1814   19.8475 C.3     1  UNL1        0.1122
     29 N         -19.7979   -7.4577   20.2707 N.pl3   1  UNL1       -0.3041
     30 C         -20.4567   -8.3465   21.2835 C.3     1  UNL1        0.1122
@<TRIPOS>BOND
     1    28    29    1
     2    29    30    1
     3    29    22    1
     4    22    23   ar
     5    23    24   ar
     6    24    25   ar
     7    25    21    1
     8    21    17    1
     9    17    18    2
    10    17    19   am
    11     1    19    1
    12     1     2    1
    13     2     3    1
    14     3     4    1
    15     4     5    1
    16     5     7    1
    17     7     8   ar
    18     8     9   ar
    19     9    10   ar
    20    10    13    1
    21    13    14    1
    22    13    15    1
    23    13    16    1
    24    10    11   ar
    25    11    12   ar
    26    25    26   ar
    27    26    27   ar
    28    27    22   ar
    29     5     1    1
    30    12     7   ar
    31    19    20    1
    32     3     6    1
@<TRIPOS>MOLECULE
*****
 30 32 0 0 0
SMALL
GASTEIGER

@<TRIPOS>ATOM
      1 C          -7.1352  -15.6429   24.5207 C.3     1  UNL1        0.0926
      2 C          -7.6329  -15.0909   25.8236 C.3     1  UNL1        0.0887
      3 N          -6.5055  -15.1466   26.8115 N.3     1  UNL1       -0.2958
      4 C          -5.3110  -15.7330   26.1190 C.3     1  UNL1        0.0747
      5 C          -5.7002  -16.0397   24.7033 C.3     1  UNL1        0.0573
      6 H          -6.7684  -15.7324   27.6040 H       1  UNL1        0.1233
      7 C          -4.8106  -16.6382   23.6543 C.ar    1  UNL1       -0.0195
      8 C          -3.6793  -15.8354   23.0833 C.ar    1  UNL1       -0.0042
      9 C          -2.7897  -16.4338   22.0344 C.ar    1  UNL1        0.0035
     10 C          -3.0312  -17.8350   21.5563 C.ar    1  UNL1        0.0714
     11 C          -4.1624  -18.6377   22.1273 C.ar    1  UNL1        0.0035
     12 C          -5.0520  -18.0392   23.1762 C.ar    1  UNL1       -0.0042
     13 C          -2.1415  -18.4335   20.5073 C.3     1  UNL1        0.4186
     14 F          -1.2519  -19.0318   19.4583 F       1  UNL1       -0.1659
     15 F          -2.1182  -19.7276   21.2654 F       1  UNL1       -0.1659
     16 F          -2.1649  -17.1393   19.7492 F       1  UNL1       -0.1659
     17 C          -9.0979  -16.7176   23.2004 C.2     1  UNL1        0.2269
     18 O          -9.4660  -17.5283   24.4076 O.2     1  UNL1       -0.2747
     19 N          -7.9325  -15.7749   23.2570 N.am    1  UNL1       -0.3040
     20 H          -7.6910  -15.2428   22.4647 H       1  UNL1        0.1494
     21 C          -9.8952  -16.8495   21.9368 C.3     1  UNL1        0.1113
     22 C          -8.9510  -20.1380   19.0136 C.ar    1  UNL1        0.0479
     23 C         -10.3076  -19.4980   19.0100 C.ar    1  UNL1        0.0142
     24 C         -10.6223  -18.4018   19.9844 C.ar    1  UNL1       -0.0025
     25 C          -9.5804  -17.9457   20.9624 C.ar    1  UNL1       -0.0130
     26 C          -8.2238  -18.5857   20.9660 C.ar    1  UNL1       -0.0025
     27 C          -7.9091  -19.6818   19.9917 C.ar    1  UNL1        0.0142
     28 C          -9.3598  -21.3018   16.7271 C.3     1  UNL1        0.1122
     29 N          -8.6362  -21.2341   18.0393 N.pl3   1  UNL1       -0.3041
     30 C          -7.5979  -22.2626   18.3771 C.3     1  UNL1        0.1122
@<TRIPOS>BOND
     1    28    29    1
     2    29    30    1
     3    29    22    1
     4    22    23   ar
     5    23    24   ar
     6    24    25   ar
     7    25    21    1
     8    21    17    1
     9    17    18    2
    10    17    19   am
    11     1    19    1
    12     1     2    1
    13     2     3    1
    14     3     4    1
    15     4     5    1
    16     5     7    1
    17     7     8   ar
    18     8     9   ar
    19     9    10   ar
    20    10    13    1
    21    13    14    1
    22    13    15    1
    23    13    16    1
    24    10    11   ar
    25    11    12   ar
    26    25    26   ar
    27    26    27   ar
    28    27    22   ar
    29     5     1    1
    30    12     7   ar
    31    19    20    1
    32     3     6    1
@<TRIPOS>MOLECULE
*****
 30 32 0 0 0
SMALL
GASTEIGER

@<TRIPOS>ATOM
      1 C          -9.4253  -19.1925   20.0287 C.3     1  UNL1        0.0926
      2 C         -10.3782  -19.7695   19.0242 C.3     1  UNL1        0.0887
      3 N          -9.5868  -20.6014   18.0590 N.3     1  UNL1       -0.2958
      4 C          -8.1447  -20.5385   18.4671 C.3     1  UNL1        0.0747
      5 C          -8.0449  -19.6678   19.6843 C.3     1  UNL1        0.0573
      6 H          -9.6956  -20.2329   17.1142 H       1  UNL1        0.1233
      7 C          -6.7858  -19.3314   20.4269 C.ar    1  UNL1       -0.0195
      8 C          -5.4589  -19.4218   19.7329 C.ar    1  UNL1       -0.0042
      9 C          -4.1998  -19.0854   20.4755 C.ar    1  UNL1        0.0035
     10 C          -4.2674  -18.6586   21.9119 C.ar    1  UNL1        0.0714
     11 C          -5.5941  -18.5682   22.6058 C.ar    1  UNL1        0.0035
     12 C          -6.8533  -18.9046   21.8632 C.ar    1  UNL1       -0.0042
     13 C          -3.0082  -18.3222   22.6544 C.3     1  UNL1        0.4186
     14 F          -1.7491  -17.9857   23.3970 F       1  UNL1       -0.1659
     15 F          -2.3337  -19.5194   22.0531 F       1  UNL1       -0.1659
     16 F          -3.6828  -17.1249   23.2559 F       1  UNL1       -0.1659
     17 C         -10.5935  -18.8359   22.3218 C.2     1  UNL1        0.2269
     18 O         -11.0344  -20.2696   22.3201 O.2     1  UNL1       -0.2747
     19 N          -9.7890  -18.2973   21.1761 N.am    1  UNL1       -0.3040
     20 H          -9.4996  -17.3563   21.1772 H       1  UNL1        0.1494
     21 C         -10.9571  -17.9407   23.4691 C.3     1  UNL1        0.1113
     22 C          -7.7239  -15.9118   25.8525 C.ar    1  UNL1        0.0479
     23 C          -8.0170  -15.4626   24.4517 C.ar    1  UNL1        0.0142
     24 C          -9.0948  -16.1390   23.6572 C.ar    1  UNL1       -0.0025
     25 C          -9.8794  -17.2644   24.2636 C.ar    1  UNL1       -0.0130
     26 C          -9.5863  -17.7136   25.6644 C.ar    1  UNL1       -0.0025
     27 C          -8.5086  -17.0374   26.4589 C.ar    1  UNL1        0.0142
     28 C          -5.2489  -15.1641   26.1065 C.3     1  UNL1        0.1122
     29 N          -6.6463  -15.2356   26.6470 N.pl3   1  UNL1       -0.3041
     30 C          -6.9660  -14.6308   27.9819 C.3     1  UNL1        0.1122
@<TRIPOS>BOND
     1    28    29    1
     2    29    30    1
     3    29    22    1
     4    22    23   ar
     5    23    24   ar
     6    24    25   ar
     7    25    21    1
     8    21    17    1
     9    17    18    2
    10    17    19   am
    11     1    19    1
    12     1     2    1
    13     2     3    1
    14     3     4    1
    15     4     5    1
    16     5     7    1
    17     7     8   ar
    18     8     9   ar
    19     9    10   ar
    20    10    13    1
    21    13    14    1
    22    13    15    1
    23    13    16    1
    24    10    11   ar
    25    11    12   ar
    26    25    26   ar
    27    26    27   ar
    28    27    22   ar
    29     5     1    1
    30    12     7   ar
    31    19    20    1
    32     3     6    1
@<TRIPOS>MOLECULE
*****
 30 32 0 0 0
SMALL
GASTEIGER

@<TRIPOS>ATOM
      1 C         -11.6028   -5.3750   19.1604 C.3     1  UNL1        0.0926
      2 C         -10.1250   -5.1327   19.0731 C.3     1  UNL1        0.0887
      3 N          -9.9036   -3.6533   18.9617 N.3     1  UNL1       -0.2958
      4 C         -11.2446   -2.9813   18.9801 C.3     1  UNL1        0.0747
      5 C         -12.2947   -4.0453   19.1029 C.3     1  UNL1        0.0573
      6 H          -9.4216   -3.4403   18.0883 H       1  UNL1        0.1233
      7 C         -13.7765   -3.8194   19.1585 C.ar    1  UNL1       -0.0195
      8 C         -14.5363   -4.1325   20.4134 C.ar    1  UNL1       -0.0042
      9 C         -16.0182   -3.9065   20.4690 C.ar    1  UNL1        0.0035
     10 C         -16.7402   -3.3674   19.2697 C.ar    1  UNL1        0.0714
     11 C         -15.9804   -3.0543   18.0149 C.ar    1  UNL1        0.0035
     12 C         -14.4986   -3.2803   17.9594 C.ar    1  UNL1       -0.0042
     13 C         -18.2221   -3.1415   19.3253 C.3     1  UNL1        0.4186
     14 F         -19.7039   -2.9156   19.3808 F       1  UNL1       -0.1659
     15 F         -18.0168   -2.0412   20.3240 F       1  UNL1       -0.1659
     16 F         -18.4273   -4.2418   18.3266 F       1  UNL1       -0.1659
     17 C         -13.0623   -7.2639   18.1347 C.2     1  UNL1        0.2269
     18 O         -13.1849   -6.4784   16.8627 O.2     1  UNL1       -0.2747
     19 N         -12.2713   -6.7122   19.2835 N.am    1  UNL1       -0.3040
     20 H         -12.1908   -7.2277   20.1184 H       1  UNL1        0.1494
     21 C         -13.7307   -8.6010   18.2579 C.3     1  UNL1        0.1113
     22 C         -18.0854   -8.8463   19.3657 C.ar    1  UNL1        0.0479
     23 C         -17.2997   -7.6082   19.6817 C.ar    1  UNL1        0.0142
     24 C         -15.8481   -7.5265   19.3124 C.ar    1  UNL1       -0.0025
     25 C         -15.1823   -8.6828   18.6272 C.ar    1  UNL1       -0.0130
     26 C         -15.9680   -9.9208   18.3112 C.ar    1  UNL1       -0.0025
     27 C         -17.4195  -10.0026   18.6804 C.ar    1  UNL1        0.0142
     28 C         -20.4502   -9.8527   18.9863 C.3     1  UNL1        0.1122
     29 N         -19.5369   -8.9280   19.7350 N.pl3   1  UNL1       -0.3041
     30 C         -20.0750   -8.0851   20.8530 C.3     1  UNL1        0.1122
@<TRIPOS>BOND
     1    28    29    1
     2    29    30    1
     3    29    22    1
     4    22    23   ar
     5    23    24   ar
     6    24    25   ar
     7    25    21    1
     8    21    17    1
     9    17    18    2
    10    17    19   am
    11     1    19    1
    12     1     2    1
    13     2     3    1
    14     3     4    1
    15     4     5    1
    16     5     7    1
    17     7     8   ar
    18     8     9   ar
    19     9    10   ar
    20    10    13    1
    21    13    14    1
    22    13    15    1
    23    13    16    1
    24    10    11   ar
    25    11    12   ar
    26    25    26   ar
    27    26    27   ar
    28    27    22   ar
    29     5     1    1
    30    12     7   ar
    31    19    20    1
    32     3     6    1
@<TRIPOS>MOLECULE
*****
 30 32 0 0 0
SMALL
GASTEIGER

@<TRIPOS>ATOM
      1 C          -9.0464  -19.3902   19.9614 C.3     1  UNL1        0.0926
      2 C         -10.0865  -19.9770   19.0537 C.3     1  UNL1        0.0887
      3 N          -9.4017  -20.9295   18.1189 N.3     1  UNL1       -0.2958
      4 C          -7.9384  -20.9314   18.4489 C.3     1  UNL1        0.0747
      5 C          -7.7189  -19.9800   19.5876 C.3     1  UNL1        0.0573
      6 H          -9.5387  -20.6267   17.1546 H       1  UNL1        0.1233
      7 C          -6.4029  -19.6724   20.2383 C.ar    1  UNL1       -0.0195
      8 C          -6.2537  -19.7993   21.7256 C.ar    1  UNL1       -0.0042
      9 C          -4.9377  -19.4918   22.3762 C.ar    1  UNL1        0.0035
     10 C          -3.7707  -19.0574   21.5398 C.ar    1  UNL1        0.0714
     11 C          -3.9199  -18.9305   20.0527 C.ar    1  UNL1        0.0035
     12 C          -5.2359  -19.2380   19.4020 C.ar    1  UNL1       -0.0042
     13 C          -2.4547  -18.7499   22.1905 C.3     1  UNL1        0.4186
     14 F          -1.1386  -18.4424   22.8411 F       1  UNL1       -0.1659
     15 F          -3.1741  -18.1530   23.3636 F       1  UNL1       -0.1659
     16 F          -1.7352  -19.3468   21.0173 F       1  UNL1       -0.1659
     17 C         -10.2318  -17.2439   20.8208 C.2     1  UNL1        0.2269
     18 O         -10.9280  -17.0995   19.5000 O.2     1  UNL1       -0.2747
     19 N          -9.2911  -18.3892   21.0515 N.am    1  UNL1       -0.3040
     20 H          -8.8342  -18.4839   21.9184 H       1  UNL1        0.1494
     21 C         -10.4764  -16.2430   21.9109 C.3     1  UNL1        0.1113
     22 C          -7.4278  -15.6783   25.1725 C.ar    1  UNL1        0.0479
     23 C          -8.7442  -16.3281   25.4806 C.ar    1  UNL1        0.0142
     24 C          -9.7604  -16.5163   24.3934 C.ar    1  UNL1       -0.0025
     25 C          -9.4602  -16.0548   22.9981 C.ar    1  UNL1       -0.0130
     26 C          -8.1438  -15.4050   22.6900 C.ar    1  UNL1       -0.0025
     27 C          -7.1276  -15.2168   23.7771 C.ar    1  UNL1        0.0142
     28 C          -6.8153  -15.6357   27.6969 C.3     1  UNL1        0.1122
     29 N          -6.4116  -15.4901   26.2596 N.pl3   1  UNL1       -0.3041
     30 C          -4.9918  -15.1562   25.9095 C.3     1  UNL1        0.1122
@<TRIPOS>BOND
     1    28    29    1
     2    29    30    1
     3    29    22    1
     4    22    23   ar
     5    23    24   ar
     6    24    25   ar
     7    25    21    1
     8    21    17    1
     9    17    18    2
    10    17    19   am
    11     1    19    1
    12     1     2    1
    13     2     3    1
    14     3     4    1
    15     4     5    1
    16     5     7    1
    17     7     8   ar
    18     8     9   ar
    19     9    10   ar
    20    10    13    1
    21    13    14    1
    22    13    15    1
    23    13    16    1
    24    10    11   ar
    25    11    12   ar
    26    25    26   ar
    27    26    27   ar
    28    27    22   ar
    29     5     1    1
    30    12     7   ar
    31    19    20    1
    32     3     6    1
@<TRIPOS>MOLECULE
*****
 30 32 0 0 0
SMALL
GASTEIGER

@<TRIPOS>ATOM
      1 C          -7.1140  -15.8810   24.4272 C.3     1  UNL1        0.0926
      2 C          -7.1561  -14.7953   25.4614 C.3     1  UNL1        0.0887
      3 N          -5.7499  -14.5262   25.9086 N.3     1  UNL1       -0.2958
      4 C          -4.8385  -15.4455   25.1507 C.3     1  UNL1        0.0747
      5 C          -5.6816  -16.2828   24.2352 C.3     1  UNL1        0.0573
      6 H          -5.6651  -14.7026   26.9096 H       1  UNL1        0.1233
      7 C          -5.1804  -17.3369   23.2931 C.ar    1  UNL1       -0.0195
      8 C          -6.1541  -18.1988   22.5452 C.ar    1  UNL1       -0.0042
      9 C          -5.6528  -19.2529   21.6031 C.ar    1  UNL1        0.0035
     10 C          -4.1779  -19.4452   21.4087 C.ar    1  UNL1        0.0714
     11 C          -3.2043  -18.5833   22.1566 C.ar    1  UNL1        0.0035
     12 C          -3.7055  -17.5292   23.0987 C.ar    1  UNL1       -0.0042
     13 C          -3.6766  -20.4992   20.4666 C.3     1  UNL1        0.4186
     14 F          -3.1752  -21.5533   19.5245 F       1  UNL1       -0.1659
     15 F          -5.0763  -21.0099   20.2933 F       1  UNL1       -0.1659
     16 F          -2.2768  -19.9885   20.6400 F       1  UNL1       -0.1659
     17 C          -8.5891  -16.0596   22.2960 C.2     1  UNL1        0.2269
     18 O          -7.6990  -15.0749   21.5974 O.2     1  UNL1       -0.2747
     19 N          -8.2966  -16.4627   23.7109 N.am    1  UNL1       -0.3040
     20 H          -8.8808  -17.1090   24.1694 H       1  UNL1        0.1494
     21 C          -9.7717  -16.6413   21.5797 C.3     1  UNL1        0.1113
     22 C         -13.3829  -17.9730   23.9113 C.ar    1  UNL1        0.0479
     23 C         -12.1343  -18.8042   23.9229 C.ar    1  UNL1        0.0142
     24 C         -10.9305  -18.3603   23.1457 C.ar    1  UNL1       -0.0025
     25 C         -10.9754  -17.0852   22.3569 C.ar    1  UNL1       -0.0130
     26 C         -12.2240  -16.2541   22.3453 C.ar    1  UNL1       -0.0025
     27 C         -13.4277  -16.6979   23.1225 C.ar    1  UNL1        0.0142
     28 C         -15.8571  -18.7632   23.9703 C.3     1  UNL1        0.1122
     29 N         -14.5866  -18.4169   24.6885 N.pl3   1  UNL1       -0.3041
     30 C         -14.5198  -18.5144   26.1838 C.3     1  UNL1        0.1122
@<TRIPOS>BOND
     1    28    29    1
     2    29    30    1
     3    29    22    1
     4    22    23   ar
     5    23    24   ar
     6    24    25   ar
     7    25    21    1
     8    21    17    1
     9    17    18    2
    10    17    19   am
    11     1    19    1
    12     1     2    1
    13     2     3    1
    14     3     4    1
    15     4     5    1
    16     5     7    1
    17     7     8   ar
    18     8     9   ar
    19     9    10   ar
    20    10    13    1
    21    13    14    1
    22    13    15    1
    23    13    16    1
    24    10    11   ar
    25    11    12   ar
    26    25    26   ar
    27    26    27   ar
    28    27    22   ar
    29     5     1    1
    30    12     7   ar
    31    19    20    1
    32     3     6    1
@<TRIPOS>MOLECULE
*****
 30 32 0 0 0
SMALL
GASTEIGER

@<TRIPOS>ATOM
      1 C           4.7216   -1.7900   27.7934 C.3     1  UNL1        0.0926
      2 C           4.5743   -0.9231   29.0087 C.3     1  UNL1        0.0887
      3 N           5.7110   -1.2304   29.9378 N.3     1  UNL1       -0.2958
      4 C           6.5609   -2.2872   29.2968 C.3     1  UNL1        0.0747
      5 C           5.9494   -2.6330   27.9715 C.3     1  UNL1        0.0573
      6 H           5.3480   -1.5711   30.8281 H       1  UNL1        0.1233
      7 C           6.4737   -3.6443   26.9956 C.ar    1  UNL1       -0.0195
      8 C           6.9988   -3.1985   25.6630 C.ar    1  UNL1       -0.0042
      9 C           7.5231   -4.2098   24.6871 C.ar    1  UNL1        0.0035
     10 C           7.5223   -5.6669   25.0437 C.ar    1  UNL1        0.0714
     11 C           6.9972   -6.1126   26.3762 C.ar    1  UNL1        0.0035
     12 C           6.4729   -5.1013   27.3521 C.ar    1  UNL1       -0.0042
     13 C           8.0466   -6.6782   24.0678 C.3     1  UNL1        0.4186
     14 F           8.5709   -7.6894   23.0918 F       1  UNL1       -0.1659
     15 F           7.6667   -7.7830   25.0086 F       1  UNL1       -0.1659
     16 F           8.4265   -5.5733   23.1269 F       1  UNL1       -0.1659
     17 C           4.0814   -0.9280   25.4275 C.2     1  UNL1        0.2269
     18 O           5.2796   -0.0256   25.4321 O.2     1  UNL1       -0.2747
     19 N           3.8024   -1.8102   26.6081 N.am    1  UNL1       -0.3040
     20 H           3.0160   -2.4025   26.6051 H       1  UNL1        0.1494
     21 C           3.1622   -0.9483   24.2424 C.3     1  UNL1        0.1113
     22 C           4.4640   -2.9325   20.4189 C.ar    1  UNL1        0.0479
     23 C           4.9215   -3.4766   21.7397 C.ar    1  UNL1        0.0142
     24 C           4.4876   -2.8152   23.0142 C.ar    1  UNL1       -0.0025
     25 C           3.5962   -1.6097   22.9679 C.ar    1  UNL1       -0.0130
     26 C           3.1387   -1.0656   21.6470 C.ar    1  UNL1       -0.0025
     27 C           3.5726   -1.7269   20.3726 C.ar    1  UNL1        0.0142
     28 C           4.5322   -5.0242   18.8795 C.3     1  UNL1        0.1122
     29 N           4.8979   -3.5938   19.1444 N.pl3   1  UNL1       -0.3041
     30 C           5.6976   -2.8248   18.1349 C.3     1  UNL1        0.1122
@<TRIPOS>BOND
     1    28    29    1
     2    29    30    1
     3    29    22    1
     4    22    23   ar
     5    23    24   ar
     6    24    25   ar
     7    25    21    1
     8    21    17    1
     9    17    18    2
    10    17    19   am
    11     1    19    1
    12     1     2    1
    13     2     3    1
    14     3     4    1
    15     4     5    1
    16     5     7    1
    17     7     8   ar
    18     8     9   ar
    19     9    10   ar
    20    10    13    1
    21    13    14    1
    22    13    15    1
    23    13    16    1
    24    10    11   ar
    25    11    12   ar
    26    25    26   ar
    27    26    27   ar
    28    27    22   ar
    29     5     1    1
    30    12     7   ar
    31    19    20    1
    32     3     6    1
