@<TRIPOS>MOLECULE
*****
 32 34 0 0 0
SMALL
GASTEIGER

@<TRIPOS>ATOM
      1 C          -6.5362  -17.5924   22.8582 C.ar    1  UNL1        0.1743
      2 N          -7.9726  -17.8896   22.5445 N.ar    1  UNL1       -0.2173
      3 C          -9.0600  -17.0410   23.1337 C.ar    1  UNL1        0.1834
      4 N          -8.7111  -15.8951   24.0366 N.ar    1  UNL1       -0.1885
      5 C          -7.2747  -15.5979   24.3503 C.ar    1  UNL1        0.2596
      6 O          -6.9258  -14.4521   25.2532 O.3     1  UNL1       -0.4898
      7 C          -6.1873  -16.4466   23.7611 C.ar    1  UNL1        0.2098
      8 O          -4.7508  -16.1494   24.0748 O.3     1  UNL1       -0.5007
      9 H          -7.6051  -13.9219   25.6213 H       1  UNL1        0.2938
     10 H          -4.5328  -15.4336   24.6388 H       1  UNL1        0.2924
     11 C         -10.4965  -17.3381   22.8200 C.ar    1  UNL1        0.1170
     12 C         -11.4337  -17.7509   23.9161 C.ar    1  UNL1        0.0261
     13 C         -12.8700  -18.0480   23.6025 C.ar    1  UNL1        0.0746
     14 C         -13.3694  -17.9325   22.1927 C.ar    1  UNL1        0.0245
     15 C         -12.4322  -17.5198   21.0966 C.ar    1  UNL1        0.0989
     16 N         -10.9958  -17.2226   21.4103 N.ar    1  UNL1       -0.2408
     17 C         -13.8072  -18.4607   24.6986 C.3     1  UNL1        0.4187
     18 F         -14.7443  -18.8735   25.7947 F       1  UNL1       -0.1659
     19 F         -14.9774  -18.0719   23.8445 F       1  UNL1       -0.1659
     20 F         -12.6370  -18.8496   25.5526 F       1  UNL1       -0.1659
     21 N          -5.4458  -18.7429   20.7996 N.am    1  UNL1       -0.3012
     22 C          -5.4487  -18.4411   22.2689 C.2     1  UNL1        0.2668
     23 O          -4.3642  -18.9880   23.1491 O.2     1  UNL1       -0.2684
     24 H          -6.1576  -18.3839   20.2220 H       1  UNL1        0.1497
     25 C          -4.6061  -21.0456   19.9379 C.3     1  UNL1        0.0213
     26 C          -4.3583  -19.5916   20.2104 C.3     1  UNL1        0.0719
     27 C          -3.0229  -18.9861   19.8937 C.3     1  UNL1        0.0180
     28 C          -2.8340  -18.2080   18.6254 C.3     1  UNL1        0.0016
     29 C          -1.4986  -17.6026   18.3087 C.3     1  UNL1        0.0001
     30 C          -0.3522  -17.7753   19.2604 C.3     1  UNL1        0.0000
     31 C          -0.5411  -18.5534   20.5289 C.3     1  UNL1        0.0001
     32 C          -1.8764  -19.1588   20.8455 C.3     1  UNL1        0.0016
@<TRIPOS>BOND
     1    26    25    1
     2    26    21    1
     3    21    22   am
     4    22    23    2
     5    22     1    1
     6     1     2   ar
     7     2     3   ar
     8     3    11    1
     9    11    12   ar
    10    12    13   ar
    11    13    17    1
    12    17    18    1
    13    17    19    1
    14    17    20    1
    15    13    14   ar
    16    14    15   ar
    17    15    16   ar
    18     3     4   ar
    19     4     5   ar
    20     5     6    1
    21     5     7   ar
    22     7     8    1
    23    26    27    1
    24    27    28    1
    25    28    29    1
    26    29    30    1
    27    30    31    1
    28    31    32    1
    29     7     1   ar
    30    32    27    1
    31    16    11   ar
    32    21    24    1
    33     6     9    1
    34     8    10    1
@<TRIPOS>MOLECULE
*****
 32 34 0 0 0
SMALL
GASTEIGER

@<TRIPOS>ATOM
      1 C          -7.4029  -16.5226   23.4178 C.ar    1  UNL1        0.1743
      2 N          -6.3504  -17.3103   22.6955 N.ar    1  UNL1       -0.2173
      3 C          -4.9032  -17.1226   23.0423 C.ar    1  UNL1        0.1834
      4 N          -4.5085  -16.1473   24.1114 N.ar    1  UNL1       -0.1885
      5 C          -5.5611  -15.3596   24.8337 C.ar    1  UNL1        0.2596
      6 O          -5.1664  -14.3843   25.9028 O.3     1  UNL1       -0.4898
      7 C          -7.0083  -15.5473   24.4868 C.ar    1  UNL1        0.2098
      8 O          -8.0609  -14.7596   25.2091 O.3     1  UNL1       -0.5007
      9 H          -4.2624  -14.2670   26.1194 H       1  UNL1        0.2938
     10 H          -7.8144  -14.1503   25.8769 H       1  UNL1        0.2924
     11 C          -3.8506  -17.9103   22.3201 C.ar    1  UNL1        0.1170
     12 C          -2.6718  -17.2078   21.7143 C.ar    1  UNL1        0.0261
     13 C          -1.6192  -17.9954   20.9921 C.ar    1  UNL1        0.0746
     14 C          -1.7453  -19.4856   20.8756 C.ar    1  UNL1        0.0245
     15 C          -2.9241  -20.1881   21.4813 C.ar    1  UNL1        0.0989
     16 N          -3.9767  -19.4004   22.2036 N.ar    1  UNL1       -0.2408
     17 C          -0.4404  -17.2929   20.3863 C.3     1  UNL1        0.4187
     18 F           0.7384  -16.5904   19.7806 F       1  UNL1       -0.1659
     19 F           0.0120  -18.5834   19.7700 F       1  UNL1       -0.1659
     20 F          -0.8927  -16.0024   21.0027 F       1  UNL1       -0.1659
     21 N          -9.2505  -17.7364   22.0527 N.am    1  UNL1       -0.3012
     22 C          -8.8502  -16.7103   23.0709 C.2     1  UNL1        0.2668
     23 O          -9.8972  -15.8719   23.7425 O.2     1  UNL1       -0.2684
     24 H          -8.5633  -18.2866   21.6119 H       1  UNL1        0.1497
     25 C         -11.1330  -17.9099   20.2705 C.3     1  UNL1        0.0213
     26 C         -10.6978  -17.9240   21.7058 C.3     1  UNL1        0.0719
     27 C         -11.7098  -18.1258   22.7945 C.3     1  UNL1        0.0180
     28 C         -13.1038  -17.5970   22.6300 C.3     1  UNL1        0.0016
     29 C         -14.1158  -17.7988   23.7186 C.3     1  UNL1        0.0001
     30 C         -13.7338  -18.5294   24.9717 C.3     1  UNL1        0.0000
     31 C         -12.3398  -19.0582   25.1362 C.3     1  UNL1        0.0001
     32 C         -11.3278  -18.8564   24.0476 C.3     1  UNL1        0.0016
@<TRIPOS>BOND
     1    26    25    1
     2    26    21    1
     3    21    22   am
     4    22    23    2
     5    22     1    1
     6     1     2   ar
     7     2     3   ar
     8     3    11    1
     9    11    12   ar
    10    12    13   ar
    11    13    17    1
    12    17    18    1
    13    17    19    1
    14    17    20    1
    15    13    14   ar
    16    14    15   ar
    17    15    16   ar
    18     3     4   ar
    19     4     5   ar
    20     5     6    1
    21     5     7   ar
    22     7     8    1
    23    26    27    1
    24    27    28    1
    25    28    29    1
    26    29    30    1
    27    30    31    1
    28    31    32    1
    29     7     1   ar
    30    32    27    1
    31    16    11   ar
    32    21    24    1
    33     6     9    1
    34     8    10    1
@<TRIPOS>MOLECULE
*****
 32 34 0 0 0
SMALL
GASTEIGER

@<TRIPOS>ATOM
      1 C          -6.4084  -16.1640   24.0081 C.ar    1  UNL1        0.1743
      2 N          -7.5913  -16.6054   23.1982 N.ar    1  UNL1       -0.2173
      3 C          -8.9783  -16.4388   23.7442 C.ar    1  UNL1        0.1834
      4 N          -9.1826  -15.8308   25.1001 N.ar    1  UNL1       -0.1885
      5 C          -7.9998  -15.3893   25.9101 C.ar    1  UNL1        0.2596
      6 O          -8.2040  -14.7813   27.2660 O.3     1  UNL1       -0.4898
      7 C          -6.6127  -15.5559   25.3640 C.ar    1  UNL1        0.2098
      8 O          -5.4298  -15.1145   26.1739 O.3     1  UNL1       -0.5007
      9 H          -9.0705  -14.6772   27.6071 H       1  UNL1        0.2938
     10 H          -5.5573  -14.7347   27.0210 H       1  UNL1        0.2924
     11 C         -10.1613  -16.8802   22.9343 C.ar    1  UNL1        0.1170
     12 C         -11.4128  -17.3382   23.6228 C.ar    1  UNL1        0.0261
     13 C         -12.5957  -17.7796   22.8129 C.ar    1  UNL1        0.0746
     14 C         -12.5271  -17.7631   21.3145 C.ar    1  UNL1        0.0245
     15 C         -11.2756  -17.3051   20.6261 C.ar    1  UNL1        0.0989
     16 N         -10.0927  -16.8636   21.4360 N.ar    1  UNL1       -0.2408
     17 C         -13.8472  -18.2376   23.5014 C.3     1  UNL1        0.4187
     18 F         -15.0987  -18.6956   24.1899 F       1  UNL1       -0.1659
     19 F         -13.1279  -18.2245   24.8176 F       1  UNL1       -0.1659
     20 F         -14.5664  -18.2507   22.1852 F       1  UNL1       -0.1659
     21 N          -4.4388  -17.7033   23.3003 N.am    1  UNL1       -0.3012
     22 C          -5.0213  -16.3305   23.4620 C.2     1  UNL1        0.2668
     23 O          -4.2166  -15.1243   23.0778 O.2     1  UNL1       -0.2684
     24 H          -4.9669  -18.4950   23.5524 H       1  UNL1        0.1497
     25 C          -1.8697  -17.7998   23.6751 C.3     1  UNL1        0.0213
     26 C          -3.0516  -17.8699   22.7542 C.3     1  UNL1        0.0719
     27 C          -2.8464  -18.1066   21.2873 C.3     1  UNL1        0.0180
     28 C          -1.8475  -17.2851   20.5276 C.3     1  UNL1        0.0016
     29 C          -1.6423  -17.5218   19.0606 C.3     1  UNL1        0.0001
     30 C          -2.4361  -18.5799   18.3534 C.3     1  UNL1        0.0000
     31 C          -3.4352  -19.4014   19.1132 C.3     1  UNL1        0.0001
     32 C          -3.6403  -19.1648   20.5801 C.3     1  UNL1        0.0016
@<TRIPOS>BOND
     1    26    25    1
     2    26    21    1
     3    21    22   am
     4    22    23    2
     5    22     1    1
     6     1     2   ar
     7     2     3   ar
     8     3    11    1
     9    11    12   ar
    10    12    13   ar
    11    13    17    1
    12    17    18    1
    13    17    19    1
    14    17    20    1
    15    13    14   ar
    16    14    15   ar
    17    15    16   ar
    18     3     4   ar
    19     4     5   ar
    20     5     6    1
    21     5     7   ar
    22     7     8    1
    23    26    27    1
    24    27    28    1
    25    28    29    1
    26    29    30    1
    27    30    31    1
    28    31    32    1
    29     7     1   ar
    30    32    27    1
    31    16    11   ar
    32    21    24    1
    33     6     9    1
    34     8    10    1
@<TRIPOS>MOLECULE
*****
 32 34 0 0 0
SMALL
GASTEIGER

@<TRIPOS>ATOM
      1 C          -6.4997  -16.1519   24.1441 C.ar    1  UNL1        0.1743
      2 N          -7.6764  -16.6141   23.3369 N.ar    1  UNL1       -0.2173
      3 C          -9.0657  -16.4623   23.8817 C.ar    1  UNL1        0.1834
      4 N          -9.2782  -15.8483   25.2337 N.ar    1  UNL1       -0.1885
      5 C          -8.1015  -15.3862   26.0409 C.ar    1  UNL1        0.2596
      6 O          -8.3140  -14.7722   27.3929 O.3     1  UNL1       -0.4898
      7 C          -6.7122  -15.5380   25.4961 C.ar    1  UNL1        0.2098
      8 O          -5.5354  -15.0758   26.3033 O.3     1  UNL1       -0.5007
      9 H          -9.1818  -14.6774   27.7332 H       1  UNL1        0.2938
     10 H          -5.6681  -14.6923   27.1479 H       1  UNL1        0.2924
     11 C         -10.2426  -16.9244   23.0745 C.ar    1  UNL1        0.1170
     12 C         -10.0275  -17.7413   21.8349 C.ar    1  UNL1        0.0261
     13 C         -11.2042  -18.2035   21.0277 C.ar    1  UNL1        0.0746
     14 C         -12.5962  -17.8487   21.4601 C.ar    1  UNL1        0.0245
     15 C         -12.8112  -17.0319   22.6996 C.ar    1  UNL1        0.0989
     16 N         -11.6344  -16.5697   23.5068 N.ar    1  UNL1       -0.2408
     17 C         -10.9892  -19.0203   19.7882 C.3     1  UNL1        0.4187
     18 F         -10.7741  -19.8372   18.5487 F       1  UNL1       -0.1659
     19 F         -11.4199  -17.8561   18.9462 F       1  UNL1       -0.1659
     20 F         -10.5585  -20.1846   20.6302 F       1  UNL1       -0.1659
     21 N          -4.5300  -17.6718   23.3954 N.am    1  UNL1       -0.3012
     22 C          -5.1103  -16.3037   23.5993 C.2     1  UNL1        0.2668
     23 O          -4.3013  -15.0874   23.2585 O.2     1  UNL1       -0.2684
     24 H          -5.0610  -18.4701   23.6191 H       1  UNL1        0.1497
     25 C          -1.9589  -17.7074   23.7670 C.3     1  UNL1        0.0213
     26 C          -3.1407  -17.8236   22.8506 C.3     1  UNL1        0.0719
     27 C          -2.9332  -18.0915   21.3894 C.3     1  UNL1        0.0180
     28 C          -1.9458  -17.2745   20.6099 C.3     1  UNL1        0.0016
     29 C          -1.7383  -17.5425   19.1487 C.3     1  UNL1        0.0001
     30 C          -2.5182  -18.6274   18.4670 C.3     1  UNL1        0.0000
     31 C          -3.5056  -19.4444   19.2465 C.3     1  UNL1        0.0001
     32 C          -3.7131  -19.1765   20.7077 C.3     1  UNL1        0.0016
@<TRIPOS>BOND
     1    26    25    1
     2    26    21    1
     3    21    22   am
     4    22    23    2
     5    22     1    1
     6     1     2   ar
     7     2     3   ar
     8     3    11    1
     9    11    12   ar
    10    12    13   ar
    11    13    17    1
    12    17    18    1
    13    17    19    1
    14    17    20    1
    15    13    14   ar
    16    14    15   ar
    17    15    16   ar
    18     3     4   ar
    19     4     5   ar
    20     5     6    1
    21     5     7   ar
    22     7     8    1
    23    26    27    1
    24    27    28    1
    25    28    29    1
    26    29    30    1
    27    30    31    1
    28    31    32    1
    29     7     1   ar
    30    32    27    1
    31    16    11   ar
    32    21    24    1
    33     6     9    1
    34     8    10    1
@<TRIPOS>MOLECULE
*****
 32 34 0 0 0
SMALL
GASTEIGER

@<TRIPOS>ATOM
      1 C          -7.0918  -19.4094   21.0054 C.ar    1  UNL1        0.1743
      2 N          -8.2486  -18.6569   21.5933 N.ar    1  UNL1       -0.2173
      3 C          -9.6128  -18.7820   20.9826 C.ar    1  UNL1        0.1834
      4 N          -9.8204  -19.6597   19.7840 N.ar    1  UNL1       -0.1885
      5 C          -8.6637  -20.4122   19.1961 C.ar    1  UNL1        0.2596
      6 O          -8.8713  -21.2898   17.9975 O.3     1  UNL1       -0.4898
      7 C          -7.2994  -20.2871   19.8068 C.ar    1  UNL1        0.2098
      8 O          -6.1426  -21.0396   19.2189 O.3     1  UNL1       -0.5007
      9 H          -9.7236  -21.3680   17.6160 H       1  UNL1        0.2938
     10 H          -6.2723  -21.5879   18.4702 H       1  UNL1        0.2924
     11 C         -10.7696  -18.0295   21.5705 C.ar    1  UNL1        0.1170
     12 C         -11.4733  -18.5633   22.7829 C.ar    1  UNL1        0.0261
     13 C         -12.6301  -17.8109   23.3708 C.ar    1  UNL1        0.0746
     14 C         -13.0832  -16.5244   22.7463 C.ar    1  UNL1        0.0245
     15 C         -12.3795  -15.9906   21.5340 C.ar    1  UNL1        0.0989
     16 N         -11.2227  -16.7431   20.9461 N.ar    1  UNL1       -0.2408
     17 C         -13.3338  -18.3448   24.5831 C.3     1  UNL1        0.4187
     18 F         -14.0375  -18.8786   25.7955 F       1  UNL1       -0.1659
     19 F         -12.0427  -18.9283   25.0756 F       1  UNL1       -0.1659
     20 F         -14.6249  -17.7613   24.0907 F       1  UNL1       -0.1659
     21 N          -5.2481  -17.9534   22.1148 N.am    1  UNL1       -0.3012
     22 C          -5.7275  -19.2843   21.6161 C.2     1  UNL1        0.2668
     23 O          -4.8425  -20.4903   21.7281 O.2     1  UNL1       -0.2684
     24 H          -5.8290  -17.1619   22.0413 H       1  UNL1        0.1497
     25 C          -3.7286  -17.8103   24.2173 C.3     1  UNL1        0.0213
     26 C          -3.8837  -17.8283   22.7255 C.3     1  UNL1        0.0719
     27 C          -2.6746  -17.7212   21.8443 C.3     1  UNL1        0.0180
     28 C          -2.0371  -16.3848   21.6048 C.3     1  UNL1        0.0016
     29 C          -0.8279  -16.2777   20.7236 C.3     1  UNL1        0.0001
     30 C          -0.2563  -17.5071   20.0819 C.3     1  UNL1        0.0000
     31 C          -0.8938  -18.8436   20.3214 C.3     1  UNL1        0.0001
     32 C          -2.1030  -18.9507   21.2026 C.3     1  UNL1        0.0016
@<TRIPOS>BOND
     1    26    25    1
     2    26    21    1
     3    21    22   am
     4    22    23    2
     5    22     1    1
     6     1     2   ar
     7     2     3   ar
     8     3    11    1
     9    11    12   ar
    10    12    13   ar
    11    13    17    1
    12    17    18    1
    13    17    19    1
    14    17    20    1
    15    13    14   ar
    16    14    15   ar
    17    15    16   ar
    18     3     4   ar
    19     4     5   ar
    20     5     6    1
    21     5     7   ar
    22     7     8    1
    23    26    27    1
    24    27    28    1
    25    28    29    1
    26    29    30    1
    27    30    31    1
    28    31    32    1
    29     7     1   ar
    30    32    27    1
    31    16    11   ar
    32    21    24    1
    33     6     9    1
    34     8    10    1
@<TRIPOS>MOLECULE
*****
 32 34 0 0 0
SMALL
GASTEIGER

@<TRIPOS>ATOM
      1 C          -6.0555  -17.2737   23.4828 C.ar    1  UNL1        0.1743
      2 N          -7.4378  -17.4643   22.9324 N.ar    1  UNL1       -0.2173
      3 C          -8.5958  -16.7324   23.5432 C.ar    1  UNL1        0.1834
      4 N          -8.3716  -15.8099   24.7046 N.ar    1  UNL1       -0.1885
      5 C          -6.9893  -15.6193   25.2551 C.ar    1  UNL1        0.2596
      6 O          -6.7651  -14.6968   26.4164 O.3     1  UNL1       -0.4898
      7 C          -5.8313  -16.3512   24.6442 C.ar    1  UNL1        0.2098
      8 O          -4.4490  -16.1607   25.1947 O.3     1  UNL1       -0.5007
      9 H          -7.4885  -14.2396   26.7980 H       1  UNL1        0.2938
     10 H          -4.3089  -15.5845   25.9201 H       1  UNL1        0.2924
     11 C          -9.9781  -16.9229   22.9928 C.ar    1  UNL1        0.1170
     12 C         -10.3434  -16.3338   21.6625 C.ar    1  UNL1        0.0261
     13 C         -11.7257  -16.5243   21.1120 C.ar    1  UNL1        0.0746
     14 C         -12.7427  -17.3039   21.8918 C.ar    1  UNL1        0.0245
     15 C         -12.3774  -17.8930   23.2221 C.ar    1  UNL1        0.0989
     16 N         -10.9950  -17.7024   23.7725 N.ar    1  UNL1       -0.2408
     17 C         -12.0910  -15.9353   19.7818 C.3     1  UNL1        0.4187
     18 F         -12.4563  -15.3462   18.4516 F       1  UNL1       -0.1659
     19 F         -13.4912  -15.7053   20.2681 F       1  UNL1       -0.1659
     20 F         -10.6907  -16.1652   19.2955 F       1  UNL1       -0.1659
     21 N          -4.8884  -18.3011   21.4014 N.am    1  UNL1       -0.3012
     22 C          -4.8974  -18.0057   22.8720 C.2     1  UNL1        0.2668
     23 O          -3.7484  -18.4422   23.7317 O.2     1  UNL1       -0.2684
     24 H          -5.6425  -18.0146   20.8371 H       1  UNL1        0.1497
     25 C          -3.8751  -20.4744   20.4012 C.3     1  UNL1        0.0213
     26 C          -3.7303  -19.0331   20.7905 C.3     1  UNL1        0.0719
     27 C          -2.4273  -18.3237   20.5690 C.3     1  UNL1        0.0180
     28 C          -1.2962  -19.0299   19.8823 C.3     1  UNL1        0.0016
     29 C           0.0068  -18.3204   19.6607 C.3     1  UNL1        0.0001
     30 C           0.1785  -16.9048   20.1260 C.3     1  UNL1        0.0000
     31 C          -0.9527  -16.1986   20.8128 C.3     1  UNL1        0.0001
     32 C          -2.2556  -16.9080   21.0343 C.3     1  UNL1        0.0016
@<TRIPOS>BOND
     1    26    25    1
     2    26    21    1
     3    21    22   am
     4    22    23    2
     5    22     1    1
     6     1     2   ar
     7     2     3   ar
     8     3    11    1
     9    11    12   ar
    10    12    13   ar
    11    13    17    1
    12    17    18    1
    13    17    19    1
    14    17    20    1
    15    13    14   ar
    16    14    15   ar
    17    15    16   ar
    18     3     4   ar
    19     4     5   ar
    20     5     6    1
    21     5     7   ar
    22     7     8    1
    23    26    27    1
    24    27    28    1
    25    28    29    1
    26    29    30    1
    27    30    31    1
    28    31    32    1
    29     7     1   ar
    30    32    27    1
    31    16    11   ar
    32    21    24    1
    33     6     9    1
    34     8    10    1
@<TRIPOS>MOLECULE
*****
 32 34 0 0 0
SMALL
GASTEIGER

@<TRIPOS>ATOM
      1 C          -7.7146  -16.3459   23.6944 C.ar    1  UNL1        0.1743
      2 N          -6.5780  -16.8559   22.8590 N.ar    1  UNL1       -0.2173
      3 C          -5.1626  -16.5589   23.2570 C.ar    1  UNL1        0.1834
      4 N          -4.8839  -15.7520   24.4904 N.ar    1  UNL1       -0.1885
      5 C          -6.0205  -15.2420   25.3257 C.ar    1  UNL1        0.2596
      6 O          -5.7418  -14.4350   26.5591 O.3     1  UNL1       -0.4898
      7 C          -7.4359  -15.5390   24.9277 C.ar    1  UNL1        0.2098
      8 O          -8.5727  -15.0290   25.7631 O.3     1  UNL1       -0.5007
      9 H          -4.8577  -14.2495   26.8077 H       1  UNL1        0.2938
     10 H          -8.3986  -14.5249   26.5335 H       1  UNL1        0.2924
     11 C          -4.0258  -17.0689   22.4217 C.ar    1  UNL1        0.1170
     12 C          -4.2262  -18.2560   21.5269 C.ar    1  UNL1        0.0261
     13 C          -3.0896  -18.7660   20.6916 C.ar    1  UNL1        0.0746
     14 C          -1.7524  -18.0889   20.7510 C.ar    1  UNL1        0.0245
     15 C          -1.5519  -16.9018   21.6457 C.ar    1  UNL1        0.0989
     16 N          -2.6887  -16.3918   22.4811 N.ar    1  UNL1       -0.2408
     17 C          -3.2900  -19.9531   19.7968 C.3     1  UNL1        0.4187
     18 F          -3.4905  -21.1402   18.9020 F       1  UNL1       -0.1659
     19 F          -2.7102  -19.1842   18.6468 F       1  UNL1       -0.1659
     20 F          -3.8699  -20.7220   20.9468 F       1  UNL1       -0.1659
     21 N          -9.4275  -17.8022   22.3922 N.am    1  UNL1       -0.3012
     22 C          -9.1301  -16.6429   23.2964 C.2     1  UNL1        0.2668
     23 O         -10.2482  -15.7805   23.8026 O.2     1  UNL1       -0.2684
     24 H          -8.6936  -18.3682   22.0599 H       1  UNL1        0.1497
     25 C         -11.1955  -18.2658   20.5458 C.3     1  UNL1        0.0213
     26 C         -10.8429  -18.0991   21.9942 C.3     1  UNL1        0.0719
     27 C         -11.9057  -18.2294   23.0447 C.3     1  UNL1        0.0180
     28 C         -13.2951  -17.7347   22.7712 C.3     1  UNL1        0.0016
     29 C         -14.3580  -17.8650   23.8217 C.3     1  UNL1        0.0001
     30 C         -14.0314  -18.4900   25.1456 C.3     1  UNL1        0.0000
     31 C         -12.6419  -18.9847   25.4191 C.3     1  UNL1        0.0001
     32 C         -11.5791  -18.8544   24.3686 C.3     1  UNL1        0.0016
@<TRIPOS>BOND
     1    26    25    1
     2    26    21    1
     3    21    22   am
     4    22    23    2
     5    22     1    1
     6     1     2   ar
     7     2     3   ar
     8     3    11    1
     9    11    12   ar
    10    12    13   ar
    11    13    17    1
    12    17    18    1
    13    17    19    1
    14    17    20    1
    15    13    14   ar
    16    14    15   ar
    17    15    16   ar
    18     3     4   ar
    19     4     5   ar
    20     5     6    1
    21     5     7   ar
    22     7     8    1
    23    26    27    1
    24    27    28    1
    25    28    29    1
    26    29    30    1
    27    30    31    1
    28    31    32    1
    29     7     1   ar
    30    32    27    1
    31    16    11   ar
    32    21    24    1
    33     6     9    1
    34     8    10    1
@<TRIPOS>MOLECULE
*****
 32 34 0 0 0
SMALL
GASTEIGER

@<TRIPOS>ATOM
      1 C           5.1538   -2.0735   25.6915 C.ar    1  UNL1        0.1743
      2 N           5.0630   -2.2307   24.2025 N.ar    1  UNL1       -0.2173
      3 C           3.9966   -1.5065   23.4356 C.ar    1  UNL1        0.1834
      4 N           3.0210   -0.6250   24.1575 N.ar    1  UNL1       -0.1885
      5 C           3.1118   -0.4677   25.6465 C.ar    1  UNL1        0.2596
      6 O           2.1363    0.4138   26.3685 O.3     1  UNL1       -0.4898
      7 C           4.1782   -1.1920   26.4134 C.ar    1  UNL1        0.2098
      8 O           4.2690   -1.0348   27.9025 O.3     1  UNL1       -0.5007
      9 H           1.4701    0.8662   25.8893 H       1  UNL1        0.2938
     10 H           3.6596   -0.4841   28.3535 H       1  UNL1        0.2924
     11 C           3.9057   -1.6637   21.9465 C.ar    1  UNL1        0.1170
     12 C           4.2215   -2.9854   21.3113 C.ar    1  UNL1        0.0261
     13 C           4.1306   -3.1426   19.8224 C.ar    1  UNL1        0.0746
     14 C           3.7241   -1.9782   18.9686 C.ar    1  UNL1        0.0245
     15 C           3.4084   -0.6565   19.6038 C.ar    1  UNL1        0.0989
     16 N           3.4992   -0.4993   21.0929 N.ar    1  UNL1       -0.2408
     17 C           4.4463   -4.4643   19.1871 C.3     1  UNL1        0.4187
     18 F           4.7620   -5.7860   18.5519 F       1  UNL1       -0.1659
     19 F           5.8723   -4.3391   19.6354 F       1  UNL1       -0.1659
     20 F           3.0204   -4.5894   18.7388 F       1  UNL1       -0.1659
     21 N           5.8412   -3.7403   27.5621 N.am    1  UNL1       -0.3012
     22 C           6.2202   -2.7977   26.4585 C.2     1  UNL1        0.2668
     23 O           7.6655   -2.5794   26.1219 O.2     1  UNL1       -0.2684
     24 H           4.8926   -3.8836   27.7830 H       1  UNL1        0.1497
     25 C           7.5311   -3.8241   29.5338 C.3     1  UNL1        0.0213
     26 C           6.9076   -4.4645   28.3292 C.3     1  UNL1        0.0719
     27 C           7.3505   -5.8292   27.8915 C.3     1  UNL1        0.0180
     28 C           8.3283   -6.6035   28.7248 C.3     1  UNL1        0.0016
     29 C           8.7712   -7.9681   28.2871 C.3     1  UNL1        0.0001
     30 C           8.2364   -8.5585   27.0162 C.3     1  UNL1        0.0000
     31 C           7.2585   -7.7842   26.1829 C.3     1  UNL1        0.0001
     32 C           6.8156   -6.4196   26.6205 C.3     1  UNL1        0.0016
@<TRIPOS>BOND
     1    26    25    1
     2    26    21    1
     3    21    22   am
     4    22    23    2
     5    22     1    1
     6     1     2   ar
     7     2     3   ar
     8     3    11    1
     9    11    12   ar
    10    12    13   ar
    11    13    17    1
    12    17    18    1
    13    17    19    1
    14    17    20    1
    15    13    14   ar
    16    14    15   ar
    17    15    16   ar
    18     3     4   ar
    19     4     5   ar
    20     5     6    1
    21     5     7   ar
    22     7     8    1
    23    26    27    1
    24    27    28    1
    25    28    29    1
    26    29    30    1
    27    30    31    1
    28    31    32    1
    29     7     1   ar
    30    32    27    1
    31    16    11   ar
    32    21    24    1
    33     6     9    1
    34     8    10    1
@<TRIPOS>MOLECULE
*****
 32 34 0 0 0
SMALL
GASTEIGER

@<TRIPOS>ATOM
      1 C           4.6511   -1.5626   26.3310 C.ar    1  UNL1        0.1743
      2 N           4.1191   -1.5668   24.9285 N.ar    1  UNL1       -0.2173
      3 C           4.7770   -2.4131   23.8794 C.ar    1  UNL1        0.1834
      4 N           5.9669   -3.2553   24.2327 N.ar    1  UNL1       -0.1885
      5 C           6.4989   -3.2511   25.6352 C.ar    1  UNL1        0.2596
      6 O           7.6888   -4.0933   25.9885 O.3     1  UNL1       -0.4898
      7 C           5.8410   -2.4048   26.6843 C.ar    1  UNL1        0.2098
      8 O           6.3729   -2.4006   28.0868 O.3     1  UNL1       -0.5007
      9 H           8.0998   -4.6220   25.3331 H       1  UNL1        0.2938
     10 H           7.1162   -2.9266   28.3076 H       1  UNL1        0.2924
     11 C           4.2451   -2.4173   22.4768 C.ar    1  UNL1        0.1170
     12 C           4.6037   -3.5343   21.5420 C.ar    1  UNL1        0.0261
     13 C           4.0718   -3.5385   20.1396 C.ar    1  UNL1        0.0746
     14 C           3.1812   -2.4258   19.6718 C.ar    1  UNL1        0.0245
     15 C           2.8226   -1.3089   20.6066 C.ar    1  UNL1        0.0989
     16 N           3.3545   -1.3046   22.0091 N.ar    1  UNL1       -0.2408
     17 C           4.4304   -4.6555   19.2048 C.3     1  UNL1        0.4187
     18 F           4.7890   -5.7724   18.2700 F       1  UNL1       -0.1659
     19 F           3.0117   -4.7054   18.7201 F       1  UNL1       -0.1659
     20 F           5.8491   -4.6056   19.6894 F       1  UNL1       -0.1659
     21 N           2.5327   -0.8886   27.6757 N.am    1  UNL1       -0.3012
     22 C           3.9931   -0.7162   27.3802 C.2     1  UNL1        0.2668
     23 O           4.7957    0.3026   28.1338 O.2     1  UNL1       -0.2684
     24 H           2.0060   -1.5573   27.1811 H       1  UNL1        0.1497
     25 C           2.0346   -0.3874   30.1759 C.3     1  UNL1        0.0213
     26 C           1.8748   -0.0422   28.7250 C.3     1  UNL1        0.0719
     27 C           1.0570    1.1494   28.3232 C.3     1  UNL1        0.0180
     28 C           1.3170    2.4849   28.9546 C.3     1  UNL1        0.0016
     29 C           0.4993    3.6765   28.5528 C.3     1  UNL1        0.0001
     30 C          -0.5785    3.5325   27.5196 C.3     1  UNL1        0.0000
     31 C          -0.8386    2.1969   26.8881 C.3     1  UNL1        0.0001
     32 C          -0.0208    1.0054   27.2899 C.3     1  UNL1        0.0016
@<TRIPOS>BOND
     1    26    25    1
     2    26    21    1
     3    21    22   am
     4    22    23    2
     5    22     1    1
     6     1     2   ar
     7     2     3   ar
     8     3    11    1
     9    11    12   ar
    10    12    13   ar
    11    13    17    1
    12    17    18    1
    13    17    19    1
    14    17    20    1
    15    13    14   ar
    16    14    15   ar
    17    15    16   ar
    18     3     4   ar
    19     4     5   ar
    20     5     6    1
    21     5     7   ar
    22     7     8    1
    23    26    27    1
    24    27    28    1
    25    28    29    1
    26    29    30    1
    27    30    31    1
    28    31    32    1
    29     7     1   ar
    30    32    27    1
    31    16    11   ar
    32    21    24    1
    33     6     9    1
    34     8    10    1
