@<TRIPOS>MOLECULE
*****
 25 27 0 0 0
SMALL
GASTEIGER

@<TRIPOS>ATOM
      1 O          -5.4463  -16.3862   23.3163 O.2     1  UNL1       -0.2907
      2 C          -6.3579  -17.5027   22.9013 C.2     1  UNL1        0.1819
      3 C          -7.8450  -17.3101   22.9393 C.3     1  UNL1        0.0746
      4 C          -8.7567  -18.4266   22.5242 C.3     1  UNL1        0.0392
      5 C          -8.1813  -19.7357   22.0712 C.3     1  UNL1        0.0691
      6 C          -6.6943  -19.9282   22.0332 C.2     1  UNL1        0.1201
      7 O          -6.1188  -21.2374   21.5802 O.2     1  UNL1       -0.5092
      8 C          -5.7826  -18.8118   22.4483 C.2     1  UNL1        0.0936
      9 H          -6.6883  -21.9348   21.3209 H       1  UNL1        0.2917
     10 C         -10.2439  -18.2340   22.5622 C.ar    1  UNL1       -0.0005
     11 C         -10.9817  -18.3464   23.8634 C.ar    1  UNL1        0.0545
     12 CL        -10.2323  -18.6514   25.1266 Cl      1  UNL1       -0.0825
     13 C         -12.4687  -18.1538   23.9014 C.ar    1  UNL1        0.0111
     14 C         -13.2181  -17.8488   22.6383 C.ar    1  UNL1        0.0017
     15 C         -12.4803  -17.7364   21.3371 C.ar    1  UNL1        0.0111
     16 C         -10.9931  -17.9290   21.2991 C.ar    1  UNL1        0.0545
     17 CL        -10.2553  -17.8167   19.9979 Cl      1  UNL1       -0.0825
     18 S          -4.2954  -19.0044   22.4103 S.3     1  UNL1       -0.0806
     19 C          -3.5168  -18.5937   21.1958 C.ar    1  UNL1        0.0402
     20 C          -3.7580  -19.2786   19.8832 C.ar    1  UNL1        0.0073
     21 C          -2.9793  -18.8679   18.6687 C.ar    1  UNL1        0.0006
     22 C          -1.9595  -17.7723   18.7668 C.ar    1  UNL1        0.0009
     23 C          -1.7183  -17.0874   20.0793 C.ar    1  UNL1        0.0119
     24 C          -2.4970  -17.4981   21.2938 C.ar    1  UNL1        0.0636
     25 CL         -2.2558  -16.8131   22.6063 Cl      1  UNL1       -0.0817
@<TRIPOS>BOND
     1     1     2    2
     2     2     3    1
     3     3     4    1
     4     4    10    1
     5    10    11   ar
     6    11    12    1
     7    11    13   ar
     8    13    14   ar
     9    14    15   ar
    10    15    16   ar
    11    16    17    1
    12     4     5    1
    13     5     6    1
    14     6     7    1
    15     6     8    2
    16     8    18    1
    17    18    19    1
    18    19    20   ar
    19    20    21   ar
    20    21    22   ar
    21    22    23   ar
    22    23    24   ar
    23    24    25    1
    24     8     2    1
    25    24    19   ar
    26    16    10   ar
    27     7     9    1
@<TRIPOS>MOLECULE
*****
 25 27 0 0 0
SMALL
GASTEIGER

@<TRIPOS>ATOM
      1 O          -6.1812  -21.2482   21.4631 O.2     1  UNL1       -0.2907
      2 C          -6.7435  -19.9469   21.9535 C.2     1  UNL1        0.1819
      3 C          -8.2284  -19.7372   21.9882 C.3     1  UNL1        0.0746
      4 C          -8.7907  -18.4359   22.4786 C.3     1  UNL1        0.0392
      5 C          -7.8683  -17.3444   22.9341 C.3     1  UNL1        0.0691
      6 C          -6.3834  -17.5541   22.8994 C.2     1  UNL1        0.1201
      7 O          -5.4609  -16.4626   23.3549 O.2     1  UNL1       -0.5092
      8 C          -5.8211  -18.8554   22.4090 C.2     1  UNL1        0.0936
      9 H          -5.8122  -15.6497   23.6612 H       1  UNL1        0.2917
     10 C         -10.2756  -18.2262   22.5133 C.ar    1  UNL1       -0.0005
     11 C         -11.0200  -17.9226   21.2469 C.ar    1  UNL1        0.0545
     12 CL        -10.2795  -17.8287   19.9458 Cl      1  UNL1       -0.0825
     13 C         -12.5048  -17.7128   21.2816 C.ar    1  UNL1        0.0111
     14 C         -13.2454  -17.8067   22.5827 C.ar    1  UNL1        0.0017
     15 C         -12.5010  -18.1104   23.8491 C.ar    1  UNL1        0.0111
     16 C         -11.0161  -18.3201   23.8144 C.ar    1  UNL1        0.0545
     17 CL        -10.2717  -18.6237   25.0808 Cl      1  UNL1       -0.0825
     18 S          -4.3362  -19.0651   22.3743 S.3     1  UNL1       -0.0806
     19 C          -3.5427  -18.6141   21.1839 C.ar    1  UNL1        0.0402
     20 C          -3.7708  -19.2514   19.8453 C.ar    1  UNL1        0.0073
     21 C          -2.9773  -18.8003   18.6549 C.ar    1  UNL1        0.0006
     22 C          -1.9558  -17.7119   18.8032 C.ar    1  UNL1        0.0009
     23 C          -1.7277  -17.0747   20.1418 C.ar    1  UNL1        0.0119
     24 C          -2.5212  -17.5258   21.3322 C.ar    1  UNL1        0.0636
     25 CL         -2.2931  -16.8884   22.6708 Cl      1  UNL1       -0.0817
@<TRIPOS>BOND
     1     1     2    2
     2     2     3    1
     3     3     4    1
     4     4    10    1
     5    10    11   ar
     6    11    12    1
     7    11    13   ar
     8    13    14   ar
     9    14    15   ar
    10    15    16   ar
    11    16    17    1
    12     4     5    1
    13     5     6    1
    14     6     7    1
    15     6     8    2
    16     8    18    1
    17    18    19    1
    18    19    20   ar
    19    20    21   ar
    20    21    22   ar
    21    22    23   ar
    22    23    24   ar
    23    24    25    1
    24     8     2    1
    25    24    19   ar
    26    16    10   ar
    27     7     9    1
@<TRIPOS>MOLECULE
*****
 25 27 0 0 0
SMALL
GASTEIGER

@<TRIPOS>ATOM
      1 O          -5.4392  -16.4139   23.3363 O.2     1  UNL1       -0.2907
      2 C          -6.3531  -17.5237   22.9083 C.2     1  UNL1        0.1819
      3 C          -7.8397  -17.3280   22.9466 C.3     1  UNL1        0.0746
      4 C          -8.7536  -18.4378   22.5186 C.3     1  UNL1        0.0392
      5 C          -8.1808  -19.7433   22.0522 C.3     1  UNL1        0.0691
      6 C          -6.6941  -19.9390   22.0139 C.2     1  UNL1        0.1201
      7 O          -6.1213  -21.2445   21.5475 O.2     1  UNL1       -0.5092
      8 C          -5.7803  -18.8292   22.4419 C.2     1  UNL1        0.0936
      9 H          -6.6921  -21.9378   21.2801 H       1  UNL1        0.2917
     10 C         -10.2403  -18.2421   22.5570 C.ar    1  UNL1       -0.0005
     11 C         -10.9907  -17.9460   21.2923 C.ar    1  UNL1        0.0545
     12 CL        -10.2543  -17.8457   19.9893 Cl      1  UNL1       -0.0825
     13 C         -12.4773  -17.7503   21.3306 C.ar    1  UNL1        0.0111
     14 C         -13.2137  -17.8506   22.6337 C.ar    1  UNL1        0.0017
     15 C         -12.4633  -18.1467   23.8983 C.ar    1  UNL1        0.0111
     16 C         -10.9766  -18.3424   23.8599 C.ar    1  UNL1        0.0545
     17 CL        -10.2263  -18.6385   25.1246 Cl      1  UNL1       -0.0825
     18 S          -4.2935  -19.0249   22.4035 S.3     1  UNL1       -0.0806
     19 C          -3.5121  -18.6004   21.1956 C.ar    1  UNL1        0.0402
     20 C          -3.7440  -19.2763   19.8767 C.ar    1  UNL1        0.0073
     21 C          -2.9626  -18.8518   18.6687 C.ar    1  UNL1        0.0006
     22 C          -1.9493  -17.7513   18.7796 C.ar    1  UNL1        0.0009
     23 C          -1.7175  -17.0754   20.0985 C.ar    1  UNL1        0.0119
     24 C          -2.4989  -17.4999   21.3064 C.ar    1  UNL1        0.0636
     25 CL         -2.2670  -16.8240   22.6253 Cl      1  UNL1       -0.0817
@<TRIPOS>BOND
     1     1     2    2
     2     2     3    1
     3     3     4    1
     4     4    10    1
     5    10    11   ar
     6    11    12    1
     7    11    13   ar
     8    13    14   ar
     9    14    15   ar
    10    15    16   ar
    11    16    17    1
    12     4     5    1
    13     5     6    1
    14     6     7    1
    15     6     8    2
    16     8    18    1
    17    18    19    1
    18    19    20   ar
    19    20    21   ar
    20    21    22   ar
    21    22    23   ar
    22    23    24   ar
    23    24    25    1
    24     8     2    1
    25    24    19   ar
    26    16    10   ar
    27     7     9    1
@<TRIPOS>MOLECULE
*****
 25 27 0 0 0
SMALL
GASTEIGER

@<TRIPOS>ATOM
      1 O          -8.9882  -20.3861   23.7414 O.2     1  UNL1       -0.2907
      2 C          -8.1951  -19.9203   22.5565 C.2     1  UNL1        0.1819
      3 C          -6.7141  -19.7163   22.6785 C.3     1  UNL1        0.0746
      4 C          -5.9210  -19.2505   21.4936 C.3     1  UNL1        0.0392
      5 C          -6.6089  -18.9888   20.1866 C.3     1  UNL1        0.0691
      6 C          -8.0899  -19.1928   20.0646 C.2     1  UNL1        0.1201
      7 O          -8.7779  -18.9311   18.7575 O.2     1  UNL1       -0.5092
      8 C          -8.8830  -19.6586   21.2495 C.2     1  UNL1        0.0936
      9 H          -8.2825  -18.6401   18.0173 H       1  UNL1        0.2917
     10 C          -4.4399  -19.0464   21.6157 C.ar    1  UNL1       -0.0005
     11 C          -3.4981  -19.8791   20.7974 C.ar    1  UNL1        0.0545
     12 CL         -4.0374  -20.9159   19.8570 Cl      1  UNL1       -0.0825
     13 C          -2.0171  -19.6751   20.9195 C.ar    1  UNL1        0.0111
     14 C          -1.4778  -18.6383   21.8599 C.ar    1  UNL1        0.0017
     15 C          -2.4196  -17.8056   22.6782 C.ar    1  UNL1        0.0111
     16 C          -3.9007  -18.0097   22.5561 C.ar    1  UNL1        0.0545
     17 CL         -4.8425  -17.1770   23.3744 Cl      1  UNL1       -0.0825
     18 S         -10.3641  -19.8627   21.1274 S.3     1  UNL1       -0.0806
     19 C         -11.3104  -18.8817   21.7536 C.ar    1  UNL1        0.0402
     20 C         -11.7753  -19.0846   23.1653 C.ar    1  UNL1        0.0073
     21 C         -12.7217  -18.1037   23.7915 C.ar    1  UNL1        0.0006
     22 C         -13.2032  -16.9199   23.0060 C.ar    1  UNL1        0.0009
     23 C         -12.7382  -16.7170   21.5944 C.ar    1  UNL1        0.0119
     24 C         -11.7919  -17.6980   20.9682 C.ar    1  UNL1        0.0636
     25 CL        -11.3270  -17.4951   19.5565 Cl      1  UNL1       -0.0817
@<TRIPOS>BOND
     1     1     2    2
     2     2     3    1
     3     3     4    1
     4     4    10    1
     5    10    11   ar
     6    11    12    1
     7    11    13   ar
     8    13    14   ar
     9    14    15   ar
    10    15    16   ar
    11    16    17    1
    12     4     5    1
    13     5     6    1
    14     6     7    1
    15     6     8    2
    16     8    18    1
    17    18    19    1
    18    19    20   ar
    19    20    21   ar
    20    21    22   ar
    21    22    23   ar
    22    23    24   ar
    23    24    25    1
    24     8     2    1
    25    24    19   ar
    26    16    10   ar
    27     7     9    1
@<TRIPOS>MOLECULE
*****
 25 27 0 0 0
SMALL
GASTEIGER

@<TRIPOS>ATOM
      1 O          -4.9459  -16.0026   24.1242 O.2     1  UNL1       -0.2907
      2 C          -5.8936  -16.9992   23.5255 C.2     1  UNL1        0.1819
      3 C          -7.3742  -16.7811   23.6271 C.3     1  UNL1        0.0746
      4 C          -8.3219  -17.7777   23.0284 C.3     1  UNL1        0.0392
      5 C          -7.7891  -18.9924   22.3280 C.3     1  UNL1        0.0691
      6 C          -6.3086  -19.2105   22.2264 C.2     1  UNL1        0.1201
      7 O          -5.7757  -20.4253   21.5259 O.2     1  UNL1       -0.5092
      8 C          -5.3608  -18.2139   22.8251 C.2     1  UNL1        0.0936
      9 H          -6.3677  -21.0478   21.1519 H       1  UNL1        0.2917
     10 C          -9.8026  -17.5596   23.1301 C.ar    1  UNL1       -0.0005
     11 C         -10.4491  -16.4376   22.3731 C.ar    1  UNL1        0.0545
     12 CL         -9.6149  -15.5336   21.5144 Cl      1  UNL1       -0.0825
     13 C         -11.9296  -16.2194   22.4748 C.ar    1  UNL1        0.0111
     14 C         -12.7637  -17.1234   23.3334 C.ar    1  UNL1        0.0017
     15 C         -12.1172  -18.2454   24.0904 C.ar    1  UNL1        0.0111
     16 C         -10.6366  -18.4635   23.9887 C.ar    1  UNL1        0.0545
     17 CL         -9.9901  -19.5856   24.7457 Cl      1  UNL1       -0.0825
     18 S          -3.8802  -18.4320   22.7234 S.3     1  UNL1       -0.0806
     19 C          -3.1907  -18.2915   21.3987 C.ar    1  UNL1        0.0402
     20 C          -3.2477  -19.4103   20.4011 C.ar    1  UNL1        0.0073
     21 C          -2.5582  -19.2698   19.0764 C.ar    1  UNL1        0.0006
     22 C          -1.8116  -18.0105   18.7493 C.ar    1  UNL1        0.0009
     23 C          -1.7546  -16.8918   19.7469 C.ar    1  UNL1        0.0119
     24 C          -2.4442  -17.0323   21.0716 C.ar    1  UNL1        0.0636
     25 CL         -2.3871  -15.9135   22.0692 Cl      1  UNL1       -0.0817
@<TRIPOS>BOND
     1     1     2    2
     2     2     3    1
     3     3     4    1
     4     4    10    1
     5    10    11   ar
     6    11    12    1
     7    11    13   ar
     8    13    14   ar
     9    14    15   ar
    10    15    16   ar
    11    16    17    1
    12     4     5    1
    13     5     6    1
    14     6     7    1
    15     6     8    2
    16     8    18    1
    17    18    19    1
    18    19    20   ar
    19    20    21   ar
    20    21    22   ar
    21    22    23   ar
    22    23    24   ar
    23    24    25    1
    24     8     2    1
    25    24    19   ar
    26    16    10   ar
    27     7     9    1
@<TRIPOS>MOLECULE
*****
 25 27 0 0 0
SMALL
GASTEIGER

@<TRIPOS>ATOM
      1 O          -8.9506  -20.4841   23.8812 O.2     1  UNL1       -0.2907
      2 C          -8.2141  -19.9660   22.6816 C.2     1  UNL1        0.1819
      3 C          -6.7248  -19.7947   22.7322 C.3     1  UNL1        0.0746
      4 C          -5.9882  -19.2766   21.5326 C.3     1  UNL1        0.0392
      5 C          -6.7410  -18.9297   20.2824 C.3     1  UNL1        0.0691
      6 C          -8.2303  -19.1010   20.2318 C.2     1  UNL1        0.1201
      7 O          -8.9831  -18.7541   18.9816 O.2     1  UNL1       -0.5092
      8 C          -8.9668  -19.6191   21.4314 C.2     1  UNL1        0.0936
      9 H          -8.5230  -18.4304   18.2322 H       1  UNL1        0.2917
     10 C          -4.4988  -19.1054   21.5832 C.ar    1  UNL1       -0.0005
     11 C          -3.8921  -18.0832   22.4981 C.ar    1  UNL1        0.0545
     12 CL         -4.7748  -17.2323   23.3625 Cl      1  UNL1       -0.0825
     13 C          -2.4028  -17.9120   22.5488 C.ar    1  UNL1        0.0111
     14 C          -1.5201  -18.7629   21.6845 C.ar    1  UNL1        0.0017
     15 C          -2.1269  -19.7850   20.7695 C.ar    1  UNL1        0.0111
     16 C          -3.6163  -19.9562   20.7189 C.ar    1  UNL1        0.0545
     17 CL         -4.2230  -20.9784   19.8040 Cl      1  UNL1       -0.0825
     18 S         -10.4562  -19.7903   21.3808 S.3     1  UNL1       -0.0806
     19 C         -11.3552  -18.6204   21.6509 C.ar    1  UNL1        0.0402
     20 C         -11.6462  -17.6309   20.5617 C.ar    1  UNL1        0.0073
     21 C         -12.5453  -16.4610   20.8318 C.ar    1  UNL1        0.0006
     22 C         -13.1533  -16.2805   22.1912 C.ar    1  UNL1        0.0009
     23 C         -12.8623  -17.2700   23.2803 C.ar    1  UNL1        0.0119
     24 C         -11.9633  -18.4399   23.0102 C.ar    1  UNL1        0.0636
     25 CL        -11.6723  -19.4294   24.0994 Cl      1  UNL1       -0.0817
@<TRIPOS>BOND
     1     1     2    2
     2     2     3    1
     3     3     4    1
     4     4    10    1
     5    10    11   ar
     6    11    12    1
     7    11    13   ar
     8    13    14   ar
     9    14    15   ar
    10    15    16   ar
    11    16    17    1
    12     4     5    1
    13     5     6    1
    14     6     7    1
    15     6     8    2
    16     8    18    1
    17    18    19    1
    18    19    20   ar
    19    20    21   ar
    20    21    22   ar
    21    22    23   ar
    22    23    24   ar
    23    24    25    1
    24     8     2    1
    25    24    19   ar
    26    16    10   ar
    27     7     9    1
@<TRIPOS>MOLECULE
*****
 25 27 0 0 0
SMALL
GASTEIGER

@<TRIPOS>ATOM
      1 O         -14.1688   -3.8955   20.1170 O.2     1  UNL1       -0.2907
      2 C         -14.1107   -5.2483   19.4716 C.2     1  UNL1        0.1819
      3 C         -15.3770   -6.0054   19.2014 C.3     1  UNL1        0.0746
      4 C         -15.3189   -7.3582   18.5560 C.3     1  UNL1        0.0392
      5 C         -13.9944   -7.9539   18.1808 C.3     1  UNL1        0.0691
      6 C         -12.7280   -7.1968   18.4510 C.2     1  UNL1        0.1201
      7 O         -11.4034   -7.7924   18.0758 O.2     1  UNL1       -0.5092
      8 C         -12.7862   -5.8439   19.0964 C.2     1  UNL1        0.0936
      9 H         -11.3671   -8.6375   17.6727 H       1  UNL1        0.2917
     10 C         -16.5853   -8.1154   18.2858 C.ar    1  UNL1       -0.0005
     11 C         -17.3269   -7.9018   16.9996 C.ar    1  UNL1        0.0545
     12 CL        -16.8020   -6.9310   15.9835 Cl      1  UNL1       -0.0825
     13 C         -18.5933   -8.6589   16.7293 C.ar    1  UNL1        0.0111
     14 C         -19.1181   -9.6296   17.7454 C.ar    1  UNL1        0.0017
     15 C         -18.3765   -9.8432   19.0316 C.ar    1  UNL1        0.0111
     16 C         -17.1101   -9.0861   19.3018 C.ar    1  UNL1        0.0545
     17 CL        -16.3685   -9.2997   20.5881 Cl      1  UNL1       -0.0825
     18 S         -11.5197   -5.0868   19.3666 S.3     1  UNL1       -0.0806
     19 C         -10.8404   -4.3411   18.2565 C.ar    1  UNL1        0.0402
     20 C          -9.8984   -5.0599   17.3367 C.ar    1  UNL1        0.0073
     21 C          -9.2191   -4.3142   16.2265 C.ar    1  UNL1        0.0006
     22 C          -9.4818   -2.8496   16.0362 C.ar    1  UNL1        0.0009
     23 C         -10.4237   -2.1309   16.9560 C.ar    1  UNL1        0.0119
     24 C         -11.1031   -2.8766   18.0661 C.ar    1  UNL1        0.0636
     25 CL        -12.0451   -2.1578   18.9859 Cl      1  UNL1       -0.0817
@<TRIPOS>BOND
     1     1     2    2
     2     2     3    1
     3     3     4    1
     4     4    10    1
     5    10    11   ar
     6    11    12    1
     7    11    13   ar
     8    13    14   ar
     9    14    15   ar
    10    15    16   ar
    11    16    17    1
    12     4     5    1
    13     5     6    1
    14     6     7    1
    15     6     8    2
    16     8    18    1
    17    18    19    1
    18    19    20   ar
    19    20    21   ar
    20    21    22   ar
    21    22    23   ar
    22    23    24   ar
    23    24    25    1
    24     8     2    1
    25    24    19   ar
    26    16    10   ar
    27     7     9    1
@<TRIPOS>MOLECULE
*****
 25 27 0 0 0
SMALL
GASTEIGER

@<TRIPOS>ATOM
      1 O         -14.0392   -3.9302   20.2519 O.2     1  UNL1       -0.2907
      2 C         -14.0195   -5.2407   19.5224 C.2     1  UNL1        0.1819
      3 C         -15.3039   -5.9643   19.2455 C.3     1  UNL1        0.0746
      4 C         -15.2842   -7.2749   18.5160 C.3     1  UNL1        0.0392
      5 C         -13.9801   -7.8618   18.0635 C.3     1  UNL1        0.0691
      6 C         -12.6957   -7.1382   18.3405 C.2     1  UNL1        0.1201
      7 O         -11.3915   -7.7252   17.8880 O.2     1  UNL1       -0.5092
      8 C         -12.7154   -5.8277   19.0700 C.2     1  UNL1        0.0936
      9 H         -11.3792   -8.5438   17.4323 H       1  UNL1        0.2917
     10 C         -16.5687   -7.9985   18.2390 C.ar    1  UNL1       -0.0005
     11 C         -17.0973   -8.9937   19.2290 C.ar    1  UNL1        0.0545
     12 CL        -16.3414   -9.2654   20.4959 Cl      1  UNL1       -0.0825
     13 C         -18.3817   -9.7173   18.9521 C.ar    1  UNL1        0.0111
     14 C         -19.1375   -9.4456   17.6852 C.ar    1  UNL1        0.0017
     15 C         -18.6089   -8.4504   16.6952 C.ar    1  UNL1        0.0111
     16 C         -17.3244   -7.7268   16.9722 C.ar    1  UNL1        0.0545
     17 CL        -16.7958   -6.7315   15.9822 Cl      1  UNL1       -0.0825
     18 S         -11.4310   -5.1041   19.3469 S.3     1  UNL1       -0.0806
     19 C         -10.7463   -4.3447   18.2494 C.ar    1  UNL1        0.0402
     20 C          -9.7377   -5.0325   17.3777 C.ar    1  UNL1        0.0073
     21 C          -9.0530   -4.2731   16.2802 C.ar    1  UNL1        0.0006
     22 C          -9.3769   -2.8259   16.0544 C.ar    1  UNL1        0.0009
     23 C         -10.3854   -2.1382   16.9261 C.ar    1  UNL1        0.0119
     24 C         -11.0701   -2.8976   18.0236 C.ar    1  UNL1        0.0636
     25 CL        -12.0786   -2.2098   18.8954 Cl      1  UNL1       -0.0817
@<TRIPOS>BOND
     1     1     2    2
     2     2     3    1
     3     3     4    1
     4     4    10    1
     5    10    11   ar
     6    11    12    1
     7    11    13   ar
     8    13    14   ar
     9    14    15   ar
    10    15    16   ar
    11    16    17    1
    12     4     5    1
    13     5     6    1
    14     6     7    1
    15     6     8    2
    16     8    18    1
    17    18    19    1
    18    19    20   ar
    19    20    21   ar
    20    21    22   ar
    21    22    23   ar
    22    23    24   ar
    23    24    25    1
    24     8     2    1
    25    24    19   ar
    26    16    10   ar
    27     7     9    1
@<TRIPOS>MOLECULE
*****
 25 27 0 0 0
SMALL
GASTEIGER

@<TRIPOS>ATOM
      1 O         -13.9548   -3.9161   16.4403 O.2     1  UNL1       -0.2907
      2 C         -14.5452   -4.1217   17.8038 C.2     1  UNL1        0.1819
      3 C         -15.7873   -4.9465   17.9668 C.3     1  UNL1        0.0746
      4 C         -16.3776   -5.1521   19.3303 C.3     1  UNL1        0.0392
      5 C         -15.7258   -4.5328   20.5309 C.3     1  UNL1        0.0691
      6 C         -14.4836   -3.7079   20.3680 C.2     1  UNL1        0.1201
      7 O         -13.8317   -3.0886   21.5687 O.2     1  UNL1       -0.5092
      8 C         -13.8933   -3.5024   19.0045 C.2     1  UNL1        0.0936
      9 H         -14.2004   -3.2170   22.4204 H       1  UNL1        0.2917
     10 C         -17.6199   -5.9770   19.4932 C.ar    1  UNL1       -0.0005
     11 C         -17.5138   -7.4565   19.7160 C.ar    1  UNL1        0.0545
     12 CL        -16.1655   -8.1112   19.7759 Cl      1  UNL1       -0.0825
     13 C         -18.7559   -8.2814   19.8789 C.ar    1  UNL1        0.0111
     14 C         -20.1043   -7.6268   19.8190 C.ar    1  UNL1        0.0017
     15 C         -20.2103   -6.1472   19.5963 C.ar    1  UNL1        0.0111
     16 C         -18.9681   -5.3223   19.4334 C.ar    1  UNL1        0.0545
     17 CL        -19.0742   -3.8427   19.2106 Cl      1  UNL1       -0.0825
     18 S         -12.6511   -2.6775   18.8416 S.3     1  UNL1       -0.0806
     19 C         -11.4283   -3.2789   18.2145 C.ar    1  UNL1        0.0402
     20 C         -10.8697   -4.5662   18.7444 C.ar    1  UNL1        0.0073
     21 C          -9.6469   -5.1676   18.1173 C.ar    1  UNL1        0.0006
     22 C          -8.9828   -4.4817   16.9604 C.ar    1  UNL1        0.0009
     23 C          -9.5415   -3.1944   16.4305 C.ar    1  UNL1        0.0119
     24 C         -10.7642   -2.5930   17.0576 C.ar    1  UNL1        0.0636
     25 CL        -11.3229   -1.3056   16.5277 Cl      1  UNL1       -0.0817
@<TRIPOS>BOND
     1     1     2    2
     2     2     3    1
     3     3     4    1
     4     4    10    1
     5    10    11   ar
     6    11    12    1
     7    11    13   ar
     8    13    14   ar
     9    14    15   ar
    10    15    16   ar
    11    16    17    1
    12     4     5    1
    13     5     6    1
    14     6     7    1
    15     6     8    2
    16     8    18    1
    17    18    19    1
    18    19    20   ar
    19    20    21   ar
    20    21    22   ar
    21    22    23   ar
    22    23    24   ar
    23    24    25    1
    24     8     2    1
    25    24    19   ar
    26    16    10   ar
    27     7     9    1
