@<TRIPOS>MOLECULE
*****
 25 27 0 0 0
SMALL
GASTEIGER

@<TRIPOS>ATOM
      1 N          -7.7989  -20.2900   22.3858 N.pl3   1  UNL1       -0.2150
      2 H          -7.8748  -21.1850   22.7889 H       1  UNL1        0.1737
      3 C          -3.7804  -18.7463   21.0747 C.ar    1  UNL1        0.0652
      4 C          -4.4280  -19.8774   20.3323 C.ar    1  UNL1        0.0189
      5 C          -5.7674  -20.3919   20.7693 C.ar    1  UNL1        0.0173
      6 C          -6.4593  -19.7754   21.9488 C.ar    1  UNL1        0.0649
      7 C          -5.8117  -18.6444   22.6913 C.ar    1  UNL1        0.0173
      8 C          -4.4723  -18.1298   22.2543 C.ar    1  UNL1        0.0189
      9 C          -2.4133  -15.9302   21.9969 C.3     1  UNL1        0.0722
     10 C          -1.8125  -16.9373   21.0616 C.ar    1  UNL1        0.1247
     11 N          -0.4779  -16.8268   20.3860 N.ar    1  UNL1       -0.2290
     12 C          -0.2813  -18.0530   19.5445 C.ar    1  UNL1        0.1192
     13 C          -1.4946  -18.9212   19.7001 C.ar    1  UNL1        0.1019
     14 N          -2.4409  -18.2317   20.6377 N.ar    1  UNL1       -0.2923
     15 S          -9.0227  -19.4411   22.2086 S.O2    1  UNL1        0.0736
     16 O          -9.2852  -19.5116   23.6838 O.2     1  UNL1       -0.1499
     17 O          -8.7602  -19.3705   20.7335 O.2     1  UNL1       -0.1499
     18 C         -10.2466  -18.5920   22.0314 C.ar    1  UNL1        0.1268
     19 C         -10.3469  -17.6552   20.8642 C.ar    1  UNL1        0.0316
     20 C         -11.5707  -16.8062   20.6869 C.ar    1  UNL1        0.0599
     21 CL        -11.6710  -15.8695   19.5197 Cl      1  UNL1       -0.0822
     22 C         -12.6942  -16.8940   21.6769 C.ar    1  UNL1        0.0229
     23 C         -12.5938  -17.8308   22.8441 C.ar    1  UNL1        0.0599
     24 CL        -13.7174  -17.9185   23.8341 Cl      1  UNL1       -0.0822
     25 C         -11.3700  -18.6798   23.0214 C.ar    1  UNL1        0.0316
@<TRIPOS>BOND
     1     9    10    1
     2    10    11   ar
     3    11    12   ar
     4    12    13   ar
     5    13    14   ar
     6    14     3    1
     7     3     4   ar
     8     4     5   ar
     9     5     6   ar
    10     6     1    1
    11     1    15    1
    12    15    16    2
    13    15    17    2
    14    15    18    1
    15    18    19   ar
    16    19    20   ar
    17    20    21    1
    18    20    22   ar
    19    22    23   ar
    20    23    24    1
    21    23    25   ar
    22     6     7   ar
    23     7     8   ar
    24    14    10   ar
    25     8     3   ar
    26    25    18   ar
    27     1     2    1
@<TRIPOS>MOLECULE
*****
 25 27 0 0 0
SMALL
GASTEIGER

@<TRIPOS>ATOM
      1 N          -7.8160  -20.2876   22.3715 N.pl3   1  UNL1       -0.2150
      2 H          -7.8946  -21.1832   22.7727 H       1  UNL1        0.1737
      3 C          -3.7903  -18.7466   21.0796 C.ar    1  UNL1        0.0652
      4 C          -4.4400  -19.8699   20.3273 C.ar    1  UNL1        0.0189
      5 C          -5.7819  -20.3836   20.7580 C.ar    1  UNL1        0.0173
      6 C          -6.4740  -19.7739   21.9409 C.ar    1  UNL1        0.0649
      7 C          -5.8243  -18.6506   22.6931 C.ar    1  UNL1        0.0173
      8 C          -4.4824  -18.1370   22.2625 C.ar    1  UNL1        0.0189
      9 C          -2.4400  -15.9160   21.9818 C.3     1  UNL1        0.0722
     10 C          -1.8277  -16.9319   21.0636 C.ar    1  UNL1        0.1247
     11 N          -0.4872  -16.8250   20.3990 N.ar    1  UNL1       -0.2290
     12 C          -0.2794  -18.0601   19.5735 C.ar    1  UNL1        0.1192
     13 C          -1.4914  -18.9302   19.7280 C.ar    1  UNL1        0.1019
     14 N          -2.4483  -18.2330   20.6490 N.ar    1  UNL1       -0.2923
     15 S          -9.0380  -19.4367   22.1908 S.O2    1  UNL1        0.0736
     16 O          -8.7991  -19.4079   20.7103 O.2     1  UNL1       -0.1499
     17 O          -9.2769  -19.4655   23.6714 O.2     1  UNL1       -0.1499
     18 C         -10.2601  -18.5858   22.0102 C.ar    1  UNL1        0.1268
     19 C         -11.3932  -18.6835   22.9882 C.ar    1  UNL1        0.0316
     20 C         -12.6153  -17.8327   22.8077 C.ar    1  UNL1        0.0599
     21 CL        -13.7484  -17.9304   23.7857 Cl      1  UNL1       -0.0822
     22 C         -12.7042  -16.8842   21.6491 C.ar    1  UNL1        0.0229
     23 C         -11.5710  -16.7864   20.6711 C.ar    1  UNL1        0.0599
     24 CL        -11.6600  -15.8378   19.5125 Cl      1  UNL1       -0.0822
     25 C         -10.3490  -17.6373   20.8517 C.ar    1  UNL1        0.0316
@<TRIPOS>BOND
     1     9    10    1
     2    10    11   ar
     3    11    12   ar
     4    12    13   ar
     5    13    14   ar
     6    14     3    1
     7     3     4   ar
     8     4     5   ar
     9     5     6   ar
    10     6     1    1
    11     1    15    1
    12    15    16    2
    13    15    17    2
    14    15    18    1
    15    18    19   ar
    16    19    20   ar
    17    20    21    1
    18    20    22   ar
    19    22    23   ar
    20    23    24    1
    21    23    25   ar
    22     6     7   ar
    23     7     8   ar
    24    14    10   ar
    25     8     3   ar
    26    25    18   ar
    27     1     2    1
@<TRIPOS>MOLECULE
*****
 25 27 0 0 0
SMALL
GASTEIGER

@<TRIPOS>ATOM
      1 N          -6.9642  -20.2477   19.8748 N.pl3   1  UNL1       -0.2150
      2 H          -7.0575  -20.9089   19.1514 H       1  UNL1        0.1737
      3 C         -10.5597  -19.0400   22.2963 C.ar    1  UNL1        0.0652
      4 C         -10.6753  -19.1962   20.8090 C.ar    1  UNL1        0.0189
      5 C          -9.4768  -19.5988   20.0018 C.ar    1  UNL1        0.0173
      6 C          -8.1627  -19.8451   20.6820 C.ar    1  UNL1        0.0649
      7 C          -8.0472  -19.6889   22.1693 C.ar    1  UNL1        0.0173
      8 C          -9.2457  -19.2863   22.9765 C.ar    1  UNL1        0.0189
      9 C         -12.8443  -16.8903   21.3969 C.3     1  UNL1        0.0722
     10 C         -12.8083  -17.6493   22.6901 C.ar    1  UNL1        0.1247
     11 N         -13.8161  -17.5535   23.7970 N.ar    1  UNL1       -0.2290
     12 C         -13.3889  -18.4825   24.8946 C.ar    1  UNL1        0.1192
     13 C         -12.1170  -19.1523   24.4660 C.ar    1  UNL1        0.1019
     14 N         -11.7582  -18.6374   23.1036 N.ar    1  UNL1       -0.2923
     15 S          -5.6237  -19.6427   20.1697 S.O2    1  UNL1        0.0736
     16 O          -6.2275  -18.2714   20.1010 O.2     1  UNL1       -0.1499
     17 O          -5.0199  -21.0141   20.2383 O.2     1  UNL1       -0.1499
     18 C          -4.2831  -19.0378   20.4646 C.ar    1  UNL1        0.1268
     19 C          -3.9053  -18.7042   21.8774 C.ar    1  UNL1        0.0316
     20 C          -2.5648  -18.0993   22.1724 C.ar    1  UNL1        0.0599
     21 CL         -2.1869  -17.7657   23.5851 Cl      1  UNL1       -0.0822
     22 C          -1.6021  -17.8280   21.0545 C.ar    1  UNL1        0.0229
     23 C          -1.9799  -18.1616   19.6418 C.ar    1  UNL1        0.0599
     24 CL         -1.0171  -17.8903   18.5239 Cl      1  UNL1       -0.0822
     25 C          -3.3204  -18.7665   19.3468 C.ar    1  UNL1        0.0316
@<TRIPOS>BOND
     1     9    10    1
     2    10    11   ar
     3    11    12   ar
     4    12    13   ar
     5    13    14   ar
     6    14     3    1
     7     3     4   ar
     8     4     5   ar
     9     5     6   ar
    10     6     1    1
    11     1    15    1
    12    15    16    2
    13    15    17    2
    14    15    18    1
    15    18    19   ar
    16    19    20   ar
    17    20    21    1
    18    20    22   ar
    19    22    23   ar
    20    23    24    1
    21    23    25   ar
    22     6     7   ar
    23     7     8   ar
    24    14    10   ar
    25     8     3   ar
    26    25    18   ar
    27     1     2    1
@<TRIPOS>MOLECULE
*****
 25 27 0 0 0
SMALL
GASTEIGER

@<TRIPOS>ATOM
      1 N          -6.9908  -20.2451   19.9177 N.pl3   1  UNL1       -0.2150
      2 H          -7.0827  -20.9080   19.1956 H       1  UNL1        0.1737
      3 C         -10.5912  -19.0318   22.3292 C.ar    1  UNL1        0.0652
      4 C         -10.7206  -19.2631   20.8528 C.ar    1  UNL1        0.0189
      5 C          -9.5205  -19.6675   20.0490 C.ar    1  UNL1        0.0173
      6 C          -8.1910  -19.8407   20.7216 C.ar    1  UNL1        0.0649
      7 C          -8.0616  -19.6094   22.1980 C.ar    1  UNL1        0.0173
      8 C          -9.2617  -19.2049   23.0018 C.ar    1  UNL1        0.0189
      9 C         -12.8441  -16.8431   21.4440 C.3     1  UNL1        0.0722
     10 C         -12.8269  -17.6213   22.7262 C.ar    1  UNL1        0.1247
     11 N         -13.8421  -17.5301   23.8266 N.ar    1  UNL1       -0.2290
     12 C         -13.4341  -18.4798   24.9136 C.ar    1  UNL1        0.1192
     13 C         -12.1666  -19.1579   24.4850 C.ar    1  UNL1        0.1019
     14 N         -11.7914  -18.6273   23.1330 N.ar    1  UNL1       -0.2923
     15 S          -5.6509  -19.6397   20.2141 S.O2    1  UNL1        0.0736
     16 O          -5.0471  -21.0109   20.2854 O.2     1  UNL1       -0.1499
     17 O          -6.2547  -18.2685   20.1428 O.2     1  UNL1       -0.1499
     18 C          -4.3109  -19.0342   20.5105 C.ar    1  UNL1        0.1268
     19 C          -3.3479  -18.7606   19.3934 C.ar    1  UNL1        0.0316
     20 C          -2.0079  -18.1551   19.6898 C.ar    1  UNL1        0.0599
     21 CL         -1.0450  -17.8814   18.5727 Cl      1  UNL1       -0.0822
     22 C          -1.6309  -17.8232   21.1032 C.ar    1  UNL1        0.0229
     23 C          -2.5939  -18.0969   22.2202 C.ar    1  UNL1        0.0599
     24 CL         -2.2168  -17.7650   23.6337 Cl      1  UNL1       -0.0822
     25 C          -3.9339  -18.7023   21.9239 C.ar    1  UNL1        0.0316
@<TRIPOS>BOND
     1     9    10    1
     2    10    11   ar
     3    11    12   ar
     4    12    13   ar
     5    13    14   ar
     6    14     3    1
     7     3     4   ar
     8     4     5   ar
     9     5     6   ar
    10     6     1    1
    11     1    15    1
    12    15    16    2
    13    15    17    2
    14    15    18    1
    15    18    19   ar
    16    19    20   ar
    17    20    21    1
    18    20    22   ar
    19    22    23   ar
    20    23    24    1
    21    23    25   ar
    22     6     7   ar
    23     7     8   ar
    24    14    10   ar
    25     8     3   ar
    26    25    18   ar
    27     1     2    1
@<TRIPOS>MOLECULE
*****
 25 27 0 0 0
SMALL
GASTEIGER

@<TRIPOS>ATOM
      1 N          -7.4152  -16.6000   24.2864 N.pl3   1  UNL1       -0.2150
      2 H          -7.3732  -16.3647   25.2415 H       1  UNL1        0.1737
      3 C          -3.6273  -17.4442   22.0086 C.ar    1  UNL1        0.0652
      4 C          -3.6919  -16.2788   22.9507 C.ar    1  UNL1        0.0189
      5 C          -4.9546  -15.9974   23.7099 C.ar    1  UNL1        0.0173
      6 C          -6.1525  -16.8814   23.5271 C.ar    1  UNL1        0.0649
      7 C          -6.0878  -18.0469   22.5850 C.ar    1  UNL1        0.0173
      8 C          -4.8252  -18.3283   21.8258 C.ar    1  UNL1        0.0189
      9 C          -2.7455  -20.3244   20.7529 C.3     1  UNL1        0.0722
     10 C          -1.9593  -19.0496   20.6721 C.ar    1  UNL1        0.1247
     11 N          -0.6298  -18.8747   20.0000 N.ar    1  UNL1       -0.2290
     12 C          -0.2133  -17.4428   20.1617 C.ar    1  UNL1        0.1192
     13 C          -1.2855  -16.7327   20.9338 C.ar    1  UNL1        0.1019
     14 N          -2.3646  -17.7257   21.2493 N.ar    1  UNL1       -0.2923
     15 S          -8.7418  -16.6770   23.5906 S.O2    1  UNL1        0.0736
     16 O          -8.3116  -15.5904   22.6503 O.2     1  UNL1       -0.1499
     17 O          -9.1720  -17.7635   24.5310 O.2     1  UNL1       -0.1499
     18 C         -10.0684  -16.7540   22.8948 C.ar    1  UNL1        0.1268
     19 C         -10.2141  -16.2282   21.4975 C.ar    1  UNL1        0.0316
     20 C         -11.5407  -16.3052   20.8017 C.ar    1  UNL1        0.0599
     21 CL        -11.6864  -15.7794   19.4045 Cl      1  UNL1       -0.0822
     22 C         -12.7216  -16.9080   21.5032 C.ar    1  UNL1        0.0229
     23 C         -12.5759  -17.4338   22.9004 C.ar    1  UNL1        0.0599
     24 CL        -13.7569  -18.0366   23.6019 Cl      1  UNL1       -0.0822
     25 C         -11.2493  -17.3568   23.5962 C.ar    1  UNL1        0.0316
@<TRIPOS>BOND
     1     9    10    1
     2    10    11   ar
     3    11    12   ar
     4    12    13   ar
     5    13    14   ar
     6    14     3    1
     7     3     4   ar
     8     4     5   ar
     9     5     6   ar
    10     6     1    1
    11     1    15    1
    12    15    16    2
    13    15    17    2
    14    15    18    1
    15    18    19   ar
    16    19    20   ar
    17    20    21    1
    18    20    22   ar
    19    22    23   ar
    20    23    24    1
    21    23    25   ar
    22     6     7   ar
    23     7     8   ar
    24    14    10   ar
    25     8     3   ar
    26    25    18   ar
    27     1     2    1
@<TRIPOS>MOLECULE
*****
 25 27 0 0 0
SMALL
GASTEIGER

@<TRIPOS>ATOM
      1 N          -7.3987  -16.6029   24.2925 N.pl3   1  UNL1       -0.2150
      2 H          -7.3564  -16.3708   25.2483 H       1  UNL1        0.1737
      3 C          -3.6114  -17.4395   22.0107 C.ar    1  UNL1        0.0652
      4 C          -3.6761  -16.2767   22.9561 C.ar    1  UNL1        0.0189
      5 C          -4.9385  -15.9979   23.7166 C.ar    1  UNL1        0.0173
      6 C          -6.1362  -16.8818   23.5319 C.ar    1  UNL1        0.0649
      7 C          -6.0715  -18.0446   22.5865 C.ar    1  UNL1        0.0173
      8 C          -4.8091  -18.3234   21.8260 C.ar    1  UNL1        0.0189
      9 C          -2.7044  -20.3278   20.7921 C.3     1  UNL1        0.0722
     10 C          -1.9321  -19.0460   20.6899 C.ar    1  UNL1        0.1247
     11 N          -0.6073  -18.8667   20.0097 N.ar    1  UNL1       -0.2290
     12 C          -0.2053  -17.4283   20.1495 C.ar    1  UNL1        0.1192
     13 C          -1.2817  -16.7186   20.9160 C.ar    1  UNL1        0.1019
     14 N          -2.3490  -17.7184   21.2501 N.ar    1  UNL1       -0.2923
     15 S          -8.7255  -16.6777   23.5969 S.O2    1  UNL1        0.0736
     16 O          -9.1623  -17.7542   24.5457 O.2     1  UNL1       -0.1499
     17 O          -8.2887  -15.6012   22.6481 O.2     1  UNL1       -0.1499
     18 C         -10.0523  -16.7525   22.9012 C.ar    1  UNL1        0.1268
     19 C         -11.2327  -17.3589   23.6005 C.ar    1  UNL1        0.0316
     20 C         -12.5595  -17.4337   22.9048 C.ar    1  UNL1        0.0599
     21 CL        -13.7398  -18.0401   23.6041 Cl      1  UNL1       -0.0822
     22 C         -12.7059  -16.9020   21.5099 C.ar    1  UNL1        0.0229
     23 C         -11.5256  -16.2955   20.8107 C.ar    1  UNL1        0.0599
     24 CL        -11.6721  -15.7638   19.4157 Cl      1  UNL1       -0.0822
     25 C         -10.1988  -16.2208   21.5063 C.ar    1  UNL1        0.0316
@<TRIPOS>BOND
     1     9    10    1
     2    10    11   ar
     3    11    12   ar
     4    12    13   ar
     5    13    14   ar
     6    14     3    1
     7     3     4   ar
     8     4     5   ar
     9     5     6   ar
    10     6     1    1
    11     1    15    1
    12    15    16    2
    13    15    17    2
    14    15    18    1
    15    18    19   ar
    16    19    20   ar
    17    20    21    1
    18    20    22   ar
    19    22    23   ar
    20    23    24    1
    21    23    25   ar
    22     6     7   ar
    23     7     8   ar
    24    14    10   ar
    25     8     3   ar
    26    25    18   ar
    27     1     2    1
@<TRIPOS>MOLECULE
*****
 25 27 0 0 0
SMALL
GASTEIGER

@<TRIPOS>ATOM
      1 N         -14.0594   -8.6488   18.9204 N.pl3   1  UNL1       -0.2150
      2 H         -13.4664   -9.3506   19.2739 H       1  UNL1        0.1737
      3 C         -12.3134   -4.8181   17.3307 C.ar    1  UNL1        0.0652
      4 C         -12.0809   -5.2122   18.7592 C.ar    1  UNL1        0.0189
      5 C         -12.6630   -6.4891   19.2890 C.ar    1  UNL1        0.0173
      6 C         -13.4774   -7.3718   18.3904 C.ar    1  UNL1        0.0649
      7 C         -13.7098   -6.9777   16.9620 C.ar    1  UNL1        0.0173
      8 C         -13.1278   -5.7008   16.4321 C.ar    1  UNL1        0.0189
      9 C          -9.1653   -4.2768   16.6626 C.3     1  UNL1        0.0722
     10 C         -10.2844   -3.2924   16.4937 C.ar    1  UNL1        0.1247
     11 N         -10.1529   -1.8863   15.9880 N.ar    1  UNL1       -0.2290
     12 C         -11.5187   -1.2661   15.9826 C.ar    1  UNL1        0.1192
     13 C         -12.4942   -2.2888   16.4849 C.ar    1  UNL1        0.1019
     14 N         -11.7314   -3.5412   16.8008 N.ar    1  UNL1       -0.2923
     15 S         -15.5449   -8.8564   18.9116 S.O2    1  UNL1        0.0736
     16 O         -15.3586  -10.1596   18.1927 O.2     1  UNL1       -0.1499
     17 O         -15.7313   -7.5531   19.6305 O.2     1  UNL1       -0.1499
     18 C         -17.0305   -9.0639   18.9029 C.ar    1  UNL1        0.1268
     19 C         -17.6849   -9.7515   17.7414 C.ar    1  UNL1        0.0316
     20 C         -19.1704   -9.9591   17.7326 C.ar    1  UNL1        0.0599
     21 CL        -19.8248  -10.6467   16.5711 Cl      1  UNL1       -0.0822
     22 C         -20.0016   -9.4791   18.8853 C.ar    1  UNL1        0.0229
     23 C         -19.3472   -8.7915   20.0467 C.ar    1  UNL1        0.0599
     24 CL        -20.1784   -8.3114   21.1995 Cl      1  UNL1       -0.0822
     25 C         -17.8617   -8.5839   20.0555 C.ar    1  UNL1        0.0316
@<TRIPOS>BOND
     1     9    10    1
     2    10    11   ar
     3    11    12   ar
     4    12    13   ar
     5    13    14   ar
     6    14     3    1
     7     3     4   ar
     8     4     5   ar
     9     5     6   ar
    10     6     1    1
    11     1    15    1
    12    15    16    2
    13    15    17    2
    14    15    18    1
    15    18    19   ar
    16    19    20   ar
    17    20    21    1
    18    20    22   ar
    19    22    23   ar
    20    23    24    1
    21    23    25   ar
    22     6     7   ar
    23     7     8   ar
    24    14    10   ar
    25     8     3   ar
    26    25    18   ar
    27     1     2    1
@<TRIPOS>MOLECULE
*****
 25 27 0 0 0
SMALL
GASTEIGER

@<TRIPOS>ATOM
      1 N         -14.0732   -8.6570   18.9436 N.pl3   1  UNL1       -0.2150
      2 H         -13.4823   -9.3577   19.3028 H       1  UNL1        0.1737
      3 C         -12.3170   -4.8369   17.3396 C.ar    1  UNL1        0.0652
      4 C         -13.1654   -5.7018   16.4551 C.ar    1  UNL1        0.0189
      5 C         -13.7508   -6.9751   16.9898 C.ar    1  UNL1        0.0173
      6 C         -13.4878   -7.3836   18.4090 C.ar    1  UNL1        0.0649
      7 C         -12.6394   -6.5188   19.2934 C.ar    1  UNL1        0.0173
      8 C         -12.0540   -5.2455   18.7587 C.ar    1  UNL1        0.0189
      9 C          -9.1696   -4.3112   16.6560 C.3     1  UNL1        0.0722
     10 C         -10.2849   -3.3219   16.4907 C.ar    1  UNL1        0.1247
     11 N         -10.1493   -1.9173   15.9822 N.ar    1  UNL1       -0.2290
     12 C         -11.5122   -1.2908   15.9821 C.ar    1  UNL1        0.1192
     13 C         -12.4901   -2.3082   16.4905 C.ar    1  UNL1        0.1019
     14 N         -11.7316   -3.5636   16.8049 N.ar    1  UNL1       -0.2923
     15 S         -15.5590   -8.8626   18.9312 S.O2    1  UNL1        0.0736
     16 O         -15.3727  -10.1645   18.2098 O.2     1  UNL1       -0.1499
     17 O         -15.7452   -7.5608   19.6525 O.2     1  UNL1       -0.1499
     18 C         -17.0448   -9.0683   18.9187 C.ar    1  UNL1        0.1268
     19 C         -17.8786   -8.5843   20.0679 C.ar    1  UNL1        0.0316
     20 C         -19.3643   -8.7899   20.0554 C.ar    1  UNL1        0.0599
     21 CL        -20.1981   -8.3059   21.2046 Cl      1  UNL1       -0.0822
     22 C         -20.0163   -9.4795   18.8939 C.ar    1  UNL1        0.0229
     23 C         -19.1825   -9.9635   17.7447 C.ar    1  UNL1        0.0599
     24 CL        -19.8346  -10.6531   16.5831 Cl      1  UNL1       -0.0822
     25 C         -17.6968   -9.7579   17.7571 C.ar    1  UNL1        0.0316
@<TRIPOS>BOND
     1     9    10    1
     2    10    11   ar
     3    11    12   ar
     4    12    13   ar
     5    13    14   ar
     6    14     3    1
     7     3     4   ar
     8     4     5   ar
     9     5     6   ar
    10     6     1    1
    11     1    15    1
    12    15    16    2
    13    15    17    2
    14    15    18    1
    15    18    19   ar
    16    19    20   ar
    17    20    21    1
    18    20    22   ar
    19    22    23   ar
    20    23    24    1
    21    23    25   ar
    22     6     7   ar
    23     7     8   ar
    24    14    10   ar
    25     8     3   ar
    26    25    18   ar
    27     1     2    1
@<TRIPOS>MOLECULE
*****
 25 27 0 0 0
SMALL
GASTEIGER

@<TRIPOS>ATOM
      1 N          -4.8605  -19.5688   22.5389 N.pl3   1  UNL1       -0.2150
      2 H          -4.6202  -20.2409   23.2169 H       1  UNL1        0.1737
      3 C          -9.0980  -18.0830   22.2464 C.ar    1  UNL1        0.0652
      4 C          -8.7899  -19.5274   21.9840 C.ar    1  UNL1        0.0189
      5 C          -7.3774  -20.0226   22.0815 C.ar    1  UNL1        0.0173
      6 C          -6.2730  -19.0735   22.4414 C.ar    1  UNL1        0.0649
      7 C          -6.5811  -17.6292   22.7038 C.ar    1  UNL1        0.0173
      8 C          -7.9936  -17.1339   22.6064 C.ar    1  UNL1        0.0189
      9 C         -11.4877  -18.6664   24.3910 C.3     1  UNL1        0.0722
     10 C         -11.6089  -17.8559   23.1347 C.ar    1  UNL1        0.1247
     11 N         -12.8499  -17.1712   22.6436 N.ar    1  UNL1       -0.2290
     12 C         -12.5185  -16.4798   21.3542 C.ar    1  UNL1        0.1192
     13 C         -11.0727  -16.7373   21.0486 C.ar    1  UNL1        0.1019
     14 N         -10.5106  -17.5877   22.1490 N.ar    1  UNL1       -0.2923
     15 S          -3.8140  -19.0400   21.6033 S.O2    1  UNL1        0.0736
     16 O          -4.4754  -19.7524   20.4610 O.2     1  UNL1       -0.1499
     17 O          -3.1526  -18.3277   22.7457 O.2     1  UNL1       -0.1499
     18 C          -2.7675  -18.5112   20.6678 C.ar    1  UNL1        0.1268
     19 C          -3.1509  -18.0681   19.2869 C.ar    1  UNL1        0.0316
     20 C          -2.1045  -17.5393   18.3514 C.ar    1  UNL1        0.0599
     21 CL         -2.4879  -17.0962   16.9705 Cl      1  UNL1       -0.0822
     22 C          -0.6747  -17.4536   18.7966 C.ar    1  UNL1        0.0229
     23 C          -0.2913  -17.8967   20.1775 C.ar    1  UNL1        0.0599
     24 CL          1.1386  -17.8109   20.6227 Cl      1  UNL1       -0.0822
     25 C          -1.3377  -18.4255   21.1130 C.ar    1  UNL1        0.0316
@<TRIPOS>BOND
     1     9    10    1
     2    10    11   ar
     3    11    12   ar
     4    12    13   ar
     5    13    14   ar
     6    14     3    1
     7     3     4   ar
     8     4     5   ar
     9     5     6   ar
    10     6     1    1
    11     1    15    1
    12    15    16    2
    13    15    17    2
    14    15    18    1
    15    18    19   ar
    16    19    20   ar
    17    20    21    1
    18    20    22   ar
    19    22    23   ar
    20    23    24    1
    21    23    25   ar
    22     6     7   ar
    23     7     8   ar
    24    14    10   ar
    25     8     3   ar
    26    25    18   ar
    27     1     2    1
