@<TRIPOS>MOLECULE
*****
 25 25 0 0 0
SMALL
GASTEIGER

@<TRIPOS>ATOM
      1 C          -7.1571  -18.6896   21.7488 C.3     1  UNL1        0.2969
      2 F          -7.3780  -17.4459   22.5578 F       1  UNL1       -0.1981
      3 F          -6.9362  -19.9332   20.9398 F       1  UNL1       -0.1981
      4 C         -10.7758  -17.2607   20.9656 C.ar    1  UNL1        0.1384
      5 C         -11.2225  -18.1980   19.8831 C.ar    1  UNL1        0.0369
      6 C         -10.3140  -19.2991   19.4224 C.ar    1  UNL1        0.0030
      7 C          -8.9589  -19.4630   20.0443 C.ar    1  UNL1        0.0012
      8 C          -8.5123  -18.5257   21.1268 C.ar    1  UNL1        0.0422
      9 C          -9.4207  -17.4246   21.5875 C.ar    1  UNL1        0.0379
     10 O         -11.6843  -16.1596   21.4263 O.3     1  UNL1       -0.4755
     11 C         -12.4893  -16.3270   22.6809 C.3     1  UNL1        0.2054
     12 C         -12.9906  -17.6847   23.0748 C.3     1  UNL1        0.0473
     13 C         -11.2036  -19.2946   24.0572 C.3     1  UNL1        0.0001
     14 C         -12.3879  -18.3946   24.2508 C.3     1  UNL1        0.0038
     15 C          -5.8020  -18.8535   22.3707 C.3     1  UNL1        0.1409
     16 N          -5.0737  -17.6572   22.9079 N.3     1  UNL1       -0.2850
     17 H          -5.4492  -17.4775   23.8390 H       1  UNL1        0.1239
     18 C          -3.5799  -17.6863   23.0416 C.3     1  UNL1        0.1553
     19 C          -2.7162  -17.2164   21.9087 C.2     1  UNL1        0.2418
     20 O          -2.4170  -15.7551   21.7500 O.2     1  UNL1       -0.2734
     21 N          -2.1518  -18.2076   20.9347 N.am    1  UNL1       -0.2784
     22 C          -1.2882  -17.7377   19.8019 C.3     1  UNL1        0.0935
     23 C           0.2054  -17.7575   19.9393 C.3     1  UNL1        0.0233
     24 C          -2.4510  -19.6688   21.0935 C.3     1  UNL1        0.0935
     25 C          -3.4273  -20.3389   20.1726 C.3     1  UNL1        0.0233
@<TRIPOS>BOND
     1    13    14    1
     2    14    12    1
     3    12    11    1
     4    11    10    1
     5    10     4    1
     6     4     5   ar
     7     5     6   ar
     8     6     7   ar
     9     7     8   ar
    10     8     1    1
    11     1     2    1
    12     1     3    1
    13     1    15    1
    14    15    16    1
    15    16    18    1
    16    18    19    1
    17    19    20    2
    18    19    21   am
    19    21    22    1
    20    22    23    1
    21    21    24    1
    22    24    25    1
    23     8     9   ar
    24     9     4   ar
    25    16    17    1
@<TRIPOS>MOLECULE
*****
 25 25 0 0 0
SMALL
GASTEIGER

@<TRIPOS>ATOM
      1 C          -6.8216  -19.8699   20.1770 C.3     1  UNL1        0.2969
      2 F          -6.3973  -21.2698   19.8448 F       1  UNL1       -0.1981
      3 F          -7.2458  -18.4701   20.5092 F       1  UNL1       -0.1981
      4 C          -4.0526  -18.5067   22.6718 C.ar    1  UNL1        0.1384
      5 C          -2.8136  -19.1054   22.0748 C.ar    1  UNL1        0.0369
      6 C          -2.9106  -19.9589   20.8451 C.ar    1  UNL1        0.0030
      7 C          -4.2466  -20.2138   20.2126 C.ar    1  UNL1        0.0012
      8 C          -5.4855  -19.6151   20.8096 C.ar    1  UNL1        0.0422
      9 C          -5.3885  -18.7615   22.0392 C.ar    1  UNL1        0.0379
     10 O          -3.9556  -17.6531   23.9015 O.3     1  UNL1       -0.4755
     11 C          -4.4961  -16.2540   23.8878 C.3     1  UNL1        0.2054
     12 C          -5.7183  -15.9143   24.6883 C.3     1  UNL1        0.0473
     13 C          -6.5480  -15.3980   27.0957 C.3     1  UNL1        0.0001
     14 C          -5.5854  -15.1501   25.9723 C.3     1  UNL1        0.0038
     15 C          -8.1576  -20.1247   19.5445 C.3     1  UNL1        0.1409
     16 N          -9.1250  -18.9943   19.3539 N.3     1  UNL1       -0.2850
     17 H          -9.0569  -18.7100   18.3767 H       1  UNL1        0.1239
     18 C         -10.5824  -19.1973   19.6453 C.3     1  UNL1        0.1553
     19 C         -11.3042  -18.2492   20.5564 C.2     1  UNL1        0.2418
     20 O         -11.9864  -17.0387   19.9910 O.2     1  UNL1       -0.2734
     21 N         -11.3439  -18.5115   22.0327 N.am    1  UNL1       -0.2784
     22 C         -12.0657  -17.5634   22.9438 C.3     1  UNL1        0.0935
     23 C         -13.3721  -17.9651   23.5616 C.3     1  UNL1        0.0233
     24 C         -10.6617  -19.7219   22.5979 C.3     1  UNL1        0.0935
     25 C          -9.2528  -19.6215   23.1030 C.3     1  UNL1        0.0233
@<TRIPOS>BOND
     1    13    14    1
     2    14    12    1
     3    12    11    1
     4    11    10    1
     5    10     4    1
     6     4     5   ar
     7     5     6   ar
     8     6     7   ar
     9     7     8   ar
    10     8     1    1
    11     1     2    1
    12     1     3    1
    13     1    15    1
    14    15    16    1
    15    16    18    1
    16    18    19    1
    17    19    20    2
    18    19    21   am
    19    21    22    1
    20    22    23    1
    21    21    24    1
    22    24    25    1
    23     8     9   ar
    24     9     4   ar
    25    16    17    1
@<TRIPOS>MOLECULE
*****
 25 25 0 0 0
SMALL
GASTEIGER

@<TRIPOS>ATOM
      1 C          -8.1407  -19.4416   20.7529 C.3     1  UNL1        0.2969
      2 F          -8.3132  -19.6431   22.2292 F       1  UNL1       -0.1981
      3 F          -7.9683  -19.2401   19.2766 F       1  UNL1       -0.1981
      4 C          -4.4235  -19.0356   22.0825 C.ar    1  UNL1        0.1384
      5 C          -3.6979  -20.0031   21.1952 C.ar    1  UNL1        0.0369
      6 C          -4.4532  -20.7834   20.1604 C.ar    1  UNL1        0.0030
      7 C          -5.9341  -20.5963   20.0130 C.ar    1  UNL1        0.0012
      8 C          -6.6597  -19.6288   20.9003 C.ar    1  UNL1        0.0422
      9 C          -5.9045  -18.8485   21.9350 C.ar    1  UNL1        0.0379
     10 O          -3.6683  -18.2553   23.1172 O.3     1  UNL1       -0.4755
     11 C          -2.3179  -17.6891   22.7918 C.3     1  UNL1        0.2054
     12 C          -2.1636  -16.7247   21.6533 C.3     1  UNL1        0.0473
     13 C          -1.9974  -17.5393   19.1918 C.3     1  UNL1        0.0001
     14 C          -1.3323  -17.0979   20.4618 C.3     1  UNL1        0.0038
     15 C          -9.6217  -19.2544   20.6055 C.3     1  UNL1        0.1409
     16 N         -10.1691  -17.9341   20.1505 N.3     1  UNL1       -0.2850
     17 H         -11.0664  -18.1253   19.7045 H       1  UNL1        0.1239
     18 C         -10.4053  -16.8369   21.1458 C.3     1  UNL1        0.1553
     19 C          -9.2892  -16.3808   22.0381 C.2     1  UNL1        0.2418
     20 O          -8.1756  -15.5456   21.4791 O.2     1  UNL1       -0.2734
     21 N          -9.2867  -16.7599   23.4894 N.am    1  UNL1       -0.2784
     22 C          -8.1706  -16.3038   24.3818 C.3     1  UNL1        0.0935
     23 C          -8.4748  -15.5074   25.6159 C.3     1  UNL1        0.0233
     24 C         -10.4002  -17.5951   24.0483 C.3     1  UNL1        0.0935
     25 C         -10.0876  -18.7791   24.9146 C.3     1  UNL1        0.0233
@<TRIPOS>BOND
     1    13    14    1
     2    14    12    1
     3    12    11    1
     4    11    10    1
     5    10     4    1
     6     4     5   ar
     7     5     6   ar
     8     6     7   ar
     9     7     8   ar
    10     8     1    1
    11     1     2    1
    12     1     3    1
    13     1    15    1
    14    15    16    1
    15    16    18    1
    16    18    19    1
    17    19    20    2
    18    19    21   am
    19    21    22    1
    20    22    23    1
    21    21    24    1
    22    24    25    1
    23     8     9   ar
    24     9     4   ar
    25    16    17    1
@<TRIPOS>MOLECULE
*****
 25 25 0 0 0
SMALL
GASTEIGER

@<TRIPOS>ATOM
      1 C          -7.6632  -19.7075   21.4304 C.3     1  UNL1        0.2969
      2 F          -8.4540  -18.7582   20.5800 F       1  UNL1       -0.1981
      3 F          -6.8724  -20.6569   22.2809 F       1  UNL1       -0.1981
      4 C          -9.2596  -17.3566   24.2008 C.ar    1  UNL1        0.1384
      5 C          -9.9585  -18.3668   25.0614 C.ar    1  UNL1        0.0369
      6 C          -9.8924  -19.8240   24.7118 C.ar    1  UNL1        0.0030
      7 C          -9.1273  -20.2709   23.5015 C.ar    1  UNL1        0.0012
      8 C          -8.4283  -19.2607   22.6408 C.ar    1  UNL1        0.0422
      9 C          -8.4945  -17.8035   22.9905 C.ar    1  UNL1        0.0379
     10 O          -9.3257  -15.8994   24.5504 O.3     1  UNL1       -0.4755
     11 C          -8.0668  -15.0869   24.6201 C.3     1  UNL1        0.2054
     12 C          -6.9265  -15.5432   25.4812 C.3     1  UNL1        0.0473
     13 C          -8.2657  -16.1804   27.6144 C.3     1  UNL1        0.0001
     14 C          -7.0678  -15.5435   26.9746 C.3     1  UNL1        0.0038
     15 C          -6.8981  -20.1544   20.2202 C.3     1  UNL1        0.1409
     16 N          -5.6274  -20.9349   20.3821 N.3     1  UNL1       -0.2850
     17 H          -5.6988  -21.7449   19.7662 H       1  UNL1        0.1239
     18 C          -4.3064  -20.2858   20.0926 C.3     1  UNL1        0.1553
     19 C          -3.6522  -19.4217   21.1295 C.2     1  UNL1        0.2418
     20 O          -4.1498  -19.4409   22.5445 O.2     1  UNL1       -0.2734
     21 N          -2.5003  -18.5383   20.7515 N.am    1  UNL1       -0.2784
     22 C          -1.8461  -17.6742   21.7884 C.3     1  UNL1        0.0935
     23 C          -2.2880  -16.2519   21.9669 C.3     1  UNL1        0.0233
     24 C          -2.0028  -18.5191   19.3366 C.3     1  UNL1        0.0935
     25 C          -2.3596  -17.3774   18.4315 C.3     1  UNL1        0.0233
@<TRIPOS>BOND
     1    13    14    1
     2    14    12    1
     3    12    11    1
     4    11    10    1
     5    10     4    1
     6     4     5   ar
     7     5     6   ar
     8     6     7   ar
     9     7     8   ar
    10     8     1    1
    11     1     2    1
    12     1     3    1
    13     1    15    1
    14    15    16    1
    15    16    18    1
    16    18    19    1
    17    19    20    2
    18    19    21   am
    19    21    22    1
    20    22    23    1
    21    21    24    1
    22    24    25    1
    23     8     9   ar
    24     9     4   ar
    25    16    17    1
@<TRIPOS>MOLECULE
*****
 25 25 0 0 0
SMALL
GASTEIGER

@<TRIPOS>ATOM
      1 C          -7.5405  -19.2238   21.1516 C.3     1  UNL1        0.2969
      2 F          -7.5450  -18.9352   19.6796 F       1  UNL1       -0.1981
      3 F          -7.5361  -19.5124   22.6235 F       1  UNL1       -0.1981
      4 C          -3.6560  -19.0625   21.9479 C.ar    1  UNL1        0.1384
      5 C          -3.1245  -20.0704   20.9724 C.ar    1  UNL1        0.0369
      6 C          -4.0651  -20.7962   20.0567 C.ar    1  UNL1        0.0030
      7 C          -5.5371  -20.5140   20.1164 C.ar    1  UNL1        0.0012
      8 C          -6.0685  -19.5060   21.0918 C.ar    1  UNL1        0.0422
      9 C          -5.1279  -18.7803   22.0076 C.ar    1  UNL1        0.0379
     10 O          -2.7154  -18.3367   22.8636 O.3     1  UNL1       -0.4755
     11 C          -2.3098  -16.9255   22.5571 C.3     1  UNL1        0.2054
     12 C          -2.0819  -16.5024   21.1361 C.3     1  UNL1        0.0473
     13 C          -1.1785  -17.8064   19.0786 C.3     1  UNL1        0.0001
     14 C          -0.9295  -17.0687   20.3606 C.3     1  UNL1        0.0038
     15 C          -9.0125  -18.9416   21.2114 C.3     1  UNL1        0.1409
     16 N          -9.5009  -17.5286   21.3342 N.3     1  UNL1       -0.2850
     17 H         -10.4788  -17.5789   21.6199 H       1  UNL1        0.1239
     18 C          -8.8224  -16.5799   22.2774 C.3     1  UNL1        0.1553
     19 C          -9.0289  -16.7172   23.7568 C.2     1  UNL1        0.2418
     20 O         -10.1396  -17.5776   24.2823 O.2     1  UNL1       -0.2734
     21 N          -8.1247  -15.9941   24.7105 N.am    1  UNL1       -0.2784
     22 C          -8.3312  -16.1314   26.1899 C.3     1  UNL1        0.0935
     23 C          -7.4132  -15.4265   27.1439 C.3     1  UNL1        0.0233
     24 C          -7.0141  -15.1338   24.1849 C.3     1  UNL1        0.0935
     25 C          -5.6413  -15.7101   24.0021 C.3     1  UNL1        0.0233
@<TRIPOS>BOND
     1    13    14    1
     2    14    12    1
     3    12    11    1
     4    11    10    1
     5    10     4    1
     6     4     5   ar
     7     5     6   ar
     8     6     7   ar
     9     7     8   ar
    10     8     1    1
    11     1     2    1
    12     1     3    1
    13     1    15    1
    14    15    16    1
    15    16    18    1
    16    18    19    1
    17    19    20    2
    18    19    21   am
    19    21    22    1
    20    22    23    1
    21    21    24    1
    22    24    25    1
    23     8     9   ar
    24     9     4   ar
    25    16    17    1
@<TRIPOS>MOLECULE
*****
 25 25 0 0 0
SMALL
GASTEIGER

@<TRIPOS>ATOM
      1 C          -8.1546  -19.3578   20.6610 C.3     1  UNL1        0.2969
      2 F          -7.7493  -19.2130   19.2242 F       1  UNL1       -0.1981
      3 F          -8.5600  -19.5026   22.0979 F       1  UNL1       -0.1981
      4 C          -4.8612  -18.3164   22.6152 C.ar    1  UNL1        0.1384
      5 C          -3.8343  -19.1447   21.9015 C.ar    1  UNL1        0.0369
      6 C          -4.2474  -20.0440   20.7744 C.ar    1  UNL1        0.0030
      7 C          -5.6875  -20.1150   20.3609 C.ar    1  UNL1        0.0012
      8 C          -6.7144  -19.2868   21.0745 C.ar    1  UNL1        0.0422
      9 C          -6.3013  -18.3874   22.2017 C.ar    1  UNL1        0.0379
     10 O          -4.4480  -17.4170   23.7423 O.3     1  UNL1       -0.4755
     11 C          -4.8039  -15.9603   23.7086 C.3     1  UNL1        0.2054
     12 C          -5.7526  -15.3963   24.7244 C.3     1  UNL1        0.0473
     13 C          -6.6324  -15.3370   27.1683 C.3     1  UNL1        0.0001
     14 C          -5.5697  -15.7138   26.1790 C.3     1  UNL1        0.0038
     15 C          -9.5948  -19.4288   20.2476 C.3     1  UNL1        0.1409
     16 N         -10.2567  -18.2343   19.6272 N.3     1  UNL1       -0.2850
     17 H         -11.0207  -18.5873   19.0508 H       1  UNL1        0.1239
     18 C         -10.8336  -17.1590   20.4996 C.3     1  UNL1        0.1553
     19 C         -10.0179  -16.5834   21.6191 C.2     1  UNL1        0.2418
     20 O          -8.8124  -15.7444   21.3142 O.2     1  UNL1       -0.2734
     21 N         -10.4076  -16.8468   23.0434 N.am    1  UNL1       -0.2784
     22 C          -9.5919  -16.2713   24.1629 C.3     1  UNL1        0.0935
     23 C          -8.9845  -17.1783   25.1916 C.3     1  UNL1        0.0233
     24 C         -11.6130  -17.6858   23.3482 C.3     1  UNL1        0.0935
     25 C         -11.4651  -19.1642   23.5552 C.3     1  UNL1        0.0233
@<TRIPOS>BOND
     1    13    14    1
     2    14    12    1
     3    12    11    1
     4    11    10    1
     5    10     4    1
     6     4     5   ar
     7     5     6   ar
     8     6     7   ar
     9     7     8   ar
    10     8     1    1
    11     1     2    1
    12     1     3    1
    13     1    15    1
    14    15    16    1
    15    16    18    1
    16    18    19    1
    17    19    20    2
    18    19    21   am
    19    21    22    1
    20    22    23    1
    21    21    24    1
    22    24    25    1
    23     8     9   ar
    24     9     4   ar
    25    16    17    1
@<TRIPOS>MOLECULE
*****
 25 25 0 0 0
SMALL
GASTEIGER

@<TRIPOS>ATOM
      1 C          -7.7883  -15.9680   24.0463 C.3     1  UNL1        0.2969
      2 F          -7.8174  -16.1475   25.5352 F       1  UNL1       -0.1981
      3 F          -7.7591  -15.7885   22.5574 F       1  UNL1       -0.1981
      4 C         -11.4677  -16.9878   22.9637 C.ar    1  UNL1        0.1384
      5 C         -11.6265  -18.2900   23.6910 C.ar    1  UNL1        0.0369
      6 C         -10.5059  -18.8182   24.5367 C.ar    1  UNL1        0.0030
      7 C          -9.2265  -18.0443   24.6552 C.ar    1  UNL1        0.0012
      8 C          -9.0677  -16.7421   23.9279 C.ar    1  UNL1        0.0422
      9 C         -10.1883  -16.2138   23.0821 C.ar    1  UNL1        0.0379
     10 O         -12.5882  -16.4596   22.1179 O.3     1  UNL1       -0.4755
     11 C         -12.4747  -16.4835   20.6224 C.3     1  UNL1        0.2054
     12 C         -11.2152  -16.9760   19.9736 C.3     1  UNL1        0.0473
     13 C          -9.8640  -19.1616   20.3580 C.3     1  UNL1        0.0001
     14 C         -11.0213  -18.4433   19.7297 C.3     1  UNL1        0.0038
     15 C          -6.5089  -15.1940   24.1647 C.3     1  UNL1        0.1409
     16 N          -5.2672  -15.6888   23.4840 N.3     1  UNL1       -0.2850
     17 H          -4.5581  -14.9653   23.6027 H       1  UNL1        0.1239
     18 C          -4.6416  -16.9829   23.9133 C.3     1  UNL1        0.1553
     19 C          -3.8801  -17.8127   22.9226 C.2     1  UNL1        0.2418
     20 O          -2.3852  -17.7113   22.8510 O.2     1  UNL1       -0.2734
     21 N          -4.6134  -18.7439   22.0034 N.am    1  UNL1       -0.2784
     22 C          -3.8520  -19.5738   21.0127 C.3     1  UNL1        0.0935
     23 C          -3.6826  -19.0908   19.6027 C.3     1  UNL1        0.0233
     24 C          -6.1083  -18.8453   22.0749 C.3     1  UNL1        0.0935
     25 C          -6.7677  -20.1921   22.1138 C.3     1  UNL1        0.0233
@<TRIPOS>BOND
     1    13    14    1
     2    14    12    1
     3    12    11    1
     4    11    10    1
     5    10     4    1
     6     4     5   ar
     7     5     6   ar
     8     6     7   ar
     9     7     8   ar
    10     8     1    1
    11     1     2    1
    12     1     3    1
    13     1    15    1
    14    15    16    1
    15    16    18    1
    16    18    19    1
    17    19    20    2
    18    19    21   am
    19    21    22    1
    20    22    23    1
    21    21    24    1
    22    24    25    1
    23     8     9   ar
    24     9     4   ar
    25    16    17    1
@<TRIPOS>MOLECULE
*****
 25 25 0 0 0
SMALL
GASTEIGER

@<TRIPOS>ATOM
      1 C          -7.1113  -19.1433   21.0668 C.3     1  UNL1        0.2969
      2 F          -8.0726  -17.9979   21.1848 F       1  UNL1       -0.1981
      3 F          -6.1499  -20.2886   20.9488 F       1  UNL1       -0.1981
      4 C          -5.6855  -16.5420   23.7032 C.ar    1  UNL1        0.1384
      5 C          -4.2975  -17.0739   23.9042 C.ar    1  UNL1        0.0369
      6 C          -3.8474  -18.2957   23.1593 C.ar    1  UNL1        0.0030
      7 C          -4.7853  -18.9854   22.2136 C.ar    1  UNL1        0.0012
      8 C          -6.1733  -18.4535   22.0126 C.ar    1  UNL1        0.0422
      9 C          -6.6234  -17.2317   22.7575 C.ar    1  UNL1        0.0379
     10 O          -6.1356  -15.3202   24.4481 O.3     1  UNL1       -0.4755
     11 C          -7.5746  -14.8996   24.3990 C.3     1  UNL1        0.2054
     12 C          -8.6028  -15.6500   25.1925 C.3     1  UNL1        0.0473
     13 C          -8.3928  -15.0677   27.7158 C.3     1  UNL1        0.0001
     14 C          -8.3041  -16.0683   26.6018 C.3     1  UNL1        0.0038
     15 C          -8.0492  -19.8330   20.1211 C.3     1  UNL1        0.1409
     16 N          -9.0711  -19.0372   19.3645 N.3     1  UNL1       -0.2850
     17 H          -8.9166  -19.2255   18.3740 H       1  UNL1        0.1239
     18 C         -10.5326  -19.2538   19.6237 C.3     1  UNL1        0.1553
     19 C         -11.3072  -18.2550   20.4313 C.2     1  UNL1        0.2418
     20 O         -11.8595  -17.0252   19.7736 O.2     1  UNL1       -0.2734
     21 N         -11.5294  -18.4859   21.8966 N.am    1  UNL1       -0.2784
     22 C         -12.3040  -17.4870   22.7043 C.3     1  UNL1        0.0935
     23 C         -13.4058  -17.9486   23.6115 C.3     1  UNL1        0.0233
     24 C         -10.9772  -19.7156   22.5543 C.3     1  UNL1        0.0935
     25 C          -9.8590  -19.5973   23.5473 C.3     1  UNL1        0.0233
@<TRIPOS>BOND
     1    13    14    1
     2    14    12    1
     3    12    11    1
     4    11    10    1
     5    10     4    1
     6     4     5   ar
     7     5     6   ar
     8     6     7   ar
     9     7     8   ar
    10     8     1    1
    11     1     2    1
    12     1     3    1
    13     1    15    1
    14    15    16    1
    15    16    18    1
    16    18    19    1
    17    19    20    2
    18    19    21   am
    19    21    22    1
    20    22    23    1
    21    21    24    1
    22    24    25    1
    23     8     9   ar
    24     9     4   ar
    25    16    17    1
@<TRIPOS>MOLECULE
*****
 25 25 0 0 0
SMALL
GASTEIGER

@<TRIPOS>ATOM
      1 C          -6.6392  -19.9078   20.2472 C.3     1  UNL1        0.2969
      2 F          -7.1310  -18.5162   20.5146 F       1  UNL1       -0.1981
      3 F          -6.1474  -21.2994   19.9799 F       1  UNL1       -0.1981
      4 C          -4.0136  -18.3328   22.7723 C.ar    1  UNL1        0.1384
      5 C          -2.7332  -18.9118   22.2476 C.ar    1  UNL1        0.0369
      6 C          -2.7548  -19.8228   21.0562 C.ar    1  UNL1        0.0030
      7 C          -4.0568  -20.1548   20.3894 C.ar    1  UNL1        0.0012
      8 C          -5.3371  -19.5758   20.9140 C.ar    1  UNL1        0.0422
      9 C          -5.3156  -18.6648   22.1055 C.ar    1  UNL1        0.0379
     10 O          -3.9920  -17.4218   23.9638 O.3     1  UNL1       -0.4755
     11 C          -4.9474  -16.2681   24.0432 C.3     1  UNL1        0.2054
     12 C          -5.2660  -15.6482   25.3714 C.3     1  UNL1        0.0473
     13 C          -7.0763  -15.7115   27.2340 C.3     1  UNL1        0.0001
     14 C          -6.6943  -15.4877   25.8008 C.3     1  UNL1        0.0038
     15 C          -7.9411  -20.2398   19.5805 C.3     1  UNL1        0.1409
     16 N          -8.9482  -19.1587   19.3214 N.3     1  UNL1       -0.2850
     17 H          -9.0774  -19.1128   18.3106 H       1  UNL1        0.1239
     18 C         -10.3167  -19.2472   19.9293 C.3     1  UNL1        0.1553
     19 C         -10.5029  -18.9986   21.3968 C.2     1  UNL1        0.2418
     20 O         -10.5243  -20.1517   22.3560 O.2     1  UNL1       -0.2734
     21 N         -10.6677  -17.5971   21.9051 N.am    1  UNL1       -0.2784
     22 C         -10.8539  -17.3485   23.3726 C.3     1  UNL1        0.0935
     23 C          -9.6602  -17.2711   24.2776 C.3     1  UNL1        0.0233
     24 C         -10.6463  -16.4441   20.9459 C.3     1  UNL1        0.0935
     25 C         -11.8739  -16.1048   20.1534 C.3     1  UNL1        0.0233
@<TRIPOS>BOND
     1    13    14    1
     2    14    12    1
     3    12    11    1
     4    11    10    1
     5    10     4    1
     6     4     5   ar
     7     5     6   ar
     8     6     7   ar
     9     7     8   ar
    10     8     1    1
    11     1     2    1
    12     1     3    1
    13     1    15    1
    14    15    16    1
    15    16    18    1
    16    18    19    1
    17    19    20    2
    18    19    21   am
    19    21    22    1
    20    22    23    1
    21    21    24    1
    22    24    25    1
    23     8     9   ar
    24     9     4   ar
    25    16    17    1
