@<TRIPOS>MOLECULE
*****
 34 38 0 0 0
SMALL
GASTEIGER

@<TRIPOS>ATOM
      1 C           4.0208   -0.9462   30.2047 C.3     1  UNL1        0.0827
      2 C           2.7528   -0.5187   29.5269 C.3     1  UNL1        0.0309
      3 C           2.6990   -0.4181   28.0313 C.3     1  UNL1        0.0954
      4 N           3.9132   -0.7450   27.2134 N.am    1  UNL1       -0.2642
      5 C           3.8593   -0.6444   25.7177 C.2     1  UNL1        0.3039
      6 O           5.0735   -0.9713   24.8998 O.2     1  UNL1       -0.2526
      7 N           2.5913   -0.2169   25.0399 N.am    1  UNL1       -0.2901
      8 C           5.1811   -1.1725   27.8912 C.3     1  UNL1        0.0954
      9 C           5.2350   -1.2731   29.3868 C.3     1  UNL1        0.0309
     10 H           1.7944   -0.0024   25.5767 H       1  UNL1        0.1509
     11 C           4.3915   -0.4900   34.0413 C.ar    1  UNL1        0.2033
     12 N           3.9238   -1.9130   33.9625 N.ar    1  UNL1       -0.0560
     13 O           3.7280   -2.2571   32.5157 O.2     1  UNL1       -0.3370
     14 C           4.0747   -1.0468   31.7003 C.ar    1  UNL1        0.2362
     15 N           4.4848    0.0454   32.6432 N.ar    1  UNL1       -0.1908
     16 C           5.3471    1.7752   37.8104 C.ar    1  UNL1        0.1057
     17 C           6.1983    0.6107   37.3990 C.ar    1  UNL1        0.0184
     18 C           5.8797   -0.1444   36.1427 C.ar    1  UNL1        0.0045
     19 C           4.7100    0.2651   35.2977 C.ar    1  UNL1        0.0392
     20 C           3.8588    1.4296   35.7090 C.ar    1  UNL1        0.0045
     21 C           4.1774    2.1847   36.9654 C.ar    1  UNL1        0.0184
     22 C           5.9841    3.2854   40.3231 C.3     1  UNL1        0.1816
     23 S           5.6656    2.5303   39.0667 S.O2    1  UNL1        0.0104
     24 O           7.0196    2.8712   38.5185 O.2     1  UNL1       -0.1686
     25 O           4.3116    2.1894   39.6149 O.2     1  UNL1       -0.1686
     26 C           2.5374   -0.1163   23.5443 C.3     1  UNL1        0.0774
     27 C           2.1342    0.6282   22.3060 C.3     1  UNL1        0.0259
     28 C           2.8473   -0.6865   22.1919 C.3     1  UNL1        0.0420
     29 C           3.4379   -1.7748   21.3453 C.ar    1  UNL1       -0.0208
     30 C           3.1194   -1.8423   19.8810 C.ar    1  UNL1       -0.0042
     31 C           3.7100   -2.9306   19.0344 C.ar    1  UNL1       -0.0003
     32 C           4.6191   -3.9513   19.6519 C.ar    1  UNL1       -0.0000
     33 C           4.9376   -3.8838   21.1161 C.ar    1  UNL1       -0.0003
     34 C           4.3471   -2.7956   21.9628 C.ar    1  UNL1       -0.0042
@<TRIPOS>BOND
     1    22    23    1
     2    23    24    2
     3    23    25    2
     4    23    16    1
     5    16    17   ar
     6    17    18   ar
     7    18    19   ar
     8    19    11    1
     9    11    12   ar
    10    12    13   ar
    11    13    14   ar
    12    14     1    1
    13     1     2    1
    14     2     3    1
    15     3     4    1
    16     4     5   am
    17     5     6    2
    18     5     7   am
    19     7    26    1
    20    26    27    1
    21    27    28    1
    22    28    29    1
    23    29    30   ar
    24    30    31   ar
    25    31    32   ar
    26    32    33   ar
    27    33    34   ar
    28     4     8    1
    29     8     9    1
    30    14    15   ar
    31    19    20   ar
    32    20    21   ar
    33    21    16   ar
    34    15    11   ar
    35     9     1    1
    36    28    26    1
    37    34    29   ar
    38     7    10    1
@<TRIPOS>MOLECULE
*****
 34 38 0 0 0
SMALL
GASTEIGER

@<TRIPOS>ATOM
      1 C           2.9179    0.8476   29.0239 C.3     1  UNL1        0.0827
      2 C           4.0033    0.0964   29.7364 C.3     1  UNL1        0.0309
      3 C           4.1286    0.1946   31.2279 C.3     1  UNL1        0.0954
      4 N           3.1687    1.0441   32.0069 N.am    1  UNL1       -0.2642
      5 C           3.2941    1.1424   33.4985 C.2     1  UNL1        0.3039
      6 O           2.3342    1.9919   34.2775 O.2     1  UNL1       -0.2526
      7 N           4.3795    0.3911   34.2110 N.am    1  UNL1       -0.2901
      8 C           2.0834    1.7954   31.2945 C.3     1  UNL1        0.0954
      9 C           1.9580    1.6971   29.8030 C.3     1  UNL1        0.0309
     10 H           5.0095   -0.1664   33.6997 H       1  UNL1        0.1509
     11 C           3.0101   -0.0294   25.2440 C.ar    1  UNL1        0.2033
     12 N           2.1888    1.2257   25.2304 N.ar    1  UNL1       -0.0560
     13 O           2.0543    1.7071   26.6447 O.2     1  UNL1       -0.3370
     14 C           2.7925    0.7494   27.5324 C.ar    1  UNL1        0.2362
     15 N           3.3831   -0.3238   26.6667 N.ar    1  UNL1       -0.1908
     16 C           4.1538   -2.4812   21.6481 C.ar    1  UNL1        0.1057
     17 C           4.6999   -2.8328   23.0001 C.ar    1  UNL1        0.0184
     18 C           4.3187   -2.0156   24.1987 C.ar    1  UNL1        0.0045
     19 C           3.3913   -0.8467   24.0454 C.ar    1  UNL1        0.0392
     20 C           2.8451   -0.4951   22.6934 C.ar    1  UNL1        0.0045
     21 C           3.2263   -1.3123   21.4947 C.ar    1  UNL1        0.0184
     22 C           4.9162   -4.1157   19.2508 C.3     1  UNL1        0.1816
     23 S           4.5350   -3.2984   20.4494 S.O2    1  UNL1        0.0104
     24 O           3.7672   -2.3606   19.5658 O.2     1  UNL1       -0.1686
     25 O           5.3028   -4.2363   21.3331 O.2     1  UNL1       -0.1686
     26 C           4.5049    0.4894   35.7025 C.3     1  UNL1        0.0774
     27 C           5.3168    0.3172   36.9520 C.3     1  UNL1        0.0259
     28 C           3.9104    0.8317   37.0364 C.3     1  UNL1        0.0420
     29 C           2.7551    1.3264   37.8553 C.ar    1  UNL1       -0.0208
     30 C           2.0979    0.4174   38.8511 C.ar    1  UNL1       -0.0042
     31 C           0.9426    0.9121   39.6700 C.ar    1  UNL1       -0.0003
     32 C           0.4445    2.3158   39.4930 C.ar    1  UNL1       -0.0000
     33 C           1.1017    3.2248   38.4971 C.ar    1  UNL1       -0.0003
     34 C           2.2569    2.7302   37.6783 C.ar    1  UNL1       -0.0042
@<TRIPOS>BOND
     1    22    23    1
     2    23    24    2
     3    23    25    2
     4    23    16    1
     5    16    17   ar
     6    17    18   ar
     7    18    19   ar
     8    19    11    1
     9    11    12   ar
    10    12    13   ar
    11    13    14   ar
    12    14     1    1
    13     1     2    1
    14     2     3    1
    15     3     4    1
    16     4     5   am
    17     5     6    2
    18     5     7   am
    19     7    26    1
    20    26    27    1
    21    27    28    1
    22    28    29    1
    23    29    30   ar
    24    30    31   ar
    25    31    32   ar
    26    32    33   ar
    27    33    34   ar
    28     4     8    1
    29     8     9    1
    30    14    15   ar
    31    19    20   ar
    32    20    21   ar
    33    21    16   ar
    34    15    11   ar
    35     9     1    1
    36    28    26    1
    37    34    29   ar
    38     7    10    1
@<TRIPOS>MOLECULE
*****
 34 38 0 0 0
SMALL
GASTEIGER

@<TRIPOS>ATOM
      1 C          -0.4358    2.0625   27.7506 C.3     1  UNL1        0.0827
      2 C           0.3240    2.9692   28.6729 C.3     1  UNL1        0.0309
      3 C           1.2298    2.3880   29.7177 C.3     1  UNL1        0.0954
      4 N           1.3758    0.9002   29.8402 N.am    1  UNL1       -0.2642
      5 C           2.2817    0.3189   30.8851 C.2     1  UNL1        0.3039
      6 O           2.4278   -1.1689   31.0075 O.2     1  UNL1       -0.2526
      7 N           3.0415    1.2256   31.8075 N.am    1  UNL1       -0.2901
      8 C           0.6161   -0.0064   28.9179 C.3     1  UNL1        0.0954
      9 C          -0.2897    0.5747   27.8730 C.3     1  UNL1        0.0309
     10 H           2.9456    2.2021   31.7271 H       1  UNL1        0.1509
     11 C          -3.2552    3.6708   25.6222 C.ar    1  UNL1        0.2033
     12 N          -2.2160    3.4052   24.5736 N.ar    1  UNL1       -0.0560
     13 O          -1.0334    2.7704   25.2432 O.2     1  UNL1       -0.3370
     14 C          -1.3416    2.6437   26.7057 C.ar    1  UNL1        0.2362
     15 N          -2.7147    3.2002   26.9399 N.ar    1  UNL1       -0.1908
     16 C          -7.2861    5.5497   24.9355 C.ar    1  UNL1        0.1057
     17 C          -6.5155    5.8628   26.1837 C.ar    1  UNL1        0.0184
     18 C          -5.1719    5.2365   26.4126 C.ar    1  UNL1        0.0045
     19 C          -4.5988    4.2971   25.3933 C.ar    1  UNL1        0.0392
     20 C          -5.3694    3.9840   24.1450 C.ar    1  UNL1        0.0045
     21 C          -6.7130    4.6103   23.9161 C.ar    1  UNL1        0.0184
     22 C          -9.9734    6.8022   24.4777 C.3     1  UNL1        0.1816
     23 S          -8.6297    6.1760   24.7066 S.O2    1  UNL1        0.0104
     24 O          -8.7398    6.4756   26.1722 O.2     1  UNL1       -0.1686
     25 O          -8.5197    5.8763   23.2409 O.2     1  UNL1       -0.1686
     26 C           3.9473    0.6445   32.8523 C.3     1  UNL1        0.0774
     27 C           4.4179    0.5834   34.2753 C.3     1  UNL1        0.0259
     28 C           5.0456   -0.3011   33.2391 C.3     1  UNL1        0.0420
     29 C           6.0422   -1.3576   32.8642 C.ar    1  UNL1       -0.0208
     30 C           7.5078   -1.0387   32.8606 C.ar    1  UNL1       -0.0042
     31 C           8.5044   -2.0953   32.4857 C.ar    1  UNL1       -0.0003
     32 C           8.0352   -3.4707   32.1145 C.ar    1  UNL1       -0.0000
     33 C           6.5695   -3.7897   32.1181 C.ar    1  UNL1       -0.0003
     34 C           5.5730   -2.7332   32.4930 C.ar    1  UNL1       -0.0042
@<TRIPOS>BOND
     1    22    23    1
     2    23    24    2
     3    23    25    2
     4    23    16    1
     5    16    17   ar
     6    17    18   ar
     7    18    19   ar
     8    19    11    1
     9    11    12   ar
    10    12    13   ar
    11    13    14   ar
    12    14     1    1
    13     1     2    1
    14     2     3    1
    15     3     4    1
    16     4     5   am
    17     5     6    2
    18     5     7   am
    19     7    26    1
    20    26    27    1
    21    27    28    1
    22    28    29    1
    23    29    30   ar
    24    30    31   ar
    25    31    32   ar
    26    32    33   ar
    27    33    34   ar
    28     4     8    1
    29     8     9    1
    30    14    15   ar
    31    19    20   ar
    32    20    21   ar
    33    21    16   ar
    34    15    11   ar
    35     9     1    1
    36    28    26    1
    37    34    29   ar
    38     7    10    1
@<TRIPOS>MOLECULE
*****
 34 38 0 0 0
SMALL
GASTEIGER

@<TRIPOS>ATOM
      1 C           3.9768   -2.0454   21.8160 C.3     1  UNL1        0.0827
      2 C           3.2559   -1.0422   22.6669 C.3     1  UNL1        0.0309
      3 C           2.2572   -0.1115   22.0454 C.3     1  UNL1        0.0954
      4 N           1.9794   -0.1839   20.5731 N.am    1  UNL1       -0.2642
      5 C           0.9806    0.7469   19.9516 C.2     1  UNL1        0.3039
      6 O           0.7028    0.6744   18.4794 O.2     1  UNL1       -0.2526
      7 N           0.2597    1.7501   20.8024 N.am    1  UNL1       -0.2901
      8 C           2.7003   -1.1870   19.7224 C.3     1  UNL1        0.0954
      9 C           3.6990   -2.1178   20.3438 C.3     1  UNL1        0.0309
     10 H           0.4420    1.7976   21.7687 H       1  UNL1        0.1509
     11 C           6.3348   -4.1454   24.0734 C.ar    1  UNL1        0.2033
     12 N           6.6902   -4.6714   22.7143 N.ar    1  UNL1       -0.0560
     13 O           5.8502   -3.9488   21.7033 O.2     1  UNL1       -0.3370
     14 C           4.9756   -2.9761   22.4375 C.ar    1  UNL1        0.2362
     15 N           5.2751   -3.0976   23.9022 N.ar    1  UNL1       -0.1908
     16 C           8.1320   -5.4768   27.9782 C.ar    1  UNL1        0.1057
     17 C           7.7542   -4.0390   27.7779 C.ar    1  UNL1        0.0184
     18 C           7.1551   -3.5952   26.4763 C.ar    1  UNL1        0.0045
     19 C           6.9338   -4.5892   25.3750 C.ar    1  UNL1        0.0392
     20 C           7.3117   -6.0269   25.5752 C.ar    1  UNL1        0.0045
     21 C           7.9107   -6.4707   26.8768 C.ar    1  UNL1        0.0184
     22 C           9.3302   -6.3643   30.5813 C.3     1  UNL1        0.1816
     23 S           8.7311   -5.9206   29.2797 S.O2    1  UNL1        0.0104
     24 O           8.8219   -4.4911   29.7253 O.2     1  UNL1       -0.1686
     25 O           8.6403   -7.3500   28.8342 O.2     1  UNL1       -0.1686
     26 C          -0.7391    2.6808   20.1810 C.3     1  UNL1        0.0774
     27 C          -1.1250    3.6271   19.0830 C.3     1  UNL1        0.0259
     28 C          -2.0830    3.3467   20.2026 C.3     1  UNL1        0.0420
     29 C          -3.4121    3.5692   20.8615 C.ar    1  UNL1       -0.0208
     30 C          -4.6276    3.8403   20.0255 C.ar    1  UNL1       -0.0042
     31 C          -5.9567    4.0628   20.6844 C.ar    1  UNL1       -0.0003
     32 C          -6.0701    4.0143   22.1792 C.ar    1  UNL1       -0.0000
     33 C          -4.8545    3.7432   23.0152 C.ar    1  UNL1       -0.0003
     34 C          -3.5256    3.5207   22.3564 C.ar    1  UNL1       -0.0042
@<TRIPOS>BOND
     1    22    23    1
     2    23    24    2
     3    23    25    2
     4    23    16    1
     5    16    17   ar
     6    17    18   ar
     7    18    19   ar
     8    19    11    1
     9    11    12   ar
    10    12    13   ar
    11    13    14   ar
    12    14     1    1
    13     1     2    1
    14     2     3    1
    15     3     4    1
    16     4     5   am
    17     5     6    2
    18     5     7   am
    19     7    26    1
    20    26    27    1
    21    27    28    1
    22    28    29    1
    23    29    30   ar
    24    30    31   ar
    25    31    32   ar
    26    32    33   ar
    27    33    34   ar
    28     4     8    1
    29     8     9    1
    30    14    15   ar
    31    19    20   ar
    32    20    21   ar
    33    21    16   ar
    34    15    11   ar
    35     9     1    1
    36    28    26    1
    37    34    29   ar
    38     7    10    1
@<TRIPOS>MOLECULE
*****
 34 38 0 0 0
SMALL
GASTEIGER

@<TRIPOS>ATOM
      1 C           4.9033   -1.1318   28.7248 C.3     1  UNL1        0.0827
      2 C           5.7032   -2.0884   27.8912 C.3     1  UNL1        0.0309
      3 C           5.3946   -2.2510   26.4323 C.3     1  UNL1        0.0954
      4 N           4.2862   -1.4569   25.8071 N.am    1  UNL1       -0.2642
      5 C           3.9777   -1.6195   24.3482 C.2     1  UNL1        0.3039
      6 O           2.8693   -0.8255   23.7229 O.2     1  UNL1       -0.2526
      7 N           4.7776   -2.5762   23.5145 N.am    1  UNL1       -0.2901
      8 C           3.4864   -0.5003   26.6407 C.3     1  UNL1        0.0954
      9 C           3.7949   -0.3377   28.0996 C.3     1  UNL1        0.0309
     10 H           5.5051   -3.0974   23.9249 H       1  UNL1        0.1509
     11 C           5.0400   -0.3508   32.5244 C.ar    1  UNL1        0.2033
     12 N           6.3329   -1.0869   32.3331 N.ar    1  UNL1       -0.0560
     13 O           6.4391   -1.4691   30.8865 O.2     1  UNL1       -0.3370
     14 C           5.2118   -0.9691   30.1837 C.ar    1  UNL1        0.2362
     15 N           4.3472   -0.2780   31.1960 N.ar    1  UNL1       -0.1908
     16 C           3.5089    1.3421   36.4026 C.ar    1  UNL1        0.1057
     17 C           4.4682    0.1890   36.4144 C.ar    1  UNL1        0.0184
     18 C           4.9786   -0.3753   35.1217 C.ar    1  UNL1        0.0045
     19 C           4.5297    0.2135   33.8172 C.ar    1  UNL1        0.0392
     20 C           3.5704    1.3665   33.8054 C.ar    1  UNL1        0.0045
     21 C           3.0600    1.9308   35.0981 C.ar    1  UNL1        0.0184
     22 C           2.4882    2.4706   38.9880 C.3     1  UNL1        0.1816
     23 S           2.9986    1.9063   37.6953 S.O2    1  UNL1        0.0104
     24 O           3.9874    1.0691   38.4511 O.2     1  UNL1       -0.1686
     25 O           2.0098    2.7436   36.9395 O.2     1  UNL1       -0.1686
     26 C           4.4691   -2.7388   22.0556 C.3     1  UNL1        0.0774
     27 C           4.5735   -3.5311   20.7862 C.3     1  UNL1        0.0259
     28 C           3.8303   -2.2283   20.7981 C.3     1  UNL1        0.0420
     29 C           3.0324   -1.1813   20.0790 C.ar    1  UNL1       -0.0208
     30 C           1.6168   -0.9034   20.4898 C.ar    1  UNL1       -0.0042
     31 C           0.8189    0.1436   19.7707 C.ar    1  UNL1       -0.0003
     32 C           1.4366    0.9127   18.6407 C.ar    1  UNL1       -0.0000
     33 C           2.8522    0.6348   18.2299 C.ar    1  UNL1       -0.0003
     34 C           3.6501   -0.4121   18.9490 C.ar    1  UNL1       -0.0042
@<TRIPOS>BOND
     1    22    23    1
     2    23    24    2
     3    23    25    2
     4    23    16    1
     5    16    17   ar
     6    17    18   ar
     7    18    19   ar
     8    19    11    1
     9    11    12   ar
    10    12    13   ar
    11    13    14   ar
    12    14     1    1
    13     1     2    1
    14     2     3    1
    15     3     4    1
    16     4     5   am
    17     5     6    2
    18     5     7   am
    19     7    26    1
    20    26    27    1
    21    27    28    1
    22    28    29    1
    23    29    30   ar
    24    30    31   ar
    25    31    32   ar
    26    32    33   ar
    27    33    34   ar
    28     4     8    1
    29     8     9    1
    30    14    15   ar
    31    19    20   ar
    32    20    21   ar
    33    21    16   ar
    34    15    11   ar
    35     9     1    1
    36    28    26    1
    37    34    29   ar
    38     7    10    1
@<TRIPOS>MOLECULE
*****
 34 38 0 0 0
SMALL
GASTEIGER

@<TRIPOS>ATOM
      1 C           0.0105    1.6889   27.0347 C.3     1  UNL1        0.0827
      2 C           1.4917    1.7569   26.8079 C.3     1  UNL1        0.0309
      3 C           2.4262    1.0395   27.7363 C.3     1  UNL1        0.0954
      4 N           1.8796    0.2543   28.8915 N.am    1  UNL1       -0.2642
      5 C           2.8142   -0.4631   29.8200 C.2     1  UNL1        0.3039
      6 O           2.2676   -1.2484   30.9752 O.2     1  UNL1       -0.2526
      7 N           4.2954   -0.3952   29.5932 N.am    1  UNL1       -0.2901
      8 C           0.3985    0.1863   29.1183 C.3     1  UNL1        0.0954
      9 C          -0.5361    0.9036   28.1899 C.3     1  UNL1        0.0309
     10 H           4.6542    0.1203   28.8350 H       1  UNL1        0.1509
     11 C          -2.8870    3.5203   25.2136 C.ar    1  UNL1        0.2033
     12 N          -1.8379    3.4999   24.1417 N.ar    1  UNL1       -0.0560
     13 O          -0.6248    2.8114   24.6934 O.2     1  UNL1       -0.3370
     14 C          -0.9241    2.4062   26.1063 C.ar    1  UNL1        0.2362
     15 N          -2.3223    2.8444   26.4278 N.ar    1  UNL1       -0.1908
     16 C          -7.0053    5.2972   24.8505 C.ar    1  UNL1        0.1057
     17 C          -6.4132    4.5356   23.7019 C.ar    1  UNL1        0.0184
     18 C          -5.0404    3.9433   23.8230 C.ar    1  UNL1        0.0045
     19 C          -4.2598    4.1126   25.0926 C.ar    1  UNL1        0.0392
     20 C          -4.8519    4.8742   26.2412 C.ar    1  UNL1        0.0045
     21 C          -6.2247    5.4665   26.1201 C.ar    1  UNL1        0.0184
     22 C          -9.7509    6.4818   24.6085 C.3     1  UNL1        0.1816
     23 S          -8.3781    5.8895   24.7295 S.O2    1  UNL1        0.0104
     24 O          -8.2907    6.3811   26.1440 O.2     1  UNL1       -0.1686
     25 O          -8.4655    5.3979   23.3151 O.2     1  UNL1       -0.1686
     26 C           5.2300   -1.1125   30.5216 C.3     1  UNL1        0.0774
     27 C           6.2773   -2.1603   30.7565 C.3     1  UNL1        0.0259
     28 C           5.8015   -1.3071   31.8947 C.3     1  UNL1        0.0420
     29 C           5.8568   -0.9269   33.3447 C.ar    1  UNL1       -0.0208
     30 C           4.6040   -0.9317   34.1696 C.ar    1  UNL1       -0.0042
     31 C           4.6593   -0.5514   35.6195 C.ar    1  UNL1       -0.0003
     32 C           5.9673   -0.1664   36.2445 C.ar    1  UNL1       -0.0000
     33 C           7.2201   -0.1616   35.4196 C.ar    1  UNL1       -0.0003
     34 C           7.1648   -0.5418   33.9697 C.ar    1  UNL1       -0.0042
@<TRIPOS>BOND
     1    22    23    1
     2    23    24    2
     3    23    25    2
     4    23    16    1
     5    16    17   ar
     6    17    18   ar
     7    18    19   ar
     8    19    11    1
     9    11    12   ar
    10    12    13   ar
    11    13    14   ar
    12    14     1    1
    13     1     2    1
    14     2     3    1
    15     3     4    1
    16     4     5   am
    17     5     6    2
    18     5     7   am
    19     7    26    1
    20    26    27    1
    21    27    28    1
    22    28    29    1
    23    29    30   ar
    24    30    31   ar
    25    31    32   ar
    26    32    33   ar
    27    33    34   ar
    28     4     8    1
    29     8     9    1
    30    14    15   ar
    31    19    20   ar
    32    20    21   ar
    33    21    16   ar
    34    15    11   ar
    35     9     1    1
    36    28    26    1
    37    34    29   ar
    38     7    10    1
@<TRIPOS>MOLECULE
*****
 34 38 0 0 0
SMALL
GASTEIGER

@<TRIPOS>ATOM
      1 C          -5.8228    4.7762   23.3657 C.3     1  UNL1        0.0827
      2 C          -5.7668    5.0243   21.8874 C.3     1  UNL1        0.0309
      3 C          -4.5545    4.6165   21.1039 C.3     1  UNL1        0.0954
      4 N          -3.3982    3.9606   21.7987 N.am    1  UNL1       -0.2642
      5 C          -2.1857    3.5528   21.0151 C.2     1  UNL1        0.3039
      6 O          -1.0294    2.8968   21.7099 O.2     1  UNL1       -0.2526
      7 N          -2.1297    3.8009   19.5368 N.am    1  UNL1       -0.2901
      8 C          -3.4542    3.7125   23.2769 C.3     1  UNL1        0.0954
      9 C          -4.6665    4.1203   24.0604 C.3     1  UNL1        0.0309
     10 H          -2.8887    4.2314   19.0808 H       1  UNL1        0.1509
     11 C          -9.3413    5.5793   24.7942 C.ar    1  UNL1        0.2033
     12 N          -8.4602    6.0439   25.9157 N.ar    1  UNL1       -0.0560
     13 O          -7.0349    5.7996   25.5171 O.2     1  UNL1       -0.3370
     14 C          -7.0351    5.1840   24.1492 C.ar    1  UNL1        0.2362
     15 N          -8.4605    5.0479   23.7025 N.ar    1  UNL1       -0.1908
     16 C         -13.8374    5.7498   24.7183 C.ar    1  UNL1        0.1057
     17 C         -13.1403    4.4432   24.9566 C.ar    1  UNL1        0.0184
     18 C         -11.6416    4.3864   24.9820 C.ar    1  UNL1        0.0045
     19 C         -10.8400    5.6361   24.7689 C.ar    1  UNL1        0.0392
     20 C         -11.5371    6.9427   24.5305 C.ar    1  UNL1        0.0045
     21 C         -13.0358    6.9995   24.5052 C.ar    1  UNL1        0.0184
     22 C         -16.8348    5.8634   24.6676 C.3     1  UNL1        0.1816
     23 S         -15.3361    5.8066   24.6929 S.O2    1  UNL1        0.0104
     24 O         -15.2755    7.2770   24.4028 O.2     1  UNL1       -0.1686
     25 O         -15.3968    4.3362   24.9830 O.2     1  UNL1       -0.1686
     26 C          -0.9174    3.3931   18.7533 C.3     1  UNL1        0.0774
     27 C           0.0287    3.6208   17.6118 C.3     1  UNL1        0.0259
     28 C           0.2362    2.4590   18.5375 C.3     1  UNL1        0.0420
     29 C           1.0221    1.2488   18.9474 C.ar    1  UNL1       -0.0208
     30 C           0.5290    0.3772   20.0642 C.ar    1  UNL1       -0.0042
     31 C           1.3149   -0.8329   20.4741 C.ar    1  UNL1       -0.0003
     32 C           2.5938   -1.1714   19.7672 C.ar    1  UNL1       -0.0000
     33 C           3.0869   -0.2998   18.6505 C.ar    1  UNL1       -0.0003
     34 C           2.3011    0.9103   18.2406 C.ar    1  UNL1       -0.0042
@<TRIPOS>BOND
     1    22    23    1
     2    23    24    2
     3    23    25    2
     4    23    16    1
     5    16    17   ar
     6    17    18   ar
     7    18    19   ar
     8    19    11    1
     9    11    12   ar
    10    12    13   ar
    11    13    14   ar
    12    14     1    1
    13     1     2    1
    14     2     3    1
    15     3     4    1
    16     4     5   am
    17     5     6    2
    18     5     7   am
    19     7    26    1
    20    26    27    1
    21    27    28    1
    22    28    29    1
    23    29    30   ar
    24    30    31   ar
    25    31    32   ar
    26    32    33   ar
    27    33    34   ar
    28     4     8    1
    29     8     9    1
    30    14    15   ar
    31    19    20   ar
    32    20    21   ar
    33    21    16   ar
    34    15    11   ar
    35     9     1    1
    36    28    26    1
    37    34    29   ar
    38     7    10    1
@<TRIPOS>MOLECULE
*****
 34 38 0 0 0
SMALL
GASTEIGER

@<TRIPOS>ATOM
      1 C          -7.8551    5.3730   23.9942 C.3     1  UNL1        0.0827
      2 C          -6.9885    5.3790   25.2186 C.3     1  UNL1        0.0309
      3 C          -5.6162    4.7755   25.1690 C.3     1  UNL1        0.0954
      4 N          -5.1104    4.1661   23.8952 N.am    1  UNL1       -0.2642
      5 C          -3.7380    3.5626   23.8457 C.2     1  UNL1        0.3039
      6 O          -3.2321    2.9532   22.5718 O.2     1  UNL1       -0.2526
      7 N          -2.8714    3.5686   25.0701 N.am    1  UNL1       -0.2901
      8 C          -5.9769    4.1601   22.6709 C.3     1  UNL1        0.0954
      9 C          -7.3492    4.7636   22.7203 C.3     1  UNL1        0.0309
     10 H          -3.2034    3.9686   25.9061 H       1  UNL1        0.1509
     11 C         -11.5507    6.3835   24.6156 C.ar    1  UNL1        0.2033
     12 N         -11.1279    7.4264   23.6239 N.ar    1  UNL1       -0.0560
     13 O          -9.6920    7.1748   23.2704 O.2     1  UNL1       -0.3370
     14 C          -9.2274    5.9764   24.0436 C.ar    1  UNL1        0.2362
     15 N         -10.3762    5.4874   24.8750 N.ar    1  UNL1       -0.1908
     16 C         -15.6271    6.0090   26.4845 C.ar    1  UNL1        0.1057
     17 C         -14.9661    7.3521   26.3896 C.ar    1  UNL1        0.0184
     18 C         -13.6073    7.4770   25.7667 C.ar    1  UNL1        0.0045
     19 C         -12.9095    6.2587   25.2386 C.ar    1  UNL1        0.0392
     20 C         -13.5706    4.9156   25.3335 C.ar    1  UNL1        0.0045
     21 C         -14.9294    4.7908   25.9564 C.ar    1  UNL1        0.0184
     22 C         -18.3447    5.7594   27.7304 C.3     1  UNL1        0.1816
     23 S         -16.9859    5.8842   27.1075 S.O2    1  UNL1        0.0104
     24 O         -16.3597    5.3735   28.3712 O.2     1  UNL1       -0.1686
     25 O         -17.6122    6.3949   25.8438 O.2     1  UNL1       -0.1686
     26 C          -1.4991    2.9651   25.0206 C.3     1  UNL1        0.0774
     27 C          -0.2094    2.7287   24.2919 C.3     1  UNL1        0.0259
     28 C          -0.4117    2.1564   25.6636 C.3     1  UNL1        0.0420
     29 C           0.0994    1.3590   26.8268 C.ar    1  UNL1       -0.0208
     30 C          -0.8663    0.7060   27.7707 C.ar    1  UNL1       -0.0042
     31 C          -0.3552   -0.0914   28.9339 C.ar    1  UNL1       -0.0003
     32 C           1.1215   -0.2357   29.1531 C.ar    1  UNL1       -0.0000
     33 C           2.0873    0.4173   28.2093 C.ar    1  UNL1       -0.0003
     34 C           1.5763    1.2146   27.0462 C.ar    1  UNL1       -0.0042
@<TRIPOS>BOND
     1    22    23    1
     2    23    24    2
     3    23    25    2
     4    23    16    1
     5    16    17   ar
     6    17    18   ar
     7    18    19   ar
     8    19    11    1
     9    11    12   ar
    10    12    13   ar
    11    13    14   ar
    12    14     1    1
    13     1     2    1
    14     2     3    1
    15     3     4    1
    16     4     5   am
    17     5     6    2
    18     5     7   am
    19     7    26    1
    20    26    27    1
    21    27    28    1
    22    28    29    1
    23    29    30   ar
    24    30    31   ar
    25    31    32   ar
    26    32    33   ar
    27    33    34   ar
    28     4     8    1
    29     8     9    1
    30    14    15   ar
    31    19    20   ar
    32    20    21   ar
    33    21    16   ar
    34    15    11   ar
    35     9     1    1
    36    28    26    1
    37    34    29   ar
    38     7    10    1
@<TRIPOS>MOLECULE
*****
 34 38 0 0 0
SMALL
GASTEIGER

@<TRIPOS>ATOM
      1 C           1.3678    1.5354   29.1361 C.3     1  UNL1        0.0827
      2 C           2.5511    0.7800   29.6647 C.3     1  UNL1        0.0309
      3 C           2.9287    0.8949   31.1118 C.3     1  UNL1        0.0954
      4 N           2.1232    1.7651   32.0303 N.am    1  UNL1       -0.2642
      5 C           2.5008    1.8800   33.4775 C.2     1  UNL1        0.3039
      6 O           1.6953    2.7502   34.3961 O.2     1  UNL1       -0.2526
      7 N           3.6841    1.1246   34.0061 N.am    1  UNL1       -0.2901
      8 C           0.9400    2.5204   31.5018 C.3     1  UNL1        0.0954
      9 C           0.5622    2.4055   30.0547 C.3     1  UNL1        0.0309
     10 H           4.2129    0.5535   33.4032 H       1  UNL1        0.1509
     11 C           1.0936    0.9813   25.3043 C.ar    1  UNL1        0.2033
     12 N          -0.2756    1.5062   25.6200 N.ar    1  UNL1       -0.0560
     13 O          -0.3396    1.7776   27.0938 O.2     1  UNL1       -0.3370
     14 C           0.9901    1.4205   27.6890 C.ar    1  UNL1        0.2362
     15 N           1.8759    0.9284   26.5830 N.ar    1  UNL1       -0.1908
     16 C           2.5914   -0.2230   21.2353 C.ar    1  UNL1        0.1057
     17 C           3.2179   -0.8050   22.4677 C.ar    1  UNL1        0.0184
     18 C           2.7186   -0.4036   23.8240 C.ar    1  UNL1        0.0045
     19 C           1.5929    0.5799   23.9479 C.ar    1  UNL1        0.0392
     20 C           0.9664    1.1619   22.7156 C.ar    1  UNL1        0.0045
     21 C           1.4657    0.7605   21.3593 C.ar    1  UNL1        0.0184
     22 C           3.5900   -1.0258   18.5227 C.3     1  UNL1        0.1816
     23 S           3.0907   -0.6244   19.8790 S.O2    1  UNL1        0.0104
     24 O           3.4250   -1.9885   20.4058 O.2     1  UNL1       -0.1686
     25 O           2.7565    0.7397   19.3522 O.2     1  UNL1       -0.1686
     26 C           4.0618    1.2395   35.4532 C.3     1  UNL1        0.0774
     27 C           5.1147    1.3136   36.5190 C.3     1  UNL1        0.0259
     28 C           3.6632    1.3643   36.8938 C.3     1  UNL1        0.0420
     29 C           2.5950    1.4656   37.9420 C.ar    1  UNL1       -0.0208
     30 C           2.2635    0.2754   38.7926 C.ar    1  UNL1       -0.0042
     31 C           1.1953    0.3767   39.8408 C.ar    1  UNL1       -0.0003
     32 C           0.4587    1.6682   40.0384 C.ar    1  UNL1       -0.0000
     33 C           0.7901    2.8585   39.1878 C.ar    1  UNL1       -0.0003
     34 C           1.8582    2.7572   38.1397 C.ar    1  UNL1       -0.0042
@<TRIPOS>BOND
     1    22    23    1
     2    23    24    2
     3    23    25    2
     4    23    16    1
     5    16    17   ar
     6    17    18   ar
     7    18    19   ar
     8    19    11    1
     9    11    12   ar
    10    12    13   ar
    11    13    14   ar
    12    14     1    1
    13     1     2    1
    14     2     3    1
    15     3     4    1
    16     4     5   am
    17     5     6    2
    18     5     7   am
    19     7    26    1
    20    26    27    1
    21    27    28    1
    22    28    29    1
    23    29    30   ar
    24    30    31   ar
    25    31    32   ar
    26    32    33   ar
    27    33    34   ar
    28     4     8    1
    29     8     9    1
    30    14    15   ar
    31    19    20   ar
    32    20    21   ar
    33    21    16   ar
    34    15    11   ar
    35     9     1    1
    36    28    26    1
    37    34    29   ar
    38     7    10    1
