@<TRIPOS>MOLECULE
*****
 34 36 0 0 0
SMALL
GASTEIGER

@<TRIPOS>ATOM
      1 N           7.7895   -4.5865   20.6831 N.pl3   1  UNL1       -0.3568
      2 C           7.6092   -4.5479   22.1717 C.ar    1  UNL1        0.0482
      3 C           8.6627   -5.1251   23.0700 C.ar    1  UNL1        0.0452
      4 C           8.4824   -5.0865   24.5586 C.ar    1  UNL1        0.1598
      5 F           9.5359   -5.6638   25.4569 F       1  UNL1       -0.2027
      6 C           7.2486   -4.4706   25.1490 C.ar    1  UNL1        0.1497
      7 C           6.1952   -3.8933   24.2507 C.ar    1  UNL1        0.0280
      8 C           6.3755   -3.9320   22.7620 C.ar    1  UNL1        0.0680
      9 H           8.5993   -4.9908   20.2956 H       1  UNL1        0.1424
     10 H           7.0981   -4.2076   20.0935 H       1  UNL1        0.1424
     11 C           5.3220   -3.3547   21.8637 C.2     1  UNL1        0.2507
     12 O           4.4696   -4.2625   21.0276 O.2     1  UNL1       -0.2698
     13 N           5.1209   -1.8695   21.8016 N.am    1  UNL1       -0.2802
     14 H           5.6804   -1.2737   22.3504 H       1  UNL1        0.1552
     15 C           4.0675   -1.2922   20.9033 C.ar    1  UNL1        0.0552
     16 C           4.3606   -1.0716   19.4489 C.ar    1  UNL1        0.0468
     17 C           3.3070   -0.4943   18.5506 C.ar    1  UNL1        0.1709
     18 F           3.6002   -0.2738   17.0962 F       1  UNL1       -0.2017
     19 C           1.9605   -0.1375   19.1068 C.ar    1  UNL1        0.1947
     20 F           0.9070    0.4398   18.2086 F       1  UNL1       -0.1994
     21 C           1.6673   -0.3581   20.5613 C.ar    1  UNL1        0.1709
     22 F           0.3208   -0.0013   21.1175 F       1  UNL1       -0.2017
     23 C           2.7208   -0.9354   21.4595 C.ar    1  UNL1        0.0468
     24 S           7.0683   -4.4320   26.6376 S.O2    1  UNL1        0.0655
     25 O           6.4395   -5.7932   26.5968 O.2     1  UNL1       -0.1527
     26 O           7.6971   -3.0707   26.6784 O.2     1  UNL1       -0.1527
     27 N           6.8880   -4.3933   28.1262 N.3     1  UNL1       -0.1553
     28 C           6.4744   -3.1180   28.7987 C.3     1  UNL1        0.0983
     29 C           6.2941   -3.0793   30.2874 C.3     1  UNL1        0.0484
     30 C           6.5274   -4.3160   31.1034 C.3     1  UNL1        0.1134
     31 O           6.3472   -4.2774   32.5921 O.3     1  UNL1       -0.3844
     32 C           6.9411   -5.5914   30.4309 C.3     1  UNL1        0.0484
     33 C           7.1213   -5.6300   28.9423 C.3     1  UNL1        0.0983
     34 H           6.7764   -3.4843   32.9493 H       1  UNL1        0.2103
@<TRIPOS>BOND
     1     1     2    1
     2     2     3   ar
     3     3     4   ar
     4     4     5    1
     5     4     6   ar
     6     6    24    1
     7    24    25    2
     8    24    26    2
     9    24    27    1
    10    27    28    1
    11    28    29    1
    12    29    30    1
    13    30    31    1
    14    30    32    1
    15    32    33    1
    16     6     7   ar
    17     7     8   ar
    18     8    11    1
    19    11    12    2
    20    11    13   am
    21    13    15    1
    22    15    16   ar
    23    16    17   ar
    24    17    18    1
    25    17    19   ar
    26    19    20    1
    27    19    21   ar
    28    21    22    1
    29    21    23   ar
    30     8     2   ar
    31    23    15   ar
    32    33    27    1
    33     1     9    1
    34     1    10    1
    35    31    34    1
    36    13    14    1
@<TRIPOS>MOLECULE
*****
 34 36 0 0 0
SMALL
GASTEIGER

@<TRIPOS>ATOM
      1 N           7.7125   -4.5999   20.5579 N.pl3   1  UNL1       -0.3568
      2 C           7.5571   -4.5669   22.0494 C.ar    1  UNL1        0.0482
      3 C           8.6241   -5.1500   22.9278 C.ar    1  UNL1        0.0452
      4 C           8.4686   -5.1170   24.4193 C.ar    1  UNL1        0.1598
      5 F           9.5357   -5.7001   25.2977 F       1  UNL1       -0.2027
      6 C           7.2462   -4.5010   25.0325 C.ar    1  UNL1        0.1497
      7 C           6.1792   -3.9179   24.1542 C.ar    1  UNL1        0.0280
      8 C           6.3346   -3.9509   22.6627 C.ar    1  UNL1        0.0680
      9 H           8.5149   -5.0042   20.1554 H       1  UNL1        0.1424
     10 H           7.0122   -4.2172   19.9814 H       1  UNL1        0.1424
     11 C           5.2676   -3.3678   21.7843 C.2     1  UNL1        0.2507
     12 O           4.3656   -4.2727   20.9984 O.2     1  UNL1       -0.2698
     13 N           5.1025   -1.8798   21.6919 N.am    1  UNL1       -0.2802
     14 H           5.6945   -1.2858   22.2077 H       1  UNL1        0.1552
     15 C           4.0355   -1.2966   20.8136 C.ar    1  UNL1        0.0552
     16 C           2.6958   -0.9484   21.3915 C.ar    1  UNL1        0.0468
     17 C           1.6287   -0.3653   20.5131 C.ar    1  UNL1        0.1709
     18 F           0.2890   -0.0170   21.0910 F       1  UNL1       -0.2017
     19 C           1.9014   -0.1304   19.0570 C.ar    1  UNL1        0.1947
     20 F           0.8344    0.4528   18.1787 F       1  UNL1       -0.1994
     21 C           3.2412   -0.4786   18.4791 C.ar    1  UNL1        0.1709
     22 F           3.5139   -0.2437   17.0230 F       1  UNL1       -0.2017
     23 C           4.3082   -1.0617   19.3574 C.ar    1  UNL1        0.0468
     24 S           7.0907   -4.4681   26.5241 S.O2    1  UNL1        0.0655
     25 O           7.5381   -3.0364   26.5391 O.2     1  UNL1       -0.1527
     26 O           6.6433   -5.8997   26.5091 O.2     1  UNL1       -0.1527
     27 N           6.9352   -4.4351   28.0157 N.3     1  UNL1       -0.1553
     28 C           7.0712   -5.6989   28.8120 C.3     1  UNL1        0.0983
     29 C           6.9157   -5.6660   30.3035 C.3     1  UNL1        0.0484
     30 C           6.6243   -4.3692   30.9988 C.3     1  UNL1        0.1134
     31 O           6.4689   -4.3363   32.4903 O.3     1  UNL1       -0.3844
     32 C           6.4884   -3.1054   30.2024 C.3     1  UNL1        0.0484
     33 C           6.6439   -3.1383   28.7109 C.3     1  UNL1        0.0983
     34 H           5.9001   -5.0696   32.7724 H       1  UNL1        0.2103
@<TRIPOS>BOND
     1     1     2    1
     2     2     3   ar
     3     3     4   ar
     4     4     5    1
     5     4     6   ar
     6     6    24    1
     7    24    25    2
     8    24    26    2
     9    24    27    1
    10    27    28    1
    11    28    29    1
    12    29    30    1
    13    30    31    1
    14    30    32    1
    15    32    33    1
    16     6     7   ar
    17     7     8   ar
    18     8    11    1
    19    11    12    2
    20    11    13   am
    21    13    15    1
    22    15    16   ar
    23    16    17   ar
    24    17    18    1
    25    17    19   ar
    26    19    20    1
    27    19    21   ar
    28    21    22    1
    29    21    23   ar
    30     8     2   ar
    31    23    15   ar
    32    33    27    1
    33     1     9    1
    34     1    10    1
    35    31    34    1
    36    13    14    1
@<TRIPOS>MOLECULE
*****
 34 36 0 0 0
SMALL
GASTEIGER

@<TRIPOS>ATOM
      1 N           8.7486   -7.0660   23.0745 N.pl3   1  UNL1       -0.3568
      2 C           8.3561   -6.4111   24.3657 C.ar    1  UNL1        0.0482
      3 C           8.8481   -6.9676   25.6688 C.ar    1  UNL1        0.0452
      4 C           8.4556   -6.3126   26.9599 C.ar    1  UNL1        0.1598
      5 F           8.9476   -6.8692   28.2631 F       1  UNL1       -0.2027
      6 C           7.5711   -5.1012   26.9479 C.ar    1  UNL1        0.1497
      7 C           7.0792   -4.5448   25.6447 C.ar    1  UNL1        0.0280
      8 C           7.4717   -5.1997   24.3536 C.ar    1  UNL1        0.0680
      9 H           9.3291   -7.8612   23.0824 H       1  UNL1        0.1424
     10 H           8.4257   -6.7008   22.2192 H       1  UNL1        0.1424
     11 C           6.9797   -4.6432   23.0504 C.2     1  UNL1        0.2507
     12 O           7.7901   -4.8286   21.8020 O.2     1  UNL1       -0.2698
     13 N           5.6772   -3.9012   22.9958 N.am    1  UNL1       -0.2802
     14 H           5.1452   -3.7795   23.8152 H       1  UNL1        0.1552
     15 C           5.1851   -3.3447   21.6926 C.ar    1  UNL1        0.0552
     16 C           4.2737   -4.1609   20.8249 C.ar    1  UNL1        0.0468
     17 C           3.7816   -3.6043   19.5217 C.ar    1  UNL1        0.1709
     18 F           2.8701   -4.4205   18.6540 F       1  UNL1       -0.2017
     19 C           4.2011   -2.2315   19.0864 C.ar    1  UNL1        0.1947
     20 F           3.7091   -1.6750   17.7832 F       1  UNL1       -0.1994
     21 C           5.1126   -1.4153   19.9541 C.ar    1  UNL1        0.1709
     22 F           5.5321   -0.0426   19.5187 F       1  UNL1       -0.2017
     23 C           5.6046   -1.9719   21.2572 C.ar    1  UNL1        0.0468
     24 S           7.1786   -4.4463   28.2390 S.O2    1  UNL1        0.0655
     25 O           5.9907   -5.3566   28.3396 O.2     1  UNL1       -0.1527
     26 O           8.3666   -3.5360   28.1384 O.2     1  UNL1       -0.1527
     27 N           6.7862   -3.7913   29.5302 N.3     1  UNL1       -0.1553
     28 C           6.2559   -2.3882   29.5285 C.3     1  UNL1        0.0983
     29 C           5.8634   -1.7333   30.8197 C.3     1  UNL1        0.0484
     30 C           6.0012   -2.4815   32.1124 C.3     1  UNL1        0.1134
     31 O           5.6087   -1.8265   33.4035 O.3     1  UNL1       -0.3844
     32 C           6.5314   -3.8846   32.1140 C.3     1  UNL1        0.0484
     33 C           6.9239   -4.5395   30.8229 C.3     1  UNL1        0.0983
     34 H           5.9670   -0.9255   33.4310 H       1  UNL1        0.2103
@<TRIPOS>BOND
     1     1     2    1
     2     2     3   ar
     3     3     4   ar
     4     4     5    1
     5     4     6   ar
     6     6    24    1
     7    24    25    2
     8    24    26    2
     9    24    27    1
    10    27    28    1
    11    28    29    1
    12    29    30    1
    13    30    31    1
    14    30    32    1
    15    32    33    1
    16     6     7   ar
    17     7     8   ar
    18     8    11    1
    19    11    12    2
    20    11    13   am
    21    13    15    1
    22    15    16   ar
    23    16    17   ar
    24    17    18    1
    25    17    19   ar
    26    19    20    1
    27    19    21   ar
    28    21    22    1
    29    21    23   ar
    30     8     2   ar
    31    23    15   ar
    32    33    27    1
    33     1     9    1
    34     1    10    1
    35    31    34    1
    36    13    14    1
@<TRIPOS>MOLECULE
*****
 34 36 0 0 0
SMALL
GASTEIGER

@<TRIPOS>ATOM
      1 N           8.7162   -7.2260   23.0826 N.pl3   1  UNL1       -0.3568
      2 C           8.3214   -6.5634   24.3691 C.ar    1  UNL1        0.0482
      3 C           8.7731   -7.1389   25.6786 C.ar    1  UNL1        0.0452
      4 C           8.3783   -6.4763   26.9651 C.ar    1  UNL1        0.1598
      5 F           8.8300   -7.0519   28.2746 F       1  UNL1       -0.2027
      6 C           7.5318   -5.2382   26.9421 C.ar    1  UNL1        0.1497
      7 C           7.0802   -4.6627   25.6327 C.ar    1  UNL1        0.0280
      8 C           7.4750   -5.3253   24.3461 C.ar    1  UNL1        0.0680
      9 H           9.2718   -8.0386   23.0977 H       1  UNL1        0.1424
     10 H           8.4198   -6.8482   22.2231 H       1  UNL1        0.1424
     11 C           7.0233   -4.7497   23.0366 C.2     1  UNL1        0.2507
     12 O           7.8503   -4.9547   21.8021 O.2     1  UNL1       -0.2698
     13 N           5.7446   -3.9692   22.9617 N.am    1  UNL1       -0.2802
     14 H           5.2018   -3.8346   23.7720 H       1  UNL1        0.1552
     15 C           5.2928   -3.3936   21.6523 C.ar    1  UNL1        0.0552
     16 C           5.8206   -2.0662   21.1945 C.ar    1  UNL1        0.0468
     17 C           5.3688   -1.4907   19.8850 C.ar    1  UNL1        0.1709
     18 F           5.8966   -0.1633   19.4272 F       1  UNL1       -0.2017
     19 C           4.3894   -2.2425   19.0334 C.ar    1  UNL1        0.1947
     20 F           3.9377   -1.6669   17.7239 F       1  UNL1       -0.1994
     21 C           3.8616   -3.5698   19.4911 C.ar    1  UNL1        0.1709
     22 F           2.8821   -4.3216   18.6395 F       1  UNL1       -0.2017
     23 C           4.3133   -4.1454   20.8005 C.ar    1  UNL1        0.0468
     24 S           7.1370   -4.5757   28.2286 S.O2    1  UNL1        0.0655
     25 O           8.4016   -3.7694   28.2015 O.2     1  UNL1       -0.1527
     26 O           5.8724   -5.3819   28.2558 O.2     1  UNL1       -0.1527
     27 N           6.7422   -3.9131   29.5151 N.3     1  UNL1       -0.1553
     28 C           6.9286   -4.6332   30.8177 C.3     1  UNL1        0.0983
     29 C           6.5338   -3.9706   32.1042 C.3     1  UNL1        0.0484
     30 C           5.9525   -2.5879   32.0882 C.3     1  UNL1        0.1134
     31 O           5.5577   -1.9253   33.3747 O.3     1  UNL1       -0.3844
     32 C           5.7661   -1.8678   30.7856 C.3     1  UNL1        0.0484
     33 C           6.1610   -2.5304   29.4991 C.3     1  UNL1        0.0983
     34 H           5.0621   -2.5534   33.9230 H       1  UNL1        0.2103
@<TRIPOS>BOND
     1     1     2    1
     2     2     3   ar
     3     3     4   ar
     4     4     5    1
     5     4     6   ar
     6     6    24    1
     7    24    25    2
     8    24    26    2
     9    24    27    1
    10    27    28    1
    11    28    29    1
    12    29    30    1
    13    30    31    1
    14    30    32    1
    15    32    33    1
    16     6     7   ar
    17     7     8   ar
    18     8    11    1
    19    11    12    2
    20    11    13   am
    21    13    15    1
    22    15    16   ar
    23    16    17   ar
    24    17    18    1
    25    17    19   ar
    26    19    20    1
    27    19    21   ar
    28    21    22    1
    29    21    23   ar
    30     8     2   ar
    31    23    15   ar
    32    33    27    1
    33     1     9    1
    34     1    10    1
    35    31    34    1
    36    13    14    1
@<TRIPOS>MOLECULE
*****
 34 36 0 0 0
SMALL
GASTEIGER

@<TRIPOS>ATOM
      1 N          -1.2651    4.4821   18.1685 N.pl3   1  UNL1       -0.3568
      2 C          -0.4318    3.3815   18.7552 C.ar    1  UNL1        0.0482
      3 C           0.7256    2.8233   17.9816 C.ar    1  UNL1        0.0452
      4 C           1.5589    1.7227   18.5683 C.ar    1  UNL1        0.1598
      5 F           2.7165    1.1645   17.7946 F       1  UNL1       -0.2027
      6 C           1.2347    1.1803   19.9287 C.ar    1  UNL1        0.1497
      7 C           0.0772    1.7385   20.7023 C.ar    1  UNL1        0.0280
      8 C          -0.7561    2.8391   20.1156 C.ar    1  UNL1        0.0680
      9 H          -1.0523    4.8381   17.2756 H       1  UNL1        0.1424
     10 H          -2.0249    4.8485   18.6763 H       1  UNL1        0.1424
     11 C          -1.9136    3.3973   20.8893 C.2     1  UNL1        0.2507
     12 O          -1.7127    4.5784   21.7918 O.2     1  UNL1       -0.2698
     13 N          -3.2720    2.7743   20.7605 N.am    1  UNL1       -0.2802
     14 H          -3.4039    1.9991   20.1681 H       1  UNL1        0.1552
     15 C          -4.4295    3.3325   21.5341 C.ar    1  UNL1        0.0552
     16 C          -4.4956    3.1495   23.0214 C.ar    1  UNL1        0.0468
     17 C          -5.6532    3.7077   23.7951 C.ar    1  UNL1        0.1709
     18 F          -5.7192    3.5248   25.2824 F       1  UNL1       -0.2017
     19 C          -6.7446    4.4488   23.0814 C.ar    1  UNL1        0.1947
     20 F          -7.9022    5.0070   23.8551 F       1  UNL1       -0.1994
     21 C          -6.6786    4.6318   21.5941 C.ar    1  UNL1        0.1709
     22 F          -7.7701    5.3729   20.8804 F       1  UNL1       -0.2017
     23 C          -5.5211    4.0736   20.8204 C.ar    1  UNL1        0.0468
     24 S           2.0680    0.0796   20.5154 S.O2    1  UNL1        0.0655
     25 O           3.0775    1.0892   20.9755 O.2     1  UNL1       -0.1527
     26 O           1.0585   -0.9299   20.0553 O.2     1  UNL1       -0.1527
     27 N           2.9013   -1.0210   21.1021 N.3     1  UNL1       -0.1553
     28 C           3.2279   -1.0154   22.5661 C.3     1  UNL1        0.0983
     29 C           4.0612   -2.1161   23.1528 C.3     1  UNL1        0.0484
     30 C           4.5679   -3.2223   22.2756 C.3     1  UNL1        0.1134
     31 O           5.4012   -4.3229   22.8623 O.3     1  UNL1       -0.3844
     32 C           4.2413   -3.2278   20.8116 C.3     1  UNL1        0.0484
     33 C           3.4080   -2.1272   20.2249 C.3     1  UNL1        0.0983
     34 H           6.0775   -3.9415   23.4437 H       1  UNL1        0.2103
@<TRIPOS>BOND
     1     1     2    1
     2     2     3   ar
     3     3     4   ar
     4     4     5    1
     5     4     6   ar
     6     6    24    1
     7    24    25    2
     8    24    26    2
     9    24    27    1
    10    27    28    1
    11    28    29    1
    12    29    30    1
    13    30    31    1
    14    30    32    1
    15    32    33    1
    16     6     7   ar
    17     7     8   ar
    18     8    11    1
    19    11    12    2
    20    11    13   am
    21    13    15    1
    22    15    16   ar
    23    16    17   ar
    24    17    18    1
    25    17    19   ar
    26    19    20    1
    27    19    21   ar
    28    21    22    1
    29    21    23   ar
    30     8     2   ar
    31    23    15   ar
    32    33    27    1
    33     1     9    1
    34     1    10    1
    35    31    34    1
    36    13    14    1
@<TRIPOS>MOLECULE
*****
 34 36 0 0 0
SMALL
GASTEIGER

@<TRIPOS>ATOM
      1 N          -1.4608    4.2319   18.0705 N.pl3   1  UNL1       -0.3568
      2 C          -0.5903    3.2158   18.7485 C.ar    1  UNL1        0.0482
      3 C           0.5706    2.6133   18.0142 C.ar    1  UNL1        0.0452
      4 C           1.4411    1.5971   18.6921 C.ar    1  UNL1        0.1598
      5 F           2.6021    0.9946   17.9577 F       1  UNL1       -0.2027
      6 C           1.1507    1.1834   20.1043 C.ar    1  UNL1        0.1497
      7 C          -0.0102    1.7859   20.8387 C.ar    1  UNL1        0.0280
      8 C          -0.8807    2.8021   20.1607 C.ar    1  UNL1        0.0680
      9 H          -1.2702    4.5035   17.1436 H       1  UNL1        0.1424
     10 H          -2.2227    4.6274   18.5525 H       1  UNL1        0.1424
     11 C          -2.0416    3.4046   20.8951 C.2     1  UNL1        0.2507
     12 O          -1.8444    4.6361   21.7284 O.2     1  UNL1       -0.2698
     13 N          -3.3997    2.7755   20.7961 N.am    1  UNL1       -0.2802
     14 H          -3.5292    1.9672   20.2492 H       1  UNL1        0.1552
     15 C          -4.5607    3.3779   21.5305 C.ar    1  UNL1        0.0552
     16 C          -5.6169    4.1297   20.7759 C.ar    1  UNL1        0.0468
     17 C          -6.7778    4.7322   21.5104 C.ar    1  UNL1        0.1709
     18 F          -7.8341    5.4839   20.7559 F       1  UNL1       -0.2017
     19 C          -6.8825    4.5828   22.9992 C.ar    1  UNL1        0.1947
     20 F          -8.0435    5.1853   23.7335 F       1  UNL1       -0.1994
     21 C          -5.8263    3.8311   23.7537 C.ar    1  UNL1        0.1709
     22 F          -5.9310    3.6818   25.2425 F       1  UNL1       -0.2017
     23 C          -4.6654    3.2286   23.0194 C.ar    1  UNL1        0.0468
     24 S           2.0212    0.1672   20.7823 S.O2    1  UNL1        0.0655
     25 O           2.8554    1.2698   21.3639 O.2     1  UNL1       -0.1527
     26 O           1.1870   -0.9354   20.2006 O.2     1  UNL1       -0.1527
     27 N           2.8917   -0.8490   21.4602 N.3     1  UNL1       -0.1553
     28 C           3.5289   -1.9450   20.6586 C.3     1  UNL1        0.0983
     29 C           4.3994   -2.9612   21.3365 C.3     1  UNL1        0.0484
     30 C           4.6327   -2.8814   22.8161 C.3     1  UNL1        0.1134
     31 O           5.5032   -3.8976   23.4940 O.3     1  UNL1       -0.3844
     32 C           3.9955   -1.7854   23.6177 C.3     1  UNL1        0.0484
     33 C           3.1250   -0.7692   22.9398 C.3     1  UNL1        0.0983
     34 H           5.2684   -4.7850   23.1807 H       1  UNL1        0.2103
@<TRIPOS>BOND
     1     1     2    1
     2     2     3   ar
     3     3     4   ar
     4     4     5    1
     5     4     6   ar
     6     6    24    1
     7    24    25    2
     8    24    26    2
     9    24    27    1
    10    27    28    1
    11    28    29    1
    12    29    30    1
    13    30    31    1
    14    30    32    1
    15    32    33    1
    16     6     7   ar
    17     7     8   ar
    18     8    11    1
    19    11    12    2
    20    11    13   am
    21    13    15    1
    22    15    16   ar
    23    16    17   ar
    24    17    18    1
    25    17    19   ar
    26    19    20    1
    27    19    21   ar
    28    21    22    1
    29    21    23   ar
    30     8     2   ar
    31    23    15   ar
    32    33    27    1
    33     1     9    1
    34     1    10    1
    35    31    34    1
    36    13    14    1
@<TRIPOS>MOLECULE
*****
 34 36 0 0 0
SMALL
GASTEIGER

@<TRIPOS>ATOM
      1 N           1.2207    2.0487   24.0413 N.pl3   1  UNL1       -0.3568
      2 C           0.0929    2.5012   23.1620 C.ar    1  UNL1        0.0482
      3 C          -1.0362    3.3004   23.7419 C.ar    1  UNL1        0.0452
      4 C          -2.1640    3.7529   22.8626 C.ar    1  UNL1        0.1598
      5 F          -3.2931    4.5521   23.4426 F       1  UNL1       -0.2027
      6 C          -2.1627    3.4062   21.4032 C.ar    1  UNL1        0.1497
      7 C          -1.0335    2.6071   20.8232 C.ar    1  UNL1        0.0280
      8 C           0.0942    2.1546   21.7026 C.ar    1  UNL1        0.0680
      9 H           1.2198    2.2762   24.9992 H       1  UNL1        0.1424
     10 H           1.9618    1.5242   23.6607 H       1  UNL1        0.1424
     11 C           1.2234    1.3554   21.1225 C.2     1  UNL1        0.2507
     12 O           2.6161    1.5320   21.6508 O.2     1  UNL1       -0.2698
     13 N           0.9597    0.3796   20.0142 N.am    1  UNL1       -0.2802
     14 H           0.0456    0.2637   19.6675 H       1  UNL1        0.1552
     15 C           2.0888   -0.4196   19.4342 C.ar    1  UNL1        0.0552
     16 C           2.5672   -1.6581   20.1322 C.ar    1  UNL1        0.0468
     17 C           3.6963   -2.4572   19.5521 C.ar    1  UNL1        0.1709
     18 F           4.1747   -3.6957   20.2501 F       1  UNL1       -0.2017
     19 C           4.3470   -2.0179   18.2740 C.ar    1  UNL1        0.1947
     20 F           5.4760   -2.8171   17.6939 F       1  UNL1       -0.1994
     21 C           3.8686   -0.7794   17.5760 C.ar    1  UNL1        0.1709
     22 F           4.5192   -0.3401   16.2979 F       1  UNL1       -0.2017
     23 C           2.7395    0.0198   18.1560 C.ar    1  UNL1        0.0468
     24 S          -3.2904    3.8588   20.5238 S.O2    1  UNL1        0.0655
     25 O          -2.4561    5.0103   20.0463 O.2     1  UNL1       -0.1527
     26 O          -4.1248    2.7073   21.0013 O.2     1  UNL1       -0.1527
     27 N          -4.4182    4.3113   19.6444 N.3     1  UNL1       -0.1553
     28 C          -4.2986    5.5901   18.8697 C.3     1  UNL1        0.0983
     29 C          -5.4264    6.0426   17.9903 C.3     1  UNL1        0.0484
     30 C          -6.6738    5.2163   17.8856 C.3     1  UNL1        0.1134
     31 O          -7.8016    5.6688   17.0063 O.3     1  UNL1       -0.3844
     32 C          -6.7935    3.9375   18.6603 C.3     1  UNL1        0.0484
     33 C          -5.6657    3.4850   19.5397 C.3     1  UNL1        0.0983
     34 H          -7.9672    6.6132   17.1531 H       1  UNL1        0.2103
@<TRIPOS>BOND
     1     1     2    1
     2     2     3   ar
     3     3     4   ar
     4     4     5    1
     5     4     6   ar
     6     6    24    1
     7    24    25    2
     8    24    26    2
     9    24    27    1
    10    27    28    1
    11    28    29    1
    12    29    30    1
    13    30    31    1
    14    30    32    1
    15    32    33    1
    16     6     7   ar
    17     7     8   ar
    18     8    11    1
    19    11    12    2
    20    11    13   am
    21    13    15    1
    22    15    16   ar
    23    16    17   ar
    24    17    18    1
    25    17    19   ar
    26    19    20    1
    27    19    21   ar
    28    21    22    1
    29    21    23   ar
    30     8     2   ar
    31    23    15   ar
    32    33    27    1
    33     1     9    1
    34     1    10    1
    35    31    34    1
    36    13    14    1
@<TRIPOS>MOLECULE
*****
 34 36 0 0 0
SMALL
GASTEIGER

@<TRIPOS>ATOM
      1 N           1.2585    2.0522   23.9908 N.pl3   1  UNL1       -0.3568
      2 C           0.1280    2.5044   23.1148 C.ar    1  UNL1        0.0482
      3 C          -1.0076    3.2895   23.7012 C.ar    1  UNL1        0.0452
      4 C          -2.1381    3.7416   22.8252 C.ar    1  UNL1        0.1598
      5 F          -3.2737    4.5267   23.4117 F       1  UNL1       -0.2027
      6 C          -2.1330    3.4087   21.3626 C.ar    1  UNL1        0.1497
      7 C          -0.9974    2.6237   20.7761 C.ar    1  UNL1        0.0280
      8 C           0.1331    2.1715   21.6522 C.ar    1  UNL1        0.0680
      9 H           1.2552    2.2707   24.9508 H       1  UNL1        0.1424
     10 H           2.0039    1.5369   23.6059 H       1  UNL1        0.1424
     11 C           1.2688    1.3864   21.0657 C.2     1  UNL1        0.2507
     12 O           2.6773    1.6678   21.4980 O.2     1  UNL1       -0.2698
     13 N           0.9959    0.3199   20.0468 N.am    1  UNL1       -0.2802
     14 H           0.0714    0.1352   19.7631 H       1  UNL1        0.1552
     15 C           2.1314   -0.4652   19.4603 C.ar    1  UNL1        0.0552
     16 C           2.7662   -0.0205   18.1760 C.ar    1  UNL1        0.0468
     17 C           3.9018   -0.8057   17.5895 C.ar    1  UNL1        0.1709
     18 F           4.5366   -0.3610   16.3052 F       1  UNL1       -0.2017
     19 C           4.4026   -2.0355   18.2872 C.ar    1  UNL1        0.1947
     20 F           5.5382   -2.8206   17.7006 F       1  UNL1       -0.1994
     21 C           3.7678   -2.4802   19.5714 C.ar    1  UNL1        0.1709
     22 F           4.2686   -3.7099   20.2691 F       1  UNL1       -0.2017
     23 C           2.6323   -1.6951   20.1580 C.ar    1  UNL1        0.0468
     24 S          -3.2635    3.8609   20.4865 S.O2    1  UNL1        0.0655
     25 O          -4.0881    2.6967   20.9498 O.2     1  UNL1       -0.1527
     26 O          -2.4388    5.0251   20.0233 O.2     1  UNL1       -0.1527
     27 N          -4.3940    4.3131   19.6104 N.3     1  UNL1       -0.1553
     28 C          -5.6871    3.5531   19.6028 C.3     1  UNL1        0.0983
     29 C          -6.8176    4.0053   18.7267 C.3     1  UNL1        0.0484
     30 C          -6.6550    5.2174   17.8583 C.3     1  UNL1        0.1134
     31 O          -7.7855    5.6696   16.9822 O.3     1  UNL1       -0.3844
     32 C          -5.3618    5.9774   17.8660 C.3     1  UNL1        0.0484
     33 C          -4.2313    5.5252   18.7421 C.3     1  UNL1        0.0983
     34 H          -8.1636    4.9043   16.5216 H       1  UNL1        0.2103
@<TRIPOS>BOND
     1     1     2    1
     2     2     3   ar
     3     3     4   ar
     4     4     5    1
     5     4     6   ar
     6     6    24    1
     7    24    25    2
     8    24    26    2
     9    24    27    1
    10    27    28    1
    11    28    29    1
    12    29    30    1
    13    30    31    1
    14    30    32    1
    15    32    33    1
    16     6     7   ar
    17     7     8   ar
    18     8    11    1
    19    11    12    2
    20    11    13   am
    21    13    15    1
    22    15    16   ar
    23    16    17   ar
    24    17    18    1
    25    17    19   ar
    26    19    20    1
    27    19    21   ar
    28    21    22    1
    29    21    23   ar
    30     8     2   ar
    31    23    15   ar
    32    33    27    1
    33     1     9    1
    34     1    10    1
    35    31    34    1
    36    13    14    1
@<TRIPOS>MOLECULE
*****
 34 36 0 0 0
SMALL
GASTEIGER

@<TRIPOS>ATOM
      1 N          -2.1351    4.1689   24.9280 N.pl3   1  UNL1       -0.3568
      2 C          -1.3029    3.3747   23.9653 C.ar    1  UNL1        0.0482
      3 C          -1.4641    3.5797   22.4882 C.ar    1  UNL1        0.0452
      4 C          -0.6320    2.7855   21.5255 C.ar    1  UNL1        0.1598
      5 F          -0.7933    2.9906   20.0483 F       1  UNL1       -0.2027
      6 C           0.3614    1.7863   22.0400 C.ar    1  UNL1        0.1497
      7 C           0.5226    1.5813   23.5171 C.ar    1  UNL1        0.0280
      8 C          -0.3095    2.3755   24.4798 C.ar    1  UNL1        0.0680
      9 H          -2.7871    4.8248   24.5903 H       1  UNL1        0.1424
     10 H          -2.0292    4.0343   25.8975 H       1  UNL1        0.1424
     11 C          -0.1483    2.1704   25.9570 C.2     1  UNL1        0.2507
     12 O          -1.3591    2.0434   26.8331 O.2     1  UNL1       -0.2698
     13 N           1.2239    2.0923   26.5579 N.am    1  UNL1       -0.2802
     14 H           2.0186    2.1757   25.9828 H       1  UNL1        0.1552
     15 C           1.3852    1.8873   28.0350 C.ar    1  UNL1        0.0552
     16 C           1.1996    3.0399   28.9769 C.ar    1  UNL1        0.0468
     17 C           1.3609    2.8347   30.4541 C.ar    1  UNL1        0.1709
     18 F           1.1752    3.9873   31.3960 F       1  UNL1       -0.2017
     19 C           1.7079    1.4772   30.9893 C.ar    1  UNL1        0.1947
     20 F           1.8692    1.2721   32.4664 F       1  UNL1       -0.1994
     21 C           1.8935    0.3246   30.0474 C.ar    1  UNL1        0.1709
     22 F           2.2405   -1.0330   30.5826 F       1  UNL1       -0.2017
     23 C           1.7322    0.5296   28.5703 C.ar    1  UNL1        0.0468
     24 S           1.1935    0.9921   21.0773 S.O2    1  UNL1        0.0655
     25 O           0.0116    0.1189   20.7760 O.2     1  UNL1       -0.1527
     26 O           2.3754    1.8652   21.3786 O.2     1  UNL1       -0.1527
     27 N           2.0257    0.1978   20.1146 N.3     1  UNL1       -0.1553
     28 C           2.3342    0.7521   18.7554 C.3     1  UNL1        0.0983
     29 C           3.1663   -0.0421   17.7927 C.3     1  UNL1        0.0484
     30 C           3.6900   -1.3906   18.1892 C.3     1  UNL1        0.1134
     31 O           4.5221   -2.1848   17.2266 O.3     1  UNL1       -0.3844
     32 C           3.3815   -1.9449   19.5485 C.3     1  UNL1        0.0484
     33 C           2.5493   -1.1506   20.5112 C.3     1  UNL1        0.0983
     34 H           4.1078   -2.1666   16.3497 H       1  UNL1        0.2103
@<TRIPOS>BOND
     1     1     2    1
     2     2     3   ar
     3     3     4   ar
     4     4     5    1
     5     4     6   ar
     6     6    24    1
     7    24    25    2
     8    24    26    2
     9    24    27    1
    10    27    28    1
    11    28    29    1
    12    29    30    1
    13    30    31    1
    14    30    32    1
    15    32    33    1
    16     6     7   ar
    17     7     8   ar
    18     8    11    1
    19    11    12    2
    20    11    13   am
    21    13    15    1
    22    15    16   ar
    23    16    17   ar
    24    17    18    1
    25    17    19   ar
    26    19    20    1
    27    19    21   ar
    28    21    22    1
    29    21    23   ar
    30     8     2   ar
    31    23    15   ar
    32    33    27    1
    33     1     9    1
    34     1    10    1
    35    31    34    1
    36    13    14    1
