@<TRIPOS>MOLECULE
*****
 22 24 0 0 0
SMALL
GASTEIGER

@<TRIPOS>ATOM
      1 C          -7.9285  -19.2544   21.6541 C.2     1  UNL1       -0.0246
      2 C          -8.5691  -19.5802   20.3375 C.2     1  UNL1       -0.0421
      3 C          -7.4847  -19.9764   19.3799 C.3     1  UNL1        0.0480
      4 C          -6.1739  -19.8955   20.1046 C.ar    1  UNL1       -0.0184
      5 C          -4.7660  -20.1706   19.6662 C.ar    1  UNL1       -0.0040
      6 C          -3.6324  -19.9994   20.6334 C.ar    1  UNL1       -0.0003
      7 C          -3.9067  -19.5531   22.0390 C.ar    1  UNL1       -0.0000
      8 C          -5.3145  -19.2781   22.4774 C.ar    1  UNL1       -0.0006
      9 C          -6.4482  -19.4493   21.5102 C.ar    1  UNL1       -0.0079
     10 C          -9.6125  -19.7343   23.5735 C.3     1  UNL1        0.0111
     11 C          -8.6427  -18.8115   22.8966 C.3     1  UNL1        0.0634
     12 C          -8.3873  -17.4460   23.4622 C.ar    1  UNL1        0.0818
     13 C          -9.0541  -17.0260   24.7385 C.ar    1  UNL1        0.1139
     14 N          -8.7986  -15.6604   25.3040 N.ar    1  UNL1       -0.2394
     15 C          -7.8763  -14.7148   24.5933 C.ar    1  UNL1        0.1195
     16 C          -7.2094  -15.1347   23.3170 C.ar    1  UNL1        0.1191
     17 N          -7.4649  -16.5003   22.7514 N.ar    1  UNL1       -0.2446
     18 C         -10.0365  -19.5203   20.0322 C.3     1  UNL1        0.0394
     19 C         -10.6860  -18.2029   19.7276 C.3     1  UNL1        0.0765
     20 N         -11.2703  -17.3804   20.8375 N.3     1  UNL1       -0.2700
     21 C         -12.3645  -17.9457   21.6939 C.3     1  UNL1        0.0897
     22 C         -10.7606  -15.9927   21.0910 C.3     1  UNL1        0.0897
@<TRIPOS>BOND
     1    11    10    1
     2    11     1    1
     3     1     2    2
     4     2    18    1
     5    18    19    1
     6    19    20    1
     7    20    21    1
     8    20    22    1
     9     2     3    1
    10     3     4    1
    11     4     5   ar
    12     5     6   ar
    13     6     7   ar
    14     7     8   ar
    15     8     9   ar
    16    11    12    1
    17    12    13   ar
    18    13    14   ar
    19    14    15   ar
    20    15    16   ar
    21    16    17   ar
    22     9     1    1
    23    17    12   ar
    24     9     4   ar
@<TRIPOS>MOLECULE
*****
 22 24 0 0 0
SMALL
GASTEIGER

@<TRIPOS>ATOM
      1 C          -6.5606  -19.0982   21.1812 C.2     1  UNL1       -0.0246
      2 C          -6.4687  -18.1599   22.3479 C.2     1  UNL1       -0.0421
      3 C          -7.8176  -17.5351   22.5475 C.3     1  UNL1        0.0480
      4 C          -8.7433  -18.0871   21.5042 C.ar    1  UNL1       -0.0184
      5 C         -10.1931  -17.8350   21.2141 C.ar    1  UNL1       -0.0040
      6 C         -10.8661  -18.5488   20.0794 C.ar    1  UNL1       -0.0003
      7 C         -10.0892  -19.5149   19.2349 C.ar    1  UNL1       -0.0000
      8 C          -8.6393  -19.7671   19.5251 C.ar    1  UNL1       -0.0006
      9 C          -7.9664  -19.0532   20.6597 C.ar    1  UNL1       -0.0079
     10 C          -5.6672  -21.3894   20.3430 C.3     1  UNL1        0.0111
     11 C          -5.4430  -19.9346   20.6322 C.3     1  UNL1        0.0634
     12 C          -4.1013  -19.3164   20.3724 C.ar    1  UNL1        0.0818
     13 C          -2.8932  -19.8069   21.1139 C.ar    1  UNL1        0.1139
     14 N          -1.5515  -19.1887   20.8541 N.ar    1  UNL1       -0.2394
     15 C          -1.4178  -18.0800   19.8527 C.ar    1  UNL1        0.1195
     16 C          -2.6259  -17.5894   19.1111 C.ar    1  UNL1        0.1191
     17 N          -3.9676  -18.2076   19.3710 N.ar    1  UNL1       -0.2446
     18 C          -5.2430  -17.8934   23.1705 C.3     1  UNL1        0.0394
     19 C          -4.8872  -16.4871   23.5521 C.3     1  UNL1        0.0765
     20 N          -5.6264  -15.8015   24.6628 N.3     1  UNL1       -0.2700
     21 C          -5.1394  -15.9251   26.0762 C.3     1  UNL1        0.0897
     22 C          -6.8525  -14.9922   24.3601 C.3     1  UNL1        0.0897
@<TRIPOS>BOND
     1    11    10    1
     2    11     1    1
     3     1     2    2
     4     2    18    1
     5    18    19    1
     6    19    20    1
     7    20    21    1
     8    20    22    1
     9     2     3    1
    10     3     4    1
    11     4     5   ar
    12     5     6   ar
    13     6     7   ar
    14     7     8   ar
    15     8     9   ar
    16    11    12    1
    17    12    13   ar
    18    13    14   ar
    19    14    15   ar
    20    15    16   ar
    21    16    17   ar
    22     9     1    1
    23    17    12   ar
    24     9     4   ar
@<TRIPOS>MOLECULE
*****
 22 24 0 0 0
SMALL
GASTEIGER

@<TRIPOS>ATOM
      1 C          -9.3479  -18.2248   22.8897 C.2     1  UNL1       -0.0246
      2 C          -9.5637  -17.2334   23.9945 C.2     1  UNL1       -0.0421
      3 C         -10.5237  -16.1917   23.5014 C.3     1  UNL1        0.0480
      4 C         -10.9012  -16.5392   22.0919 C.ar    1  UNL1       -0.0184
      5 C         -11.8128  -15.8738   21.1039 C.ar    1  UNL1       -0.0040
      6 C         -11.9976  -16.4650   19.7378 C.ar    1  UNL1       -0.0003
      7 C         -11.2709  -17.7215   19.3597 C.ar    1  UNL1       -0.0000
      8 C         -10.3594  -18.3869   20.3477 C.ar    1  UNL1       -0.0006
      9 C         -10.1745  -17.7958   21.7138 C.ar    1  UNL1       -0.0079
     10 C          -8.8871  -20.6374   23.7366 C.3     1  UNL1        0.0111
     11 C          -8.4612  -19.4331   22.9501 C.3     1  UNL1        0.0634
     12 C          -7.1486  -19.4373   22.2243 C.ar    1  UNL1        0.0818
     13 C          -6.1364  -18.3648   22.4986 C.ar    1  UNL1        0.1139
     14 N          -4.8238  -18.3690   21.7726 N.ar    1  UNL1       -0.2394
     15 C          -4.5233  -19.4456   20.7723 C.ar    1  UNL1        0.1195
     16 C          -5.5355  -20.5182   20.4980 C.ar    1  UNL1        0.1191
     17 N          -6.8481  -20.5140   21.2239 N.ar    1  UNL1       -0.2446
     18 C          -8.9307  -17.2763   25.3537 C.3     1  UNL1        0.0394
     19 C          -8.3490  -16.0288   25.9498 C.3     1  UNL1        0.0765
     20 N          -7.0091  -15.5332   25.4924 N.3     1  UNL1       -0.2700
     21 C          -6.8239  -15.0693   24.0780 C.3     1  UNL1        0.0897
     22 C          -5.8545  -15.5015   26.4494 C.3     1  UNL1        0.0897
@<TRIPOS>BOND
     1    11    10    1
     2    11     1    1
     3     1     2    2
     4     2    18    1
     5    18    19    1
     6    19    20    1
     7    20    21    1
     8    20    22    1
     9     2     3    1
    10     3     4    1
    11     4     5   ar
    12     5     6   ar
    13     6     7   ar
    14     7     8   ar
    15     8     9   ar
    16    11    12    1
    17    12    13   ar
    18    13    14   ar
    19    14    15   ar
    20    15    16   ar
    21    16    17   ar
    22     9     1    1
    23    17    12   ar
    24     9     4   ar
@<TRIPOS>MOLECULE
*****
 22 24 0 0 0
SMALL
GASTEIGER

@<TRIPOS>ATOM
      1 C           4.1022   -2.1747   19.3015 C.2     1  UNL1       -0.0246
      2 C           5.1145   -1.6812   18.3106 C.2     1  UNL1       -0.0421
      3 C           4.6272   -0.3724   17.7631 C.3     1  UNL1        0.0480
      4 C           3.3139   -0.0571   18.4156 C.ar    1  UNL1       -0.0184
      5 C           2.3716    1.1004   18.2668 C.ar    1  UNL1       -0.0040
      6 C           1.1048    1.1441   19.0689 C.ar    1  UNL1       -0.0003
      7 C           0.7804    0.0302   20.0197 C.ar    1  UNL1       -0.0000
      8 C           1.7227   -1.1273   20.1684 C.ar    1  UNL1       -0.0006
      9 C           2.9895   -1.1709   19.3664 C.ar    1  UNL1       -0.0079
     10 C           3.5865   -4.7096   19.5434 C.3     1  UNL1        0.0111
     11 C           4.1878   -3.4483   20.0892 C.3     1  UNL1        0.0634
     12 C           4.8745   -3.4608   21.4227 C.ar    1  UNL1        0.0818
     13 C           4.2775   -2.7176   22.5808 C.ar    1  UNL1        0.1139
     14 N           4.9643   -2.7301   23.9143 N.ar    1  UNL1       -0.2394
     15 C           6.2480   -3.4859   24.0897 C.ar    1  UNL1        0.1195
     16 C           6.8450   -4.2292   22.9316 C.ar    1  UNL1        0.1191
     17 N           6.1583   -4.2166   21.5981 N.ar    1  UNL1       -0.2446
     18 C           6.3899   -2.3747   17.9334 C.3     1  UNL1        0.0394
     19 C           7.6280   -2.1661   18.7540 C.3     1  UNL1        0.0765
     20 N           7.8051   -0.8980   19.5355 N.3     1  UNL1       -0.2700
     21 C           8.2539    0.3540   18.8418 C.3     1  UNL1        0.0897
     22 C           7.5332   -0.8819   21.0105 C.3     1  UNL1        0.0897
@<TRIPOS>BOND
     1    11    10    1
     2    11     1    1
     3     1     2    2
     4     2    18    1
     5    18    19    1
     6    19    20    1
     7    20    21    1
     8    20    22    1
     9     2     3    1
    10     3     4    1
    11     4     5   ar
    12     5     6   ar
    13     6     7   ar
    14     7     8   ar
    15     8     9   ar
    16    11    12    1
    17    12    13   ar
    18    13    14   ar
    19    14    15   ar
    20    15    16   ar
    21    16    17   ar
    22     9     1    1
    23    17    12   ar
    24     9     4   ar
@<TRIPOS>MOLECULE
*****
 22 24 0 0 0
SMALL
GASTEIGER

@<TRIPOS>ATOM
      1 C         -13.3216   -4.8182   19.4322 C.2     1  UNL1       -0.0246
      2 C         -14.3293   -5.9103   19.2277 C.2     1  UNL1       -0.0421
      3 C         -13.5975   -7.1354   18.7655 C.3     1  UNL1        0.0480
      4 C         -12.1376   -6.8004   18.6843 C.ar    1  UNL1       -0.0184
      5 C         -10.9416   -7.6144   18.2885 C.ar    1  UNL1       -0.0040
      6 C          -9.5750   -6.9963   18.3047 C.ar    1  UNL1       -0.0003
      7 C          -9.4045   -5.5641   18.7167 C.ar    1  UNL1       -0.0000
      8 C         -10.6006   -4.7501   19.1126 C.ar    1  UNL1       -0.0006
      9 C         -11.9672   -5.3682   19.0964 C.ar    1  UNL1       -0.0079
     10 C         -14.0096   -3.1677   21.3172 C.3     1  UNL1        0.0111
     11 C         -13.6167   -3.4211   19.8918 C.3     1  UNL1        0.0634
     12 C         -13.5189   -2.2775   18.9263 C.ar    1  UNL1        0.0818
     13 C         -14.6692   -1.9638   18.0162 C.ar    1  UNL1        0.1139
     14 N         -14.5714   -0.8201   17.0506 N.ar    1  UNL1       -0.2394
     15 C         -13.3232    0.0100   16.9951 C.ar    1  UNL1        0.1195
     16 C         -12.1728   -0.3037   17.9052 C.ar    1  UNL1        0.1191
     17 N         -12.2707   -1.4474   18.8708 N.ar    1  UNL1       -0.2446
     18 C         -15.8089   -5.7973   19.4469 C.3     1  UNL1        0.0394
     19 C         -16.7541   -6.6214   18.6240 C.3     1  UNL1        0.0765
     20 N         -17.4348   -7.8121   19.2312 N.3     1  UNL1       -0.2700
     21 C         -18.8852   -8.0713   18.9498 C.3     1  UNL1        0.0897
     22 C         -16.6651   -8.7437   20.1199 C.3     1  UNL1        0.0897
@<TRIPOS>BOND
     1    11    10    1
     2    11     1    1
     3     1     2    2
     4     2    18    1
     5    18    19    1
     6    19    20    1
     7    20    21    1
     8    20    22    1
     9     2     3    1
    10     3     4    1
    11     4     5   ar
    12     5     6   ar
    13     6     7   ar
    14     7     8   ar
    15     8     9   ar
    16    11    12    1
    17    12    13   ar
    18    13    14   ar
    19    14    15   ar
    20    15    16   ar
    21    16    17   ar
    22     9     1    1
    23    17    12   ar
    24     9     4   ar
@<TRIPOS>MOLECULE
*****
 22 24 0 0 0
SMALL
GASTEIGER

@<TRIPOS>ATOM
      1 C         -12.9629   -3.1928   19.0859 C.2     1  UNL1       -0.0246
      2 C         -11.5025   -3.1677   18.7445 C.2     1  UNL1       -0.0421
      3 C         -11.1422   -1.7655   18.3522 C.3     1  UNL1        0.0480
      4 C         -12.3799   -0.9239   18.4511 C.ar    1  UNL1       -0.0184
      5 C         -12.6277    0.5317   18.1869 C.ar    1  UNL1       -0.0040
      6 C         -14.0007    1.1051   18.3761 C.ar    1  UNL1       -0.0003
      7 C         -15.1260    0.2230   18.8296 C.ar    1  UNL1       -0.0000
      8 C         -14.8782   -1.2326   19.0938 C.ar    1  UNL1       -0.0006
      9 C         -13.5052   -1.8060   18.9046 C.ar    1  UNL1       -0.0079
     10 C         -14.1340   -4.5434   20.9713 C.3     1  UNL1        0.0111
     11 C         -13.7440   -4.3937   19.5306 C.3     1  UNL1        0.0634
     12 C         -14.1350   -5.4450   18.5347 C.ar    1  UNL1        0.0818
     13 C         -14.5030   -6.8217   19.0028 C.ar    1  UNL1        0.1139
     14 N         -14.8940   -7.8730   18.0069 N.ar    1  UNL1       -0.2394
     15 C         -14.9171   -7.5476   16.5428 C.ar    1  UNL1        0.1195
     16 C         -14.5491   -6.1708   16.0746 C.ar    1  UNL1        0.1191
     17 N         -14.1580   -5.1195   17.0706 N.ar    1  UNL1       -0.2446
     18 C         -10.5667   -4.3392   18.7878 C.3     1  UNL1        0.0394
     19 C         -10.5056   -5.2934   17.6321 C.3     1  UNL1        0.0765
     20 N         -10.4421   -6.7711   17.8821 N.3     1  UNL1       -0.2700
     21 C          -9.5398   -7.3129   18.9509 C.3     1  UNL1        0.0897
     22 C         -11.2809   -7.7070   17.0633 C.3     1  UNL1        0.0897
@<TRIPOS>BOND
     1    11    10    1
     2    11     1    1
     3     1     2    2
     4     2    18    1
     5    18    19    1
     6    19    20    1
     7    20    21    1
     8    20    22    1
     9     2     3    1
    10     3     4    1
    11     4     5   ar
    12     5     6   ar
    13     6     7   ar
    14     7     8   ar
    15     8     9   ar
    16    11    12    1
    17    12    13   ar
    18    13    14   ar
    19    14    15   ar
    20    15    16   ar
    21    16    17   ar
    22     9     1    1
    23    17    12   ar
    24     9     4   ar
@<TRIPOS>MOLECULE
*****
 22 24 0 0 0
SMALL
GASTEIGER

@<TRIPOS>ATOM
      1 C           3.1141   -1.2702   21.1048 C.2     1  UNL1       -0.0246
      2 C           3.8306   -2.4627   20.5440 C.2     1  UNL1       -0.0421
      3 C           4.5792   -3.1226   21.6639 C.3     1  UNL1        0.0480
      4 C           4.3254   -2.3378   22.9168 C.ar    1  UNL1       -0.0184
      5 C           4.8018   -2.5178   24.3277 C.ar    1  UNL1       -0.0040
      6 C           4.3727   -1.5530   25.3930 C.ar    1  UNL1       -0.0003
      7 C           3.4672   -0.4081   25.0474 C.ar    1  UNL1       -0.0000
      8 C           2.9908   -0.2281   23.6366 C.ar    1  UNL1       -0.0006
      9 C           3.4199   -1.1930   22.5713 C.ar    1  UNL1       -0.0079
     10 C           0.7754   -0.5922   20.1988 C.3     1  UNL1        0.0111
     11 C           2.2445   -0.3214   20.3344 C.3     1  UNL1        0.0634
     12 C           2.8439    0.8983   19.6995 C.ar    1  UNL1        0.0818
     13 C           1.9835    1.8218   18.8891 C.ar    1  UNL1        0.1139
     14 N           2.5829    3.0414   18.2543 N.ar    1  UNL1       -0.2394
     15 C           4.0428    3.3377   18.4298 C.ar    1  UNL1        0.1195
     16 C           4.9034    2.4142   19.2402 C.ar    1  UNL1        0.1191
     17 N           4.3039    1.1945   19.8750 N.ar    1  UNL1       -0.2446
     18 C           3.8033   -2.9158   19.1143 C.3     1  UNL1        0.0394
     19 C           4.9745   -2.6418   18.2182 C.3     1  UNL1        0.0765
     20 N           5.0590   -1.3445   17.4700 N.3     1  UNL1       -0.2700
     21 C           3.8594   -0.8223   16.7363 C.3     1  UNL1        0.0897
     22 C           6.3431   -0.5694   17.4554 C.3     1  UNL1        0.0897
@<TRIPOS>BOND
     1    11    10    1
     2    11     1    1
     3     1     2    2
     4     2    18    1
     5    18    19    1
     6    19    20    1
     7    20    21    1
     8    20    22    1
     9     2     3    1
    10     3     4    1
    11     4     5   ar
    12     5     6   ar
    13     6     7   ar
    14     7     8   ar
    15     8     9   ar
    16    11    12    1
    17    12    13   ar
    18    13    14   ar
    19    14    15   ar
    20    15    16   ar
    21    16    17   ar
    22     9     1    1
    23    17    12   ar
    24     9     4   ar
@<TRIPOS>MOLECULE
*****
 22 24 0 0 0
SMALL
GASTEIGER

@<TRIPOS>ATOM
      1 C         -12.8863   -3.4193   19.1489 C.2     1  UNL1       -0.0246
      2 C         -11.9062   -4.4972   18.7919 C.2     1  UNL1       -0.0421
      3 C         -10.8623   -3.8967   17.8976 C.3     1  UNL1        0.0480
      4 C         -11.1972   -2.4477   17.7020 C.ar    1  UNL1       -0.0184
      5 C         -10.5247   -1.3589   16.9197 C.ar    1  UNL1       -0.0040
      6 C         -11.1031    0.0250   16.9107 C.ar    1  UNL1       -0.0003
      7 C         -12.3541    0.3201   17.6840 C.ar    1  UNL1       -0.0000
      8 C         -13.0266   -0.7687   18.4664 C.ar    1  UNL1       -0.0006
      9 C         -12.4481   -2.1526   18.4754 C.ar    1  UNL1       -0.0079
     10 C         -14.0350   -3.1615   21.4650 C.3     1  UNL1        0.0111
     11 C         -14.0928   -3.5798   20.0256 C.3     1  UNL1        0.0634
     12 C         -15.3571   -4.1586   19.4631 C.ar    1  UNL1        0.0818
     13 C         -16.3721   -3.2605   18.8203 C.ar    1  UNL1        0.1139
     14 N         -17.6364   -3.8393   18.2578 N.ar    1  UNL1       -0.2394
     15 C         -17.8857   -5.3162   18.3380 C.ar    1  UNL1        0.1195
     16 C         -16.8707   -6.2144   18.9808 C.ar    1  UNL1        0.1191
     17 N         -15.6064   -5.6356   19.5433 N.ar    1  UNL1       -0.2446
     18 C         -11.9605   -5.9249   19.2488 C.3     1  UNL1        0.0394
     19 C         -12.3821   -7.0023   18.2942 C.3     1  UNL1        0.0765
     20 N         -11.3681   -7.6488   17.3975 N.3     1  UNL1       -0.2700
     21 C          -9.9939   -7.9532   17.9163 C.3     1  UNL1        0.0897
     22 C         -11.7283   -7.9907   15.9822 C.3     1  UNL1        0.0897
@<TRIPOS>BOND
     1    11    10    1
     2    11     1    1
     3     1     2    2
     4     2    18    1
     5    18    19    1
     6    19    20    1
     7    20    21    1
     8    20    22    1
     9     2     3    1
    10     3     4    1
    11     4     5   ar
    12     5     6   ar
    13     6     7   ar
    14     7     8   ar
    15     8     9   ar
    16    11    12    1
    17    12    13   ar
    18    13    14   ar
    19    14    15   ar
    20    15    16   ar
    21    16    17   ar
    22     9     1    1
    23    17    12   ar
    24     9     4   ar
@<TRIPOS>MOLECULE
*****
 22 24 0 0 0
SMALL
GASTEIGER

@<TRIPOS>ATOM
      1 C           3.4081   -1.7783   20.8263 C.2     1  UNL1       -0.0246
      2 C           2.4391   -0.7113   20.4110 C.2     1  UNL1       -0.0421
      3 C           2.0615    0.0728   21.6328 C.3     1  UNL1        0.0480
      4 C           2.7972   -0.5096   22.8031 C.ar    1  UNL1       -0.0184
      5 C           2.8167   -0.1460   24.2582 C.ar    1  UNL1       -0.0040
      6 C           3.6686   -0.9265   25.2148 C.ar    1  UNL1       -0.0003
      7 C           4.5008   -2.0705   24.7163 C.ar    1  UNL1       -0.0000
      8 C           4.4813   -2.4341   23.2612 C.ar    1  UNL1       -0.0006
      9 C           3.6294   -1.6537   22.3046 C.ar    1  UNL1       -0.0079
     10 C           3.2459   -3.9618   19.4276 C.3     1  UNL1        0.0111
     11 C           4.0442   -2.7920   19.9219 C.3     1  UNL1        0.0634
     12 C           5.4785   -2.6360   19.5118 C.ar    1  UNL1        0.0818
     13 C           5.8175   -2.2333   18.1072 C.ar    1  UNL1        0.1139
     14 N           7.2519   -2.0773   17.6971 N.ar    1  UNL1       -0.2394
     15 C           8.3474   -2.3239   18.6916 C.ar    1  UNL1        0.1195
     16 C           8.0085   -2.7266   20.0963 C.ar    1  UNL1        0.1191
     17 N           6.5741   -2.8826   20.5064 N.ar    1  UNL1       -0.2446
     18 C           1.9360   -0.4706   19.0186 C.3     1  UNL1        0.0394
     19 C           2.8497    0.1112   17.9810 C.3     1  UNL1        0.0765
     20 N           3.5432    1.4160   18.2391 N.3     1  UNL1       -0.2700
     21 C           5.0358    1.5081   18.1216 C.3     1  UNL1        0.0897
     22 C           2.7442    2.6286   18.6147 C.3     1  UNL1        0.0897
@<TRIPOS>BOND
     1    11    10    1
     2    11     1    1
     3     1     2    2
     4     2    18    1
     5    18    19    1
     6    19    20    1
     7    20    21    1
     8    20    22    1
     9     2     3    1
    10     3     4    1
    11     4     5   ar
    12     5     6   ar
    13     6     7   ar
    14     7     8   ar
    15     8     9   ar
    16    11    12    1
    17    12    13   ar
    18    13    14   ar
    19    14    15   ar
    20    15    16   ar
    21    16    17   ar
    22     9     1    1
    23    17    12   ar
    24     9     4   ar
