@<TRIPOS>MOLECULE
*****
 41 44 0 0 0
SMALL
GASTEIGER

@<TRIPOS>ATOM
      1 C          -6.1683  -19.1219   21.8087 C.ar    1  UNL1        0.0575
      2 C          -7.3856  -18.5153   22.4412 C.ar    1  UNL1        0.0372
      3 C          -7.2616  -17.2629   23.2574 C.ar    1  UNL1        0.0782
      4 N          -5.9204  -16.6171   23.4410 N.ar    1  UNL1       -0.2480
      5 C          -4.7029  -17.2236   22.8084 C.ar    1  UNL1        0.0812
      6 C          -3.3616  -16.5777   22.9920 C.ar    1  UNL1        0.0214
      7 C          -2.1443  -17.1842   22.3595 C.ar    1  UNL1        0.0312
      8 C          -2.2683  -18.4367   21.5433 C.ar    1  UNL1        0.1402
      9 F          -1.0508  -19.0432   20.9108 F       1  UNL1       -0.2042
     10 C          -3.6095  -19.0825   21.3597 C.ar    1  UNL1        0.0313
     11 C          -4.8269  -18.4760   21.9923 C.ar    1  UNL1        0.0243
     12 C          -8.7270  -19.1612   22.2577 C.ar    1  UNL1        0.0826
     13 C          -9.3713  -19.8894   23.3998 C.ar    1  UNL1        0.0192
     14 C         -10.7126  -20.5353   23.2163 C.ar    1  UNL1        0.0031
     15 C         -11.4096  -20.4529   21.8906 C.ar    1  UNL1        0.0207
     16 C         -10.7652  -19.7247   20.7485 C.ar    1  UNL1        0.0988
     17 N          -9.4239  -19.0788   20.9320 N.ar    1  UNL1       -0.2438
     18 N          -6.8890  -20.3174   19.6175 N.am    1  UNL1       -0.2995
     19 C          -6.2922  -20.3743   20.9925 C.2     1  UNL1        0.2460
     20 O          -5.8194  -21.6835   21.5514 O.2     1  UNL1       -0.2701
     21 H          -7.1993  -19.4581   19.2507 H       1  UNL1        0.1498
     22 C          -7.0129  -21.5698   18.8013 C.3     1  UNL1        0.1068
     23 C          -8.3544  -21.9994   18.2859 C.3     1  UNL1        0.0901
     24 C          -9.4565  -21.5124   15.9841 C.3     1  UNL1        0.0859
     25 N          -9.1394  -21.0897   17.3879 N.3     1  UNL1       -0.2949
     26 H         -10.0311  -20.9159   17.8516 H       1  UNL1        0.1233
     27 C          -8.4791  -16.6564   23.8900 C.3     1  UNL1        0.1110
     28 C          -8.8595  -17.0279   25.2926 C.3     1  UNL1        0.0278
     29 N          -9.3160  -15.6784   23.1200 N.pl3   1  UNL1       -0.3141
     30 H          -9.0395  -14.7356   23.0580 H       1  UNL1        0.1485
     31 C         -10.5743  -16.1369   22.4443 C.ar    1  UNL1        0.1429
     32 N         -11.5119  -17.0665   23.1563 N.ar    1  UNL1       -0.2084
     33 C         -12.7702  -17.5250   22.4806 C.ar    1  UNL1        0.2012
     34 N         -13.0908  -17.0541   21.0930 N.ar    1  UNL1       -0.2087
     35 C         -12.1532  -16.1246   20.3811 C.ar    1  UNL1        0.1396
     36 N         -12.4739  -15.6536   18.9935 N.pl3   1  UNL1       -0.3420
     37 C         -10.8949  -15.6660   21.0567 C.ar    1  UNL1        0.1308
     38 H         -13.2997  -15.9546   18.5501 H       1  UNL1        0.1437
     39 H         -11.8585  -15.0435   18.5262 H       1  UNL1        0.1437
     40 C          -9.9573  -14.7365   20.3448 C.1     1  UNL1        0.1061
     41 N          -9.0197  -13.8070   19.6328 N.1     1  UNL1       -0.1906
@<TRIPOS>BOND
     1    24    25    1
     2    25    23    1
     3    23    22    1
     4    22    18    1
     5    18    19   am
     6    19    20    2
     7    19     1    1
     8     1     2   ar
     9     2    12    1
    10    12    13   ar
    11    13    14   ar
    12    14    15   ar
    13    15    16   ar
    14    16    17   ar
    15     2     3   ar
    16     3    27    1
    17    27    28    1
    18    27    29    1
    19    29    31    1
    20    31    32   ar
    21    32    33   ar
    22    33    34   ar
    23    34    35   ar
    24    35    36    1
    25    35    37   ar
    26    37    40    1
    27    40    41    3
    28     3     4   ar
    29     4     5   ar
    30     5     6   ar
    31     6     7   ar
    32     7     8   ar
    33     8     9    1
    34     8    10   ar
    35    10    11   ar
    36    11     1   ar
    37    17    12   ar
    38    37    31   ar
    39    11     5   ar
    40    25    26    1
    41    18    21    1
    42    29    30    1
    43    36    38    1
    44    36    39    1
@<TRIPOS>MOLECULE
*****
 41 44 0 0 0
SMALL
GASTEIGER

@<TRIPOS>ATOM
      1 C          -5.9375  -17.5917   22.4397 C.ar    1  UNL1        0.0575
      2 C          -7.3009  -17.9368   21.9181 C.ar    1  UNL1        0.0372
      3 C          -7.4744  -19.0961   20.9821 C.ar    1  UNL1        0.0782
      4 N          -6.2847  -19.9103   20.5679 N.ar    1  UNL1       -0.2480
      5 C          -4.9213  -19.5652   21.0896 C.ar    1  UNL1        0.0812
      6 C          -3.7316  -20.3793   20.6754 C.ar    1  UNL1        0.0214
      7 C          -2.3683  -20.0342   21.1971 C.ar    1  UNL1        0.0312
      8 C          -2.1947  -18.8749   22.1330 C.ar    1  UNL1        0.1402
      9 F          -0.8313  -18.5298   22.6547 F       1  UNL1       -0.2042
     10 C          -3.3844  -18.0608   22.5472 C.ar    1  UNL1        0.0313
     11 C          -4.7477  -18.4059   22.0255 C.ar    1  UNL1        0.0243
     12 C          -8.4907  -17.1226   22.3323 C.ar    1  UNL1        0.0826
     13 C          -8.8798  -17.0455   23.7789 C.ar    1  UNL1        0.0192
     14 C         -10.0696  -16.2314   24.1931 C.ar    1  UNL1        0.0031
     15 C         -10.8702  -15.4944   23.1607 C.ar    1  UNL1        0.0207
     16 C         -10.4811  -15.5716   21.7141 C.ar    1  UNL1        0.0988
     17 N          -9.2913  -16.3857   21.2999 N.ar    1  UNL1       -0.2438
     18 N          -5.3177  -16.6691   24.7881 N.am    1  UNL1       -0.2995
     19 C          -5.7640  -16.4324   23.3757 C.2     1  UNL1        0.2460
     20 O          -6.0366  -15.0365   22.8992 O.2     1  UNL1       -0.2701
     21 H          -5.1388  -17.5853   25.1009 H       1  UNL1        0.1498
     22 C          -5.1442  -15.5098   25.7240 C.3     1  UNL1        0.1068
     23 C          -6.0694  -15.3446   26.8930 C.3     1  UNL1        0.0901
     24 C          -8.4714  -16.1081   27.5232 C.3     1  UNL1        0.0859
     25 N          -7.5519  -15.2824   26.6732 N.3     1  UNL1       -0.2949
     26 H          -7.8279  -14.3088   26.8009 H       1  UNL1        0.1233
     27 C          -8.8379  -19.4412   20.4604 C.3     1  UNL1        0.1110
     28 C          -9.2105  -19.0955   19.0492 C.3     1  UNL1        0.0278
     29 N          -9.8285  -20.1320   21.3500 N.pl3   1  UNL1       -0.3141
     30 H          -9.6999  -21.0785   21.5883 H       1  UNL1        0.1485
     31 C         -11.0153  -19.3807   21.8764 C.ar    1  UNL1        0.1429
     32 N         -11.8669  -18.5737   20.9418 N.ar    1  UNL1       -0.2084
     33 C         -13.0537  -17.8224   21.4682 C.ar    1  UNL1        0.2012
     34 N         -13.3888  -17.8780   22.9292 N.ar    1  UNL1       -0.2087
     35 C         -12.5371  -18.6849   23.8638 C.ar    1  UNL1        0.1396
     36 N         -12.8722  -18.7405   25.3249 N.pl3   1  UNL1       -0.3420
     37 C         -11.3504  -19.4363   23.3374 C.ar    1  UNL1        0.1308
     38 H         -13.6511  -18.2473   25.6704 H       1  UNL1        0.1437
     39 H         -12.3133  -19.2701   25.9383 H       1  UNL1        0.1437
     40 C         -10.4987  -20.2432   24.2720 C.1     1  UNL1        0.1061
     41 N          -9.6471  -21.0501   25.2067 N.1     1  UNL1       -0.1906
@<TRIPOS>BOND
     1    24    25    1
     2    25    23    1
     3    23    22    1
     4    22    18    1
     5    18    19   am
     6    19    20    2
     7    19     1    1
     8     1     2   ar
     9     2    12    1
    10    12    13   ar
    11    13    14   ar
    12    14    15   ar
    13    15    16   ar
    14    16    17   ar
    15     2     3   ar
    16     3    27    1
    17    27    28    1
    18    27    29    1
    19    29    31    1
    20    31    32   ar
    21    32    33   ar
    22    33    34   ar
    23    34    35   ar
    24    35    36    1
    25    35    37   ar
    26    37    40    1
    27    40    41    3
    28     3     4   ar
    29     4     5   ar
    30     5     6   ar
    31     6     7   ar
    32     7     8   ar
    33     8     9    1
    34     8    10   ar
    35    10    11   ar
    36    11     1   ar
    37    17    12   ar
    38    37    31   ar
    39    11     5   ar
    40    25    26    1
    41    18    21    1
    42    29    30    1
    43    36    38    1
    44    36    39    1
@<TRIPOS>MOLECULE
*****
 41 44 0 0 0
SMALL
GASTEIGER

@<TRIPOS>ATOM
      1 C          -5.8115  -17.4456   23.2191 C.ar    1  UNL1        0.0575
      2 C          -6.4668  -18.2534   22.1384 C.ar    1  UNL1        0.0372
      3 C          -7.9618  -18.2713   22.0173 C.ar    1  UNL1        0.0782
      4 N          -8.8015  -17.4814   22.9770 N.ar    1  UNL1       -0.2480
      5 C          -8.1462  -16.6736   24.0578 C.ar    1  UNL1        0.0812
      6 C          -8.9859  -15.8837   25.0174 C.ar    1  UNL1        0.0214
      7 C          -8.3306  -15.0759   26.0982 C.ar    1  UNL1        0.0312
      8 C          -6.8356  -15.0580   26.2192 C.ar    1  UNL1        0.1402
      9 F          -6.1803  -14.2502   27.3000 F       1  UNL1       -0.2042
     10 C          -5.9959  -15.8479   25.2596 C.ar    1  UNL1        0.0313
     11 C          -6.6512  -16.6557   24.1789 C.ar    1  UNL1        0.0243
     12 C          -5.6271  -19.0433   21.1787 C.ar    1  UNL1        0.0826
     13 C          -5.7209  -20.5402   21.1565 C.ar    1  UNL1        0.0192
     14 C          -4.8813  -21.3302   20.1969 C.ar    1  UNL1        0.0031
     15 C          -3.9479  -20.6232   19.2594 C.ar    1  UNL1        0.0207
     16 C          -3.8541  -19.1263   19.2816 C.ar    1  UNL1        0.0988
     17 N          -4.6937  -18.3364   20.2412 N.ar    1  UNL1       -0.2438
     18 N          -3.4915  -16.6801   22.3349 N.am    1  UNL1       -0.2995
     19 C          -4.3165  -17.4277   23.3402 C.2     1  UNL1        0.2460
     20 O          -3.6465  -18.1574   24.4665 O.2     1  UNL1       -0.2701
     21 H          -3.9313  -16.2012   21.5957 H       1  UNL1        0.1498
     22 C          -1.9965  -16.6622   22.4560 C.3     1  UNL1        0.1068
     23 C          -1.1441  -16.6595   21.2218 C.3     1  UNL1        0.0901
     24 C          -0.2304  -18.2515   19.3831 C.3     1  UNL1        0.0859
     25 N          -0.3857  -17.8934   20.8314 N.3     1  UNL1       -0.2949
     26 H           0.5551  -17.7936   21.2126 H       1  UNL1        0.1233
     27 C          -8.6171  -19.0791   20.9365 C.3     1  UNL1        0.1110
     28 C          -8.0056  -19.1369   19.5680 C.3     1  UNL1        0.0278
     29 N          -9.8838  -19.8292   21.2243 N.pl3   1  UNL1       -0.3141
     30 H          -9.9444  -20.7901   21.0188 H       1  UNL1        0.1485
     31 C         -11.0582  -19.1152   21.8250 C.ar    1  UNL1        0.1429
     32 N         -11.9201  -18.2362   20.9679 N.ar    1  UNL1       -0.2084
     33 C         -13.0945  -17.5222   21.5686 C.ar    1  UNL1        0.2012
     34 N         -13.4071  -17.6871   23.0264 N.ar    1  UNL1       -0.2087
     35 C         -12.5453  -18.5661   23.8834 C.ar    1  UNL1        0.1396
     36 N         -12.8578  -18.7310   25.3412 N.pl3   1  UNL1       -0.3420
     37 C         -11.3708  -19.2802   23.2827 C.ar    1  UNL1        0.1308
     38 H         -13.6287  -18.2624   25.7355 H       1  UNL1        0.1437
     39 H         -12.2922  -19.3079   25.9037 H       1  UNL1        0.1437
     40 C         -10.5089  -20.1591   24.1398 C.1     1  UNL1        0.1061
     41 N          -9.6471  -21.0381   24.9969 N.1     1  UNL1       -0.1906
@<TRIPOS>BOND
     1    24    25    1
     2    25    23    1
     3    23    22    1
     4    22    18    1
     5    18    19   am
     6    19    20    2
     7    19     1    1
     8     1     2   ar
     9     2    12    1
    10    12    13   ar
    11    13    14   ar
    12    14    15   ar
    13    15    16   ar
    14    16    17   ar
    15     2     3   ar
    16     3    27    1
    17    27    28    1
    18    27    29    1
    19    29    31    1
    20    31    32   ar
    21    32    33   ar
    22    33    34   ar
    23    34    35   ar
    24    35    36    1
    25    35    37   ar
    26    37    40    1
    27    40    41    3
    28     3     4   ar
    29     4     5   ar
    30     5     6   ar
    31     6     7   ar
    32     7     8   ar
    33     8     9    1
    34     8    10   ar
    35    10    11   ar
    36    11     1   ar
    37    17    12   ar
    38    37    31   ar
    39    11     5   ar
    40    25    26    1
    41    18    21    1
    42    29    30    1
    43    36    38    1
    44    36    39    1
@<TRIPOS>MOLECULE
*****
 41 44 0 0 0
SMALL
GASTEIGER

@<TRIPOS>ATOM
      1 C           2.2867   -0.1763   22.2726 C.ar    1  UNL1        0.0575
      2 C           2.3549    0.2646   23.7047 C.ar    1  UNL1        0.0372
      3 C           3.2564   -0.4500   24.6673 C.ar    1  UNL1        0.0782
      4 N           4.0897   -1.6054   24.1978 N.ar    1  UNL1       -0.2480
      5 C           4.0215   -2.0464   22.7656 C.ar    1  UNL1        0.0812
      6 C           4.8548   -3.2018   22.2962 C.ar    1  UNL1        0.0214
      7 C           4.7866   -3.6427   20.8641 C.ar    1  UNL1        0.0312
      8 C           3.8851   -2.9281   19.9015 C.ar    1  UNL1        0.1402
      9 F           3.8169   -3.3690   18.4693 F       1  UNL1       -0.2042
     10 C           3.0518   -1.7726   20.3710 C.ar    1  UNL1        0.0313
     11 C           3.1200   -1.3318   21.8030 C.ar    1  UNL1        0.0243
     12 C           1.5215    1.4201   24.1743 C.ar    1  UNL1        0.0826
     13 C           0.2169    1.1698   24.8709 C.ar    1  UNL1        0.0192
     14 C          -0.6164    2.3252   25.3405 C.ar    1  UNL1        0.0031
     15 C          -0.1451    3.7310   25.1134 C.ar    1  UNL1        0.0207
     16 C           1.1595    3.9813   24.4167 C.ar    1  UNL1        0.0988
     17 N           1.9928    2.8259   23.9472 N.ar    1  UNL1       -0.2438
     18 N           1.7839    1.8761   20.7609 N.am    1  UNL1       -0.2995
     19 C           1.3851    0.5383   21.3100 C.2     1  UNL1        0.2460
     20 O           0.0849   -0.0848   20.8965 O.2     1  UNL1       -0.2701
     21 H           2.6374    2.2851   21.0323 H       1  UNL1        0.1498
     22 C           0.8824    2.5907   19.7983 C.3     1  UNL1        0.1068
     23 C          -0.2811    3.3869   20.3104 C.3     1  UNL1        0.0901
     24 C          -2.2640    3.5447   21.9816 C.3     1  UNL1        0.0859
     25 N          -1.3429    2.7193   21.1330 N.3     1  UNL1       -0.2949
     26 H          -1.9305    2.1943   20.4854 H       1  UNL1        0.1233
     27 C           3.3246   -0.0091   26.0995 C.3     1  UNL1        0.1110
     28 C           4.0327    1.2633   26.4596 C.3     1  UNL1        0.0278
     29 N           2.6847   -0.8405   27.1715 N.pl3   1  UNL1       -0.3141
     30 H           2.6422   -1.8194   27.0756 H       1  UNL1        0.1485
     31 C           2.1095   -0.1804   28.3894 C.ar    1  UNL1        0.1429
     32 N           0.7626    0.4763   28.3212 N.ar    1  UNL1       -0.2084
     33 C           0.1874    1.1363   29.5391 C.ar    1  UNL1        0.2012
     34 N           0.9592    1.1398   30.8254 N.ar    1  UNL1       -0.2087
     35 C           2.3061    0.4831   30.8937 C.ar    1  UNL1        0.1396
     36 N           3.0778    0.4866   32.1799 N.pl3   1  UNL1       -0.3420
     37 C           2.8813   -0.1770   29.6757 C.ar    1  UNL1        0.1308
     38 H           2.7003    0.9198   32.9793 H       1  UNL1        0.1437
     39 H           3.9618    0.0556   32.2247 H       1  UNL1        0.1437
     40 C           4.2281   -0.8336   29.7439 C.1     1  UNL1        0.1061
     41 N           5.5750   -1.4902   29.8122 N.1     1  UNL1       -0.1906
@<TRIPOS>BOND
     1    24    25    1
     2    25    23    1
     3    23    22    1
     4    22    18    1
     5    18    19   am
     6    19    20    2
     7    19     1    1
     8     1     2   ar
     9     2    12    1
    10    12    13   ar
    11    13    14   ar
    12    14    15   ar
    13    15    16   ar
    14    16    17   ar
    15     2     3   ar
    16     3    27    1
    17    27    28    1
    18    27    29    1
    19    29    31    1
    20    31    32   ar
    21    32    33   ar
    22    33    34   ar
    23    34    35   ar
    24    35    36    1
    25    35    37   ar
    26    37    40    1
    27    40    41    3
    28     3     4   ar
    29     4     5   ar
    30     5     6   ar
    31     6     7   ar
    32     7     8   ar
    33     8     9    1
    34     8    10   ar
    35    10    11   ar
    36    11     1   ar
    37    17    12   ar
    38    37    31   ar
    39    11     5   ar
    40    25    26    1
    41    18    21    1
    42    29    30    1
    43    36    38    1
    44    36    39    1
@<TRIPOS>MOLECULE
*****
 41 44 0 0 0
SMALL
GASTEIGER

@<TRIPOS>ATOM
      1 C           4.3932   -1.4081   23.0557 C.ar    1  UNL1        0.0575
      2 C           4.2072   -1.7938   21.6182 C.ar    1  UNL1        0.0372
      3 C           4.8163   -3.0616   21.0969 C.ar    1  UNL1        0.0782
      4 N           5.6113   -3.9438   22.0132 N.ar    1  UNL1       -0.2480
      5 C           5.7973   -3.5581   23.4509 C.ar    1  UNL1        0.0812
      6 C           6.5924   -4.4403   24.3672 C.ar    1  UNL1        0.0214
      7 C           6.7784   -4.0546   25.8047 C.ar    1  UNL1        0.0312
      8 C           6.1694   -2.7868   26.3260 C.ar    1  UNL1        0.1402
      9 F           6.3554   -2.4011   27.7636 F       1  UNL1       -0.2042
     10 C           5.3743   -1.9046   25.4097 C.ar    1  UNL1        0.0313
     11 C           5.1883   -2.2903   23.9721 C.ar    1  UNL1        0.0243
     12 C           3.4121   -0.9116   20.7018 C.ar    1  UNL1        0.0826
     13 C           1.9288   -1.0988   20.5810 C.ar    1  UNL1        0.0192
     14 C           1.1337   -0.2167   19.6647 C.ar    1  UNL1        0.0031
     15 C           1.8220    0.8525   18.8691 C.ar    1  UNL1        0.0207
     16 C           3.3053    1.0397   18.9899 C.ar    1  UNL1        0.0988
     17 N           4.1004    0.1576   19.9062 N.ar    1  UNL1       -0.2438
     18 N           2.4400   -0.1721   24.2420 N.am    1  UNL1       -0.2995
     19 C           3.7842   -0.1403   23.5770 C.2     1  UNL1        0.2460
     20 O           4.5193    1.1592   23.4332 O.2     1  UNL1       -0.2701
     21 H           1.9575   -1.0251   24.3363 H       1  UNL1        0.1498
     22 C           1.8309    1.0957   24.7633 C.3     1  UNL1        0.1068
     23 C           0.3648    1.1504   25.0754 C.3     1  UNL1        0.0901
     24 C          -0.7320    1.7424   27.3550 C.3     1  UNL1        0.0859
     25 N          -0.1304    0.7290   26.4271 N.3     1  UNL1       -0.2949
     26 H          -0.8414    0.0145   26.2706 H       1  UNL1        0.1233
     27 C           4.6302   -3.4473   19.6593 C.3     1  UNL1        0.1110
     28 C           3.2929   -3.9273   19.1786 C.3     1  UNL1        0.0278
     29 N           5.7815   -3.3529   18.7024 N.pl3   1  UNL1       -0.3141
     30 H           6.1622   -4.1708   18.3082 H       1  UNL1        0.1485
     31 C           6.3527   -2.0125   18.3463 C.ar    1  UNL1        0.1429
     32 N           5.6932   -1.1719   17.2934 N.ar    1  UNL1       -0.2084
     33 C           6.2644    0.1685   16.9372 C.ar    1  UNL1        0.2012
     34 N           7.4951    0.6684   17.6339 N.ar    1  UNL1       -0.2087
     35 C           8.1547   -0.1721   18.6867 C.ar    1  UNL1        0.1396
     36 N           9.3854    0.3278   19.3833 N.pl3   1  UNL1       -0.3420
     37 C           7.5835   -1.5126   19.0429 C.ar    1  UNL1        0.1308
     38 H           9.7603    1.2076   19.1496 H       1  UNL1        0.1437
     39 H           9.8183   -0.2238   20.0743 H       1  UNL1        0.1437
     40 C           8.2430   -2.3531   20.0957 C.1     1  UNL1        0.1061
     41 N           8.9026   -3.1936   21.1486 N.1     1  UNL1       -0.1906
@<TRIPOS>BOND
     1    24    25    1
     2    25    23    1
     3    23    22    1
     4    22    18    1
     5    18    19   am
     6    19    20    2
     7    19     1    1
     8     1     2   ar
     9     2    12    1
    10    12    13   ar
    11    13    14   ar
    12    14    15   ar
    13    15    16   ar
    14    16    17   ar
    15     2     3   ar
    16     3    27    1
    17    27    28    1
    18    27    29    1
    19    29    31    1
    20    31    32   ar
    21    32    33   ar
    22    33    34   ar
    23    34    35   ar
    24    35    36    1
    25    35    37   ar
    26    37    40    1
    27    40    41    3
    28     3     4   ar
    29     4     5   ar
    30     5     6   ar
    31     6     7   ar
    32     7     8   ar
    33     8     9    1
    34     8    10   ar
    35    10    11   ar
    36    11     1   ar
    37    17    12   ar
    38    37    31   ar
    39    11     5   ar
    40    25    26    1
    41    18    21    1
    42    29    30    1
    43    36    38    1
    44    36    39    1
@<TRIPOS>MOLECULE
*****
 41 44 0 0 0
SMALL
GASTEIGER

@<TRIPOS>ATOM
      1 C           4.1989   -1.2509   23.8812 C.ar    1  UNL1        0.0575
      2 C           5.1155   -1.9548   24.8374 C.ar    1  UNL1        0.0372
      3 C           5.8157   -3.2128   24.4166 C.ar    1  UNL1        0.0782
      4 N           5.5993   -3.7669   23.0396 N.ar    1  UNL1       -0.2480
      5 C           4.6826   -3.0630   22.0834 C.ar    1  UNL1        0.0812
      6 C           4.4662   -3.6171   20.7064 C.ar    1  UNL1        0.0214
      7 C           3.5496   -2.9132   19.7502 C.ar    1  UNL1        0.0312
      8 C           2.8494   -1.6552   20.1710 C.ar    1  UNL1        0.1402
      9 F           1.9328   -0.9512   19.2148 F       1  UNL1       -0.2042
     10 C           3.0658   -1.1011   21.5480 C.ar    1  UNL1        0.0313
     11 C           3.9824   -1.8050   22.5042 C.ar    1  UNL1        0.0243
     12 C           5.3319   -1.4007   26.2144 C.ar    1  UNL1        0.0826
     13 C           6.5472   -0.5715   26.5067 C.ar    1  UNL1        0.0192
     14 C           6.7637   -0.0174   27.8837 C.ar    1  UNL1        0.0031
     15 C           5.7649   -0.2925   28.9684 C.ar    1  UNL1        0.0207
     16 C           4.5495   -1.1217   28.6761 C.ar    1  UNL1        0.0988
     17 N           4.3330   -1.6757   27.2991 N.ar    1  UNL1       -0.2438
     18 N           2.2502   -0.0704   25.1299 N.am    1  UNL1       -0.2995
     19 C           3.4987    0.0072   24.3020 C.2     1  UNL1        0.2460
     20 O           4.0469    1.3427   23.8950 O.2     1  UNL1       -0.2701
     21 H           1.8903   -0.9470   25.3971 H       1  UNL1        0.1498
     22 C           1.5500    1.1876   25.5507 C.3     1  UNL1        0.1068
     23 C           0.7821    1.2236   26.8388 C.3     1  UNL1        0.0901
     24 C          -0.0488   -0.1850   28.8575 C.3     1  UNL1        0.0859
     25 N           1.0382    0.1886   27.8938 N.3     1  UNL1       -0.2949
     26 H           1.3077   -0.6667   27.4079 H       1  UNL1        0.1233
     27 C           6.7323   -3.9167   25.3728 C.3     1  UNL1        0.1110
     28 C           8.2115   -3.6759   25.3086 C.3     1  UNL1        0.0278
     29 N           6.1698   -4.8614   26.3932 N.pl3   1  UNL1       -0.3141
     30 H           5.2423   -4.7537   26.7051 H       1  UNL1        0.1485
     31 C           7.0205   -5.9701   26.9381 C.ar    1  UNL1        0.1429
     32 N           7.3061   -7.1790   26.0973 N.ar    1  UNL1       -0.2084
     33 C           8.1568   -8.2877   26.6423 C.ar    1  UNL1        0.2012
     34 N           8.7219   -8.1876   28.0281 N.ar    1  UNL1       -0.2087
     35 C           8.4363   -6.9787   28.8690 C.ar    1  UNL1        0.1396
     36 N           9.0014   -6.8786   30.2549 N.pl3   1  UNL1       -0.3420
     37 C           7.5856   -5.8700   28.3240 C.ar    1  UNL1        0.1308
     38 H           9.5598   -7.6063   30.6126 H       1  UNL1        0.1437
     39 H           8.8140   -6.0852   30.8068 H       1  UNL1        0.1437
     40 C           7.3000   -4.6611   29.1649 C.1     1  UNL1        0.1061
     41 N           7.0144   -3.4523   30.0058 N.1     1  UNL1       -0.1906
@<TRIPOS>BOND
     1    24    25    1
     2    25    23    1
     3    23    22    1
     4    22    18    1
     5    18    19   am
     6    19    20    2
     7    19     1    1
     8     1     2   ar
     9     2    12    1
    10    12    13   ar
    11    13    14   ar
    12    14    15   ar
    13    15    16   ar
    14    16    17   ar
    15     2     3   ar
    16     3    27    1
    17    27    28    1
    18    27    29    1
    19    29    31    1
    20    31    32   ar
    21    32    33   ar
    22    33    34   ar
    23    34    35   ar
    24    35    36    1
    25    35    37   ar
    26    37    40    1
    27    40    41    3
    28     3     4   ar
    29     4     5   ar
    30     5     6   ar
    31     6     7   ar
    32     7     8   ar
    33     8     9    1
    34     8    10   ar
    35    10    11   ar
    36    11     1   ar
    37    17    12   ar
    38    37    31   ar
    39    11     5   ar
    40    25    26    1
    41    18    21    1
    42    29    30    1
    43    36    38    1
    44    36    39    1
@<TRIPOS>MOLECULE
*****
 41 44 0 0 0
SMALL
GASTEIGER

@<TRIPOS>ATOM
      1 C           4.7403   -1.6645   23.2917 C.ar    1  UNL1        0.0575
      2 C           4.5093   -1.9349   21.8345 C.ar    1  UNL1        0.0372
      3 C           5.0868   -3.1648   21.1992 C.ar    1  UNL1        0.0782
      4 N           5.8953   -4.1244   22.0210 N.ar    1  UNL1       -0.2480
      5 C           6.1263   -3.8541   23.4783 C.ar    1  UNL1        0.0812
      6 C           6.9348   -4.8136   24.3001 C.ar    1  UNL1        0.0214
      7 C           7.1658   -4.5433   25.7574 C.ar    1  UNL1        0.0312
      8 C           6.5883   -3.3133   26.3927 C.ar    1  UNL1        0.1402
      9 F           6.8193   -3.0430   27.8500 F       1  UNL1       -0.2042
     10 C           5.7798   -2.3537   25.5709 C.ar    1  UNL1        0.0313
     11 C           5.5488   -2.6241   24.1137 C.ar    1  UNL1        0.0243
     12 C           3.7008   -0.9752   21.0126 C.ar    1  UNL1        0.0826
     13 C           2.2515   -1.2538   20.7443 C.ar    1  UNL1        0.0192
     14 C           1.4429   -0.2942   19.9225 C.ar    1  UNL1        0.0031
     15 C           2.0837    0.9438   19.3688 C.ar    1  UNL1        0.0207
     16 C           3.5330    1.2224   19.6371 C.ar    1  UNL1        0.0988
     17 N           4.3415    0.2628   20.4590 N.ar    1  UNL1       -0.2438
     18 N           2.8225   -0.4957   24.5979 N.am    1  UNL1       -0.2995
     19 C           4.1628   -0.4345   23.9271 C.2     1  UNL1        0.2460
     20 O           4.9255    0.8566   23.8916 O.2     1  UNL1       -0.2701
     21 H           2.3219   -1.3431   24.6212 H       1  UNL1        0.1498
     22 C           2.2450    0.7342   25.2333 C.3     1  UNL1        0.1068
     23 C           2.1951    0.8535   26.7277 C.3     1  UNL1        0.0901
     24 C           1.5215   -0.2501   28.9812 C.3     1  UNL1        0.0859
     25 N           2.0223   -0.3737   27.5727 N.3     1  UNL1       -0.2949
     26 H           1.3676   -0.9809   27.0797 H       1  UNL1        0.1233
     27 C           4.8558   -3.4352   19.7419 C.3     1  UNL1        0.1110
     28 C           3.5115   -3.9046   19.2701 C.3     1  UNL1        0.0278
     29 N           5.9690   -3.2361   18.7565 N.pl3   1  UNL1       -0.3141
     30 H           6.1914   -3.9485   18.1145 H       1  UNL1        0.1485
     31 C           6.7433   -1.9515   18.7492 C.ar    1  UNL1        0.1429
     32 N           8.0080   -1.8335   19.5472 N.ar    1  UNL1       -0.2084
     33 C           8.7824   -0.5489   19.5399 C.ar    1  UNL1        0.2012
     34 N           8.2921    0.6178   18.7347 N.ar    1  UNL1       -0.2087
     35 C           7.0274    0.5000   17.9368 C.ar    1  UNL1        0.1396
     36 N           6.5371    1.6667   17.1316 N.pl3   1  UNL1       -0.3420
     37 C           6.2530   -0.7847   17.9440 C.ar    1  UNL1        0.1308
     38 H           7.0454    2.5098   17.1268 H       1  UNL1        0.1437
     39 H           5.7071    1.5893   16.6079 H       1  UNL1        0.1437
     40 C           4.9884   -0.9026   17.1461 C.1     1  UNL1        0.1061
     41 N           3.7237   -1.0205   16.3482 N.1     1  UNL1       -0.1906
@<TRIPOS>BOND
     1    24    25    1
     2    25    23    1
     3    23    22    1
     4    22    18    1
     5    18    19   am
     6    19    20    2
     7    19     1    1
     8     1     2   ar
     9     2    12    1
    10    12    13   ar
    11    13    14   ar
    12    14    15   ar
    13    15    16   ar
    14    16    17   ar
    15     2     3   ar
    16     3    27    1
    17    27    28    1
    18    27    29    1
    19    29    31    1
    20    31    32   ar
    21    32    33   ar
    22    33    34   ar
    23    34    35   ar
    24    35    36    1
    25    35    37   ar
    26    37    40    1
    27    40    41    3
    28     3     4   ar
    29     4     5   ar
    30     5     6   ar
    31     6     7   ar
    32     7     8   ar
    33     8     9    1
    34     8    10   ar
    35    10    11   ar
    36    11     1   ar
    37    17    12   ar
    38    37    31   ar
    39    11     5   ar
    40    25    26    1
    41    18    21    1
    42    29    30    1
    43    36    38    1
    44    36    39    1
@<TRIPOS>MOLECULE
*****
 41 44 0 0 0
SMALL
GASTEIGER

@<TRIPOS>ATOM
      1 C           0.4888    1.8384   23.9830 C.ar    1  UNL1        0.0575
      2 C          -0.6137    2.6805   23.4128 C.ar    1  UNL1        0.0372
      3 C          -0.9557    2.5820   21.9557 C.ar    1  UNL1        0.0782
      4 N          -0.1951    1.6414   21.0687 N.ar    1  UNL1       -0.2480
      5 C           0.9075    0.7992   21.6389 C.ar    1  UNL1        0.0812
      6 C           1.6680   -0.1414   20.7519 C.ar    1  UNL1        0.0214
      7 C           2.7705   -0.9836   21.3221 C.ar    1  UNL1        0.0312
      8 C           3.1125   -0.8851   22.7793 C.ar    1  UNL1        0.1402
      9 F           4.2151   -1.7273   23.3495 F       1  UNL1       -0.2042
     10 C           2.3520    0.0555   23.6663 C.ar    1  UNL1        0.0313
     11 C           1.2494    0.8977   23.0961 C.ar    1  UNL1        0.0243
     12 C          -1.3743    3.6212   24.2998 C.ar    1  UNL1        0.0826
     13 C          -2.6293    3.1608   24.9803 C.ar    1  UNL1        0.0192
     14 C          -3.3899    4.1014   25.8672 C.ar    1  UNL1        0.0031
     15 C          -2.8955    5.5024   26.0737 C.ar    1  UNL1        0.0207
     16 C          -1.6405    5.9628   25.3933 C.ar    1  UNL1        0.0988
     17 N          -0.8799    5.0222   24.5063 N.ar    1  UNL1       -0.2438
     18 N           0.1733    1.0197   26.4285 N.am    1  UNL1       -0.2995
     19 C           0.8308    1.9368   25.4402 C.2     1  UNL1        0.2460
     20 O           1.8302    2.9523   25.9091 O.2     1  UNL1       -0.2701
     21 H          -0.4826    0.3532   26.1208 H       1  UNL1        0.1498
     22 C           0.5153    1.1182   27.8857 C.3     1  UNL1        0.1068
     23 C           1.0603   -0.0766   28.6106 C.3     1  UNL1        0.0901
     24 C           2.6231   -0.6034   30.6181 C.3     1  UNL1        0.0859
     25 N           1.3664    0.0108   30.0764 N.3     1  UNL1       -0.2949
     26 H           1.3983    1.0027   30.3120 H       1  UNL1        0.1233
     27 C          -2.0583    3.4243   21.3855 C.3     1  UNL1        0.1110
     28 C          -1.8826    4.9092   21.2662 C.3     1  UNL1        0.0278
     29 N          -3.3364    2.7816   20.9346 N.pl3   1  UNL1       -0.3141
     30 H          -3.3123    1.9261   20.4479 H       1  UNL1        0.1485
     31 C          -4.6513    3.4423   21.2254 C.ar    1  UNL1        0.1429
     32 N          -5.0871    3.6529   22.6452 N.ar    1  UNL1       -0.2084
     33 C          -6.4020    4.3136   22.9359 C.ar    1  UNL1        0.2012
     34 N          -7.2811    4.7636   21.8069 N.ar    1  UNL1       -0.2087
     35 C          -6.8453    4.5530   20.3872 C.ar    1  UNL1        0.1396
     36 N          -7.7244    5.0030   19.2582 N.pl3   1  UNL1       -0.3420
     37 C          -5.5304    3.8923   20.0964 C.ar    1  UNL1        0.1308
     38 H          -8.5874    5.4366   19.4490 H       1  UNL1        0.1437
     39 H          -7.4384    4.8647   18.3263 H       1  UNL1        0.1437
     40 C          -5.0946    3.6816   18.6766 C.1     1  UNL1        0.1061
     41 N          -4.6588    3.4710   17.2569 N.1     1  UNL1       -0.1906
@<TRIPOS>BOND
     1    24    25    1
     2    25    23    1
     3    23    22    1
     4    22    18    1
     5    18    19   am
     6    19    20    2
     7    19     1    1
     8     1     2   ar
     9     2    12    1
    10    12    13   ar
    11    13    14   ar
    12    14    15   ar
    13    15    16   ar
    14    16    17   ar
    15     2     3   ar
    16     3    27    1
    17    27    28    1
    18    27    29    1
    19    29    31    1
    20    31    32   ar
    21    32    33   ar
    22    33    34   ar
    23    34    35   ar
    24    35    36    1
    25    35    37   ar
    26    37    40    1
    27    40    41    3
    28     3     4   ar
    29     4     5   ar
    30     5     6   ar
    31     6     7   ar
    32     7     8   ar
    33     8     9    1
    34     8    10   ar
    35    10    11   ar
    36    11     1   ar
    37    17    12   ar
    38    37    31   ar
    39    11     5   ar
    40    25    26    1
    41    18    21    1
    42    29    30    1
    43    36    38    1
    44    36    39    1
@<TRIPOS>MOLECULE
*****
 41 44 0 0 0
SMALL
GASTEIGER

@<TRIPOS>ATOM
      1 C           2.8715   -0.0977   24.2318 C.ar    1  UNL1        0.0575
      2 C           3.8599   -0.6421   25.2199 C.ar    1  UNL1        0.0372
      3 C           4.8450   -1.6906   24.7954 C.ar    1  UNL1        0.0782
      4 N           4.8416   -2.1947   23.3827 N.ar    1  UNL1       -0.2480
      5 C           3.8531   -1.6504   22.3944 C.ar    1  UNL1        0.0812
      6 C           3.8497   -2.1545   20.9817 C.ar    1  UNL1        0.0214
      7 C           2.8612   -1.6101   19.9936 C.ar    1  UNL1        0.0312
      8 C           1.8761   -0.5616   20.4181 C.ar    1  UNL1        0.1402
      9 F           0.8876   -0.0172   19.4298 F       1  UNL1       -0.2042
     10 C           1.8795   -0.0574   21.8308 C.ar    1  UNL1        0.0313
     11 C           2.8680   -0.6018   22.8190 C.ar    1  UNL1        0.0243
     12 C           3.8634   -0.1379   26.6327 C.ar    1  UNL1        0.0826
     13 C           4.6654    1.0773   26.9934 C.ar    1  UNL1        0.0192
     14 C           4.6689    1.5814   28.4061 C.ar    1  UNL1        0.0031
     15 C           3.8704    0.8704   29.4581 C.ar    1  UNL1        0.0207
     16 C           3.0683   -0.3448   29.0974 C.ar    1  UNL1        0.0988
     17 N           3.0648   -0.8489   27.6847 N.ar    1  UNL1       -0.2438
     18 N           0.5890    0.5475   25.2921 N.am    1  UNL1       -0.2995
     19 C           1.8864    0.9509   24.6563 C.2     1  UNL1        0.2460
     20 O           2.1987    2.4027   24.4451 O.2     1  UNL1       -0.2701
     21 H           0.3840   -0.4054   25.4307 H       1  UNL1        0.1498
     22 C          -0.3961    1.5960   25.7166 C.3     1  UNL1        0.1068
     23 C          -0.8439    1.6693   27.1463 C.3     1  UNL1        0.0901
     24 C          -1.2145   -0.3410   28.7498 C.3     1  UNL1        0.0859
     25 N          -0.3079    0.6932   28.1511 N.3     1  UNL1       -0.2949
     26 H           0.4530    0.1894   27.6954 H       1  UNL1        0.1233
     27 C           5.8335   -2.2350   25.7836 C.3     1  UNL1        0.1110
     28 C           7.3043   -2.0564   25.5492 C.3     1  UNL1        0.0278
     29 N           5.3512   -2.9579   27.0062 N.pl3   1  UNL1       -0.3141
     30 H           4.4590   -3.3739   27.0122 H       1  UNL1        0.1485
     31 C           6.2285   -3.0470   28.2197 C.ar    1  UNL1        0.1429
     32 N           6.3618   -1.8677   29.1370 N.ar    1  UNL1       -0.2084
     33 C           7.2390   -1.9568   30.3505 C.ar    1  UNL1        0.2012
     34 N           7.9829   -3.2252   30.6466 N.ar    1  UNL1       -0.2087
     35 C           7.8496   -4.4045   29.7293 C.ar    1  UNL1        0.1396
     36 N           8.5936   -5.6729   30.0255 N.pl3   1  UNL1       -0.3420
     37 C           6.9724   -4.3154   28.5158 C.ar    1  UNL1        0.1308
     38 H           9.1693   -5.7314   30.8220 H       1  UNL1        0.1437
     39 H           8.5061   -6.4469   29.4234 H       1  UNL1        0.1437
     40 C           6.8391   -5.4947   27.5985 C.1     1  UNL1        0.1061
     41 N           6.7058   -6.6740   26.6813 N.1     1  UNL1       -0.1906
@<TRIPOS>BOND
     1    24    25    1
     2    25    23    1
     3    23    22    1
     4    22    18    1
     5    18    19   am
     6    19    20    2
     7    19     1    1
     8     1     2   ar
     9     2    12    1
    10    12    13   ar
    11    13    14   ar
    12    14    15   ar
    13    15    16   ar
    14    16    17   ar
    15     2     3   ar
    16     3    27    1
    17    27    28    1
    18    27    29    1
    19    29    31    1
    20    31    32   ar
    21    32    33   ar
    22    33    34   ar
    23    34    35   ar
    24    35    36    1
    25    35    37   ar
    26    37    40    1
    27    40    41    3
    28     3     4   ar
    29     4     5   ar
    30     5     6   ar
    31     6     7   ar
    32     7     8   ar
    33     8     9    1
    34     8    10   ar
    35    10    11   ar
    36    11     1   ar
    37    17    12   ar
    38    37    31   ar
    39    11     5   ar
    40    25    26    1
    41    18    21    1
    42    29    30    1
    43    36    38    1
    44    36    39    1
