@<TRIPOS>MOLECULE
*****
 44 48 0 0 0
SMALL
GASTEIGER

@<TRIPOS>ATOM
      1 C           3.6739    3.6192   22.1506 C.ar    1  UNL1        0.1392
      2 C           5.0681    3.2785   22.5866 C.ar    1  UNL1        0.0384
      3 C           5.7610    2.0782   22.0130 C.ar    1  UNL1        0.0203
      4 C           5.0597    1.2185   21.0035 C.ar    1  UNL1        0.0606
      5 C           3.6655    1.5592   20.5675 C.ar    1  UNL1        0.0256
      6 C           2.9726    2.7595   21.1411 C.ar    1  UNL1        0.0389
      7 C           3.2301    0.5333   19.5635 C.ar    1  UNL1        0.0383
      8 C           4.3553   -0.4414   19.3790 C.ar    1  UNL1        0.0433
      9 N           5.4860   -0.0179   20.2689 N.ar    1  UNL1       -0.3260
     10 O           2.9809    4.8196   22.7242 O.3     1  UNL1       -0.4690
     11 C           1.5130    4.7643   23.0278 C.3     1  UNL1        0.2508
     12 C          -0.5136    1.1929   27.4025 C.3     1  UNL1        0.0327
     13 C          -0.0070    2.0858   26.3088 C.ar    1  UNL1       -0.0027
     14 C          -0.0643    1.6295   24.8810 C.ar    1  UNL1       -0.0014
     15 C           0.4423    2.5223   23.7874 C.ar    1  UNL1        0.0181
     16 C           1.0063    3.8714   24.1215 C.ar    1  UNL1        0.1026
     17 N           1.0637    4.3278   25.5492 N.ar    1  UNL1       -0.2448
     18 C           0.5570    3.4349   26.6429 C.ar    1  UNL1        0.0943
     19 S           1.9026    0.4898   18.8665 S.3     1  UNL1       -0.1142
     20 C           0.6868    1.0630   19.5322 C.3     1  UNL1        0.0434
     21 C           0.6811    2.1946   18.5477 C.3     1  UNL1        0.0112
     22 C           0.6924   -0.0687   20.5168 C.3     1  UNL1        0.0112
     23 C          -0.5291    1.6361   20.1980 C.3     1  UNL1        0.0112
     24 C           4.3504   -1.6307   18.4649 C.3     1  UNL1        0.0495
     25 C           4.4582   -3.0144   19.0340 C.3     1  UNL1        0.0376
     26 C           3.2632   -2.7507   19.9015 C.3     1  UNL1        0.0059
     27 C           5.6531   -3.2782   18.1665 C.3     1  UNL1        0.0059
     28 C           4.5659   -4.3981   19.6030 C.2     1  UNL1        0.0500
     29 O           4.4266   -4.6142   21.0808 O.co2   1  UNL1       -0.5492
     30 O           4.8130   -5.5657   18.6943 O.co2   1  UNL1       -0.5492
     31 C           6.8105   -0.7094   20.4011 C.3     1  UNL1        0.1324
     32 C           6.9700   -1.8463   21.3665 C.ar    1  UNL1        0.0004
     33 C           7.9840   -2.9192   21.1008 C.ar    1  UNL1       -0.0023
     34 C           8.1435   -4.0561   22.0663 C.ar    1  UNL1        0.0012
     35 C           7.2889   -4.1199   23.2975 C.ar    1  UNL1        0.0176
     36 C           6.2750   -3.0469   23.5631 C.ar    1  UNL1        0.0012
     37 C           6.1155   -1.9101   22.5976 C.ar    1  UNL1       -0.0023
     38 C           7.4484   -5.2568   24.2630 C.ar    1  UNL1        0.0813
     39 C           8.1653   -6.5047   23.8403 C.ar    1  UNL1        0.0188
     40 C           8.3248   -7.6416   24.8057 C.ar    1  UNL1       -0.0012
     41 C           7.7674   -7.5305   26.1939 C.ar    1  UNL1       -0.0027
     42 C           7.9269   -8.6673   27.1595 C.3     1  UNL1        0.0327
     43 C           7.0506   -6.2825   26.6166 C.ar    1  UNL1        0.0945
     44 N           6.8911   -5.1456   25.6511 N.ar    1  UNL1       -0.2442
@<TRIPOS>UNITY_ATOM_ATTR
29 1
charge -1
@<TRIPOS>BOND
     1    12    13    1
     2    13    14   ar
     3    14    15   ar
     4    15    16   ar
     5    16    11    1
     6    11    10    1
     7    10     1    1
     8     1     2   ar
     9     2     3   ar
    10     3     4   ar
    11     4     5   ar
    12     5     6   ar
    13     5     7   ar
    14     7    19    1
    15    19    20    1
    16    20    21    1
    17    20    22    1
    18    20    23    1
    19     7     8   ar
    20     8    24    1
    21    24    25    1
    22    25    26    1
    23    25    27    1
    24    25    28    1
    25    28    29   ar
    26    28    30   ar
    27     8     9   ar
    28     9    31    1
    29    31    32    1
    30    32    33   ar
    31    33    34   ar
    32    34    35   ar
    33    35    38    1
    34    38    39   ar
    35    39    40   ar
    36    40    41   ar
    37    41    42    1
    38    41    43   ar
    39    43    44   ar
    40    35    36   ar
    41    36    37   ar
    42    16    17   ar
    43    17    18   ar
    44    18    13   ar
    45     6     1   ar
    46    37    32   ar
    47     9     4   ar
    48    44    38   ar
@<TRIPOS>MOLECULE
*****
 44 48 0 0 0
SMALL
GASTEIGER

@<TRIPOS>ATOM
      1 C           2.7520    2.5946   23.8492 C.ar    1  UNL1        0.1392
      2 C           4.1606    2.3854   24.3201 C.ar    1  UNL1        0.0384
      3 C           5.0799    1.4789   23.5564 C.ar    1  UNL1        0.0203
      4 C           4.5904    0.7817   22.3218 C.ar    1  UNL1        0.0606
      5 C           3.1818    0.9910   21.8508 C.ar    1  UNL1        0.0256
      6 C           2.2625    1.8974   22.6146 C.ar    1  UNL1        0.0389
      7 C           2.9825    0.1751   20.6080 C.ar    1  UNL1        0.0383
      8 C           4.2680   -0.5384   20.3108 C.ar    1  UNL1        0.0433
      9 N           5.2618   -0.1636   21.3700 N.ar    1  UNL1       -0.3260
     10 O           1.8327    3.5011   24.6130 O.3     1  UNL1       -0.4690
     11 C           1.8333    3.4792   26.1128 C.3     1  UNL1        0.2508
     12 C          -1.5555   -0.5020   29.0565 C.3     1  UNL1        0.0327
     13 C          -0.7083    0.4933   28.3206 C.ar    1  UNL1       -0.0027
     14 C          -1.3535    1.6381   27.5974 C.ar    1  UNL1       -0.0014
     15 C          -0.5064    2.6334   26.8615 C.ar    1  UNL1        0.0181
     16 C           0.9861    2.4839   26.8487 C.ar    1  UNL1        0.1026
     17 N           1.6313    1.3391   27.5719 N.ar    1  UNL1       -0.2448
     18 C           0.7842    0.3438   28.3078 C.ar    1  UNL1        0.0943
     19 S           1.7194    0.0880   19.8036 S.3     1  UNL1       -0.1142
     20 C           1.1462    1.3217   19.1715 C.3     1  UNL1        0.0434
     21 C          -0.0534    1.2230   20.0666 C.3     1  UNL1        0.0112
     22 C           2.3459    1.4204   18.2764 C.3     1  UNL1        0.0112
     23 C           0.5731    2.5554   18.5394 C.3     1  UNL1        0.0112
     24 C           4.5162   -1.4643   19.1570 C.3     1  UNL1        0.0495
     25 C           4.9238   -2.8855   19.4101 C.3     1  UNL1        0.0376
     26 C           3.6492   -3.1164   20.1666 C.3     1  UNL1        0.0059
     27 C           6.1983   -2.6547   18.6536 C.3     1  UNL1        0.0059
     28 C           5.3314   -4.3067   19.6632 C.2     1  UNL1        0.0500
     29 O           6.6118   -4.6023   20.3865 O.co2   1  UNL1       -0.5492
     30 O           4.4585   -5.4324   19.1930 O.co2   1  UNL1       -0.5492
     31 C           6.6782   -0.6487   21.4613 C.3     1  UNL1        0.1324
     32 C           7.0108   -1.8359   22.3158 C.ar    1  UNL1        0.0004
     33 C           5.9235   -2.5515   23.0613 C.ar    1  UNL1       -0.0023
     34 C           6.2561   -3.7387   23.9157 C.ar    1  UNL1        0.0012
     35 C           7.6759   -4.2102   24.0246 C.ar    1  UNL1        0.0176
     36 C           8.7631   -3.4945   23.2791 C.ar    1  UNL1        0.0012
     37 C           8.4305   -2.3073   22.4246 C.ar    1  UNL1       -0.0023
     38 C           8.0084   -5.3974   24.8790 C.ar    1  UNL1        0.0813
     39 C           8.0981   -6.7625   24.2639 C.ar    1  UNL1        0.0188
     40 C           8.4306   -7.9497   25.1184 C.ar    1  UNL1       -0.0012
     41 C           8.6735   -7.7717   26.5878 C.ar    1  UNL1       -0.0027
     42 C           9.0060   -8.9589   27.4423 C.3     1  UNL1        0.0327
     43 C           8.5839   -6.4066   27.2029 C.ar    1  UNL1        0.0945
     44 N           8.2513   -5.2194   26.3484 N.ar    1  UNL1       -0.2442
@<TRIPOS>UNITY_ATOM_ATTR
29 1
charge -1
@<TRIPOS>BOND
     1    12    13    1
     2    13    14   ar
     3    14    15   ar
     4    15    16   ar
     5    16    11    1
     6    11    10    1
     7    10     1    1
     8     1     2   ar
     9     2     3   ar
    10     3     4   ar
    11     4     5   ar
    12     5     6   ar
    13     5     7   ar
    14     7    19    1
    15    19    20    1
    16    20    21    1
    17    20    22    1
    18    20    23    1
    19     7     8   ar
    20     8    24    1
    21    24    25    1
    22    25    26    1
    23    25    27    1
    24    25    28    1
    25    28    29   ar
    26    28    30   ar
    27     8     9   ar
    28     9    31    1
    29    31    32    1
    30    32    33   ar
    31    33    34   ar
    32    34    35   ar
    33    35    38    1
    34    38    39   ar
    35    39    40   ar
    36    40    41   ar
    37    41    42    1
    38    41    43   ar
    39    43    44   ar
    40    35    36   ar
    41    36    37   ar
    42    16    17   ar
    43    17    18   ar
    44    18    13   ar
    45     6     1   ar
    46    37    32   ar
    47     9     4   ar
    48    44    38   ar
@<TRIPOS>MOLECULE
*****
 44 48 0 0 0
SMALL
GASTEIGER

@<TRIPOS>ATOM
      1 C           0.7760    1.3184   25.2473 C.ar    1  UNL1        0.1392
      2 C           2.1413    1.0397   25.8024 C.ar    1  UNL1        0.0384
      3 C           3.2696    0.6898   24.8780 C.ar    1  UNL1        0.0203
      4 C           3.0325    0.6185   23.3986 C.ar    1  UNL1        0.0606
      5 C           1.6672    0.8971   22.8435 C.ar    1  UNL1        0.0256
      6 C           0.5389    1.2471   23.7678 C.ar    1  UNL1        0.0389
      7 C           1.7347    0.7519   21.3521 C.ar    1  UNL1        0.0383
      8 C           3.1418    0.3835   20.9854 C.ar    1  UNL1        0.0433
      9 N           3.9439    0.3011   22.2502 N.ar    1  UNL1       -0.3260
     10 O          -0.3524    1.6684   26.1716 O.3     1  UNL1       -0.4690
     11 C          -0.8294    3.0871   26.2693 C.3     1  UNL1        0.2508
     12 C          -6.4049    4.5019   24.5625 C.3     1  UNL1        0.0327
     13 C          -5.0110    4.1482   24.9893 C.ar    1  UNL1       -0.0027
     14 C          -4.0310    3.6181   23.9850 C.ar    1  UNL1       -0.0014
     15 C          -2.6371    3.2644   24.4116 C.ar    1  UNL1        0.0181
     16 C          -2.2233    3.4408   25.8426 C.ar    1  UNL1        0.1026
     17 N          -3.2033    3.9709   26.8468 N.ar    1  UNL1       -0.2448
     18 C          -4.5971    4.3246   26.4202 C.ar    1  UNL1        0.0943
     19 S           0.5952    0.9418   20.3953 S.3     1  UNL1       -0.1142
     20 C           0.6165    2.0814   19.4202 C.3     1  UNL1        0.0434
     21 C           0.3065    3.0389   20.5325 C.3     1  UNL1        0.0112
     22 C           0.9264    1.1240   18.3079 C.3     1  UNL1        0.0112
     23 C           0.6378    3.2211   18.4452 C.3     1  UNL1        0.0112
     24 C           3.6564    0.1403   19.5975 C.3     1  UNL1        0.0495
     25 C           4.1505   -1.2216   19.2088 C.3     1  UNL1        0.0376
     26 C           2.8789   -1.8295   19.7220 C.3     1  UNL1        0.0059
     27 C           5.4222   -0.6137   18.6956 C.3     1  UNL1        0.0059
     28 C           4.6447   -2.5834   18.8201 C.2     1  UNL1        0.0500
     29 O           4.0164   -3.8078   19.4168 O.co2   1  UNL1       -0.5492
     30 O           5.7672   -2.7209   17.8346 O.co2   1  UNL1       -0.5492
     31 C           5.4015   -0.0391   22.3493 C.3     1  UNL1        0.1324
     32 C           5.8321   -1.3011   23.0363 C.ar    1  UNL1        0.0004
     33 C           5.4516   -2.6342   22.4637 C.ar    1  UNL1       -0.0023
     34 C           5.8822   -3.8961   23.1507 C.ar    1  UNL1        0.0012
     35 C           6.6934   -3.8249   24.4105 C.ar    1  UNL1        0.0176
     36 C           7.0739   -2.4918   24.9831 C.ar    1  UNL1        0.0012
     37 C           6.6432   -1.2298   24.2961 C.ar    1  UNL1       -0.0023
     38 C           7.1240   -5.0868   25.0976 C.ar    1  UNL1        0.0813
     39 C           7.8011   -6.1730   24.3155 C.ar    1  UNL1        0.0188
     40 C           8.2317   -7.4350   25.0025 C.ar    1  UNL1       -0.0012
     41 C           7.9853   -7.6107   26.4717 C.ar    1  UNL1       -0.0027
     42 C           8.4159   -8.8727   27.1588 C.3     1  UNL1        0.0327
     43 C           7.3082   -6.5245   27.2537 C.ar    1  UNL1        0.0945
     44 N           6.8776   -5.2625   26.5667 N.ar    1  UNL1       -0.2442
@<TRIPOS>UNITY_ATOM_ATTR
29 1
charge -1
@<TRIPOS>BOND
     1    12    13    1
     2    13    14   ar
     3    14    15   ar
     4    15    16   ar
     5    16    11    1
     6    11    10    1
     7    10     1    1
     8     1     2   ar
     9     2     3   ar
    10     3     4   ar
    11     4     5   ar
    12     5     6   ar
    13     5     7   ar
    14     7    19    1
    15    19    20    1
    16    20    21    1
    17    20    22    1
    18    20    23    1
    19     7     8   ar
    20     8    24    1
    21    24    25    1
    22    25    26    1
    23    25    27    1
    24    25    28    1
    25    28    29   ar
    26    28    30   ar
    27     8     9   ar
    28     9    31    1
    29    31    32    1
    30    32    33   ar
    31    33    34   ar
    32    34    35   ar
    33    35    38    1
    34    38    39   ar
    35    39    40   ar
    36    40    41   ar
    37    41    42    1
    38    41    43   ar
    39    43    44   ar
    40    35    36   ar
    41    36    37   ar
    42    16    17   ar
    43    17    18   ar
    44    18    13   ar
    45     6     1   ar
    46    37    32   ar
    47     9     4   ar
    48    44    38   ar
@<TRIPOS>MOLECULE
*****
 44 48 0 0 0
SMALL
GASTEIGER

@<TRIPOS>ATOM
      1 C           5.4333   -3.0724   23.7363 C.ar    1  UNL1        0.1392
      2 C           5.4923   -1.7484   24.4390 C.ar    1  UNL1        0.0384
      3 C           4.9038   -0.5295   23.7926 C.ar    1  UNL1        0.0203
      4 C           4.2562   -0.6345   22.4437 C.ar    1  UNL1        0.0606
      5 C           4.1972   -1.9584   21.7411 C.ar    1  UNL1        0.0256
      6 C           4.7858   -3.1773   22.3874 C.ar    1  UNL1        0.0389
      7 C           3.5003   -1.7558   20.4283 C.ar    1  UNL1        0.0383
      8 C           3.1286   -0.3066   20.3197 C.ar    1  UNL1        0.0433
      9 N           3.5957    0.3864   21.5652 N.ar    1  UNL1       -0.3260
     10 O           6.0218   -4.2914   24.3827 O.3     1  UNL1       -0.4690
     11 C           7.2493   -4.1692   25.2360 C.3     1  UNL1        0.2508
     12 C           7.0431   -5.7214   31.0281 C.3     1  UNL1        0.0327
     13 C           7.0947   -5.3333   29.5801 C.ar    1  UNL1       -0.0027
     14 C           7.6631   -6.2840   28.5686 C.ar    1  UNL1       -0.0014
     15 C           7.7147   -5.8960   27.1206 C.ar    1  UNL1        0.0181
     16 C           7.1978   -4.5573   26.6841 C.ar    1  UNL1        0.1026
     17 N           6.6294   -3.6066   27.6955 N.ar    1  UNL1       -0.2448
     18 C           6.5778   -3.9946   29.1435 C.ar    1  UNL1        0.0943
     19 S           3.2237   -2.8162   19.4041 S.3     1  UNL1       -0.1142
     20 C           4.2707   -3.8417   19.0847 C.3     1  UNL1        0.0434
     21 C           3.3772   -4.9209   19.6205 C.3     1  UNL1        0.0112
     22 C           5.1642   -2.7626   18.5489 C.3     1  UNL1        0.0112
     23 C           5.3177   -4.8673   18.7653 C.3     1  UNL1        0.0112
     24 C           2.4149    0.3365   19.1676 C.3     1  UNL1        0.0495
     25 C           1.2097    1.1942   19.4165 C.3     1  UNL1        0.0376
     26 C           1.8644    2.3270   18.6829 C.3     1  UNL1        0.0059
     27 C           0.5550    0.0614   20.1501 C.3     1  UNL1        0.0059
     28 C           0.0045    2.0519   19.6654 C.2     1  UNL1        0.0500
     29 O          -0.3367    3.1602   18.7140 O.co2   1  UNL1       -0.5492
     30 O          -0.8595    1.8011   20.8657 O.co2   1  UNL1       -0.5492
     31 C           3.4313    1.8443   21.8775 C.3     1  UNL1        0.1324
     32 C           2.2158    2.3207   22.6160 C.ar    1  UNL1        0.0004
     33 C           1.7342    3.7300   22.4377 C.ar    1  UNL1       -0.0023
     34 C           0.5187    4.2064   23.1762 C.ar    1  UNL1        0.0012
     35 C          -0.2153    3.2733   24.0932 C.ar    1  UNL1        0.0176
     36 C           0.2662    1.8640   24.2715 C.ar    1  UNL1        0.0012
     37 C           1.4818    1.3877   23.5329 C.ar    1  UNL1       -0.0023
     38 C          -1.4309    3.7497   24.8317 C.ar    1  UNL1        0.0813
     39 C          -2.7997    3.4363   24.3043 C.ar    1  UNL1        0.0188
     40 C          -4.0153    3.9127   25.0428 C.ar    1  UNL1       -0.0012
     41 C          -3.8621    4.7025   26.3088 C.ar    1  UNL1       -0.0027
     42 C          -5.0776    5.1789   27.0474 C.3     1  UNL1        0.0327
     43 C          -2.4933    5.0159   26.8362 C.ar    1  UNL1        0.0945
     44 N          -1.2777    4.5395   26.0977 N.ar    1  UNL1       -0.2442
@<TRIPOS>UNITY_ATOM_ATTR
29 1
charge -1
@<TRIPOS>BOND
     1    12    13    1
     2    13    14   ar
     3    14    15   ar
     4    15    16   ar
     5    16    11    1
     6    11    10    1
     7    10     1    1
     8     1     2   ar
     9     2     3   ar
    10     3     4   ar
    11     4     5   ar
    12     5     6   ar
    13     5     7   ar
    14     7    19    1
    15    19    20    1
    16    20    21    1
    17    20    22    1
    18    20    23    1
    19     7     8   ar
    20     8    24    1
    21    24    25    1
    22    25    26    1
    23    25    27    1
    24    25    28    1
    25    28    29   ar
    26    28    30   ar
    27     8     9   ar
    28     9    31    1
    29    31    32    1
    30    32    33   ar
    31    33    34   ar
    32    34    35   ar
    33    35    38    1
    34    38    39   ar
    35    39    40   ar
    36    40    41   ar
    37    41    42    1
    38    41    43   ar
    39    43    44   ar
    40    35    36   ar
    41    36    37   ar
    42    16    17   ar
    43    17    18   ar
    44    18    13   ar
    45     6     1   ar
    46    37    32   ar
    47     9     4   ar
    48    44    38   ar
@<TRIPOS>MOLECULE
*****
 44 48 0 0 0
SMALL
GASTEIGER

@<TRIPOS>ATOM
      1 C           5.6935   -1.1079   26.3541 C.ar    1  UNL1        0.1392
      2 C           4.2891   -0.8031   25.9244 C.ar    1  UNL1        0.0384
      3 C           3.8100   -1.2308   24.5689 C.ar    1  UNL1        0.0203
      4 C           4.7354   -1.9633   23.6431 C.ar    1  UNL1        0.0606
      5 C           6.1398   -2.2681   24.0728 C.ar    1  UNL1        0.0256
      6 C           6.6188   -1.8404   25.4283 C.ar    1  UNL1        0.0389
      7 C           6.8188   -2.9993   22.9528 C.ar    1  UNL1        0.0383
      8 C           5.8340   -3.1464   21.8310 C.ar    1  UNL1        0.0433
      9 N           4.5464   -2.5061   22.2575 N.ar    1  UNL1       -0.3260
     10 O           6.1726   -0.6802   27.7097 O.3     1  UNL1       -0.4690
     11 C           5.4806   -1.1816   28.9424 C.3     1  UNL1        0.2508
     12 C           7.4895   -6.1079   31.7168 C.3     1  UNL1        0.0327
     13 C           6.9873   -4.8763   31.0232 C.ar    1  UNL1       -0.0027
     14 C           6.6025   -3.6683   31.8248 C.ar    1  UNL1       -0.0014
     15 C           6.1002   -2.4367   31.1313 C.ar    1  UNL1        0.0181
     16 C           5.9828   -2.4132   29.6361 C.ar    1  UNL1        0.1026
     17 N           6.3676   -3.6212   28.8344 N.ar    1  UNL1       -0.2448
     18 C           6.8698   -4.8528   29.5280 C.ar    1  UNL1        0.0943
     19 S           8.2341   -3.4962   22.9545 S.3     1  UNL1       -0.1142
     20 C           8.5123   -4.9683   22.8796 C.3     1  UNL1        0.0434
     21 C           7.7272   -5.1808   24.1399 C.3     1  UNL1        0.0112
     22 C           9.2974   -4.7557   21.6192 C.3     1  UNL1        0.0112
     23 C           8.7905   -6.4403   22.8046 C.3     1  UNL1        0.0112
     24 C           6.0917   -3.8163   20.5137 C.3     1  UNL1        0.0495
     25 C           5.9140   -3.0513   19.2358 C.3     1  UNL1        0.0376
     26 C           4.8645   -4.0288   18.7966 C.3     1  UNL1        0.0059
     27 C           6.9635   -2.0737   19.6751 C.3     1  UNL1        0.0059
     28 C           5.7362   -2.2862   17.9579 C.2     1  UNL1        0.0500
     29 O           4.3580   -2.0136   17.4325 O.co2   1  UNL1       -0.5492
     30 O           6.9368   -1.7937   17.2054 O.co2   1  UNL1       -0.5492
     31 C           3.2903   -2.4232   21.4418 C.3     1  UNL1        0.1324
     32 C           2.9385   -1.1484   20.7339 C.ar    1  UNL1        0.0004
     33 C           3.9767   -0.0815   20.5501 C.ar    1  UNL1       -0.0023
     34 C           3.6249    1.1933   19.8422 C.ar    1  UNL1        0.0012
     35 C           2.2349    1.4011   19.3181 C.ar    1  UNL1        0.0176
     36 C           1.1968    0.3341   19.5019 C.ar    1  UNL1        0.0012
     37 C           1.5485   -0.9407   20.2098 C.ar    1  UNL1       -0.0023
     38 C           1.8831    2.6759   18.6101 C.ar    1  UNL1        0.0813
     39 C           0.4507    2.9853   18.2899 C.ar    1  UNL1        0.0188
     40 C           0.0989    4.2601   17.5820 C.ar    1  UNL1       -0.0012
     41 C           1.1795    5.2255   17.1943 C.ar    1  UNL1       -0.0027
     42 C           0.8278    6.5003   16.4864 C.3     1  UNL1        0.0327
     43 C           2.6119    4.9161   17.5146 C.ar    1  UNL1        0.0945
     44 N           2.9637    3.6413   18.2225 N.ar    1  UNL1       -0.2442
@<TRIPOS>UNITY_ATOM_ATTR
29 1
charge -1
@<TRIPOS>BOND
     1    12    13    1
     2    13    14   ar
     3    14    15   ar
     4    15    16   ar
     5    16    11    1
     6    11    10    1
     7    10     1    1
     8     1     2   ar
     9     2     3   ar
    10     3     4   ar
    11     4     5   ar
    12     5     6   ar
    13     5     7   ar
    14     7    19    1
    15    19    20    1
    16    20    21    1
    17    20    22    1
    18    20    23    1
    19     7     8   ar
    20     8    24    1
    21    24    25    1
    22    25    26    1
    23    25    27    1
    24    25    28    1
    25    28    29   ar
    26    28    30   ar
    27     8     9   ar
    28     9    31    1
    29    31    32    1
    30    32    33   ar
    31    33    34   ar
    32    34    35   ar
    33    35    38    1
    34    38    39   ar
    35    39    40   ar
    36    40    41   ar
    37    41    42    1
    38    41    43   ar
    39    43    44   ar
    40    35    36   ar
    41    36    37   ar
    42    16    17   ar
    43    17    18   ar
    44    18    13   ar
    45     6     1   ar
    46    37    32   ar
    47     9     4   ar
    48    44    38   ar
@<TRIPOS>MOLECULE
*****
 44 48 0 0 0
SMALL
GASTEIGER

@<TRIPOS>ATOM
      1 C           5.9764   -1.6605   26.6486 C.ar    1  UNL1        0.1392
      2 C           4.5974   -1.2447   26.2297 C.ar    1  UNL1        0.0384
      3 C           4.1011   -1.5722   24.8526 C.ar    1  UNL1        0.0203
      4 C           4.9839   -2.3156   23.8944 C.ar    1  UNL1        0.0606
      5 C           6.3628   -2.7314   24.3133 C.ar    1  UNL1        0.0256
      6 C           6.8591   -2.4039   25.6903 C.ar    1  UNL1        0.0389
      7 C           7.0011   -3.4480   23.1604 C.ar    1  UNL1        0.0383
      8 C           6.0166   -3.4750   22.0290 C.ar    1  UNL1        0.0433
      9 N           4.7699   -2.7751   22.4826 N.ar    1  UNL1       -0.3260
     10 O           6.4727   -1.3330   28.0257 O.3     1  UNL1       -0.4690
     11 C           6.1213   -2.2229   29.1809 C.3     1  UNL1        0.2508
     12 C           9.4100   -7.1128   30.3096 C.3     1  UNL1        0.0327
     13 C           8.5878   -5.8903   30.0274 C.ar    1  UNL1       -0.0027
     14 C           8.8933   -4.6019   30.7321 C.ar    1  UNL1       -0.0014
     15 C           8.0712   -3.3794   30.4500 C.ar    1  UNL1        0.0181
     16 C           6.9435   -3.4454   29.4631 C.ar    1  UNL1        0.1026
     17 N           6.6380   -4.7338   28.7584 N.ar    1  UNL1       -0.2448
     18 C           7.4602   -5.9562   29.0405 C.ar    1  UNL1        0.0943
     19 S           8.3815   -4.0345   23.1421 S.3     1  UNL1       -0.1142
     20 C           8.5640   -5.5198   23.0389 C.3     1  UNL1        0.0434
     21 C           9.2903   -5.3402   21.7388 C.3     1  UNL1        0.0112
     22 C           7.8378   -5.6994   24.3391 C.3     1  UNL1        0.0112
     23 C           8.7466   -7.0051   22.9357 C.3     1  UNL1        0.0112
     24 C           6.2398   -4.0933   20.6806 C.3     1  UNL1        0.0495
     25 C           6.0252   -3.2808   19.4381 C.3     1  UNL1        0.0376
     26 C           7.1430   -2.3662   19.8432 C.3     1  UNL1        0.0059
     27 C           4.9075   -4.1953   19.0330 C.3     1  UNL1        0.0059
     28 C           5.8107   -2.4682   18.1957 C.2     1  UNL1        0.0500
     29 O           4.4347   -1.9864   17.8429 O.co2   1  UNL1       -0.5492
     30 O           6.9722   -2.1375   17.3060 O.co2   1  UNL1       -0.5492
     31 C           3.5273   -2.5707   21.6676 C.3     1  UNL1        0.1324
     32 C           3.3115   -1.2763   20.9410 C.ar    1  UNL1        0.0004
     33 C           4.3734   -0.2172   20.9640 C.ar    1  UNL1       -0.0023
     34 C           4.1576    1.0773   20.2374 C.ar    1  UNL1        0.0012
     35 C           2.8797    1.3124   19.4878 C.ar    1  UNL1        0.0176
     36 C           1.8178    0.2533   19.4649 C.ar    1  UNL1        0.0012
     37 C           2.0337   -1.0411   20.1914 C.ar    1  UNL1       -0.0023
     38 C           2.6638    2.6069   18.7612 C.ar    1  UNL1        0.0813
     39 C           3.8304    3.3328   18.1595 C.ar    1  UNL1        0.0188
     40 C           3.6146    4.6272   17.4329 C.ar    1  UNL1       -0.0012
     41 C           2.2321    5.1957   17.3080 C.ar    1  UNL1       -0.0027
     42 C           2.0162    6.4901   16.5814 C.3     1  UNL1        0.0327
     43 C           1.0655    4.4697   17.9097 C.ar    1  UNL1        0.0945
     44 N           1.2814    3.1753   18.6362 N.ar    1  UNL1       -0.2442
@<TRIPOS>UNITY_ATOM_ATTR
29 1
charge -1
@<TRIPOS>BOND
     1    12    13    1
     2    13    14   ar
     3    14    15   ar
     4    15    16   ar
     5    16    11    1
     6    11    10    1
     7    10     1    1
     8     1     2   ar
     9     2     3   ar
    10     3     4   ar
    11     4     5   ar
    12     5     6   ar
    13     5     7   ar
    14     7    19    1
    15    19    20    1
    16    20    21    1
    17    20    22    1
    18    20    23    1
    19     7     8   ar
    20     8    24    1
    21    24    25    1
    22    25    26    1
    23    25    27    1
    24    25    28    1
    25    28    29   ar
    26    28    30   ar
    27     8     9   ar
    28     9    31    1
    29    31    32    1
    30    32    33   ar
    31    33    34   ar
    32    34    35   ar
    33    35    38    1
    34    38    39   ar
    35    39    40   ar
    36    40    41   ar
    37    41    42    1
    38    41    43   ar
    39    43    44   ar
    40    35    36   ar
    41    36    37   ar
    42    16    17   ar
    43    17    18   ar
    44    18    13   ar
    45     6     1   ar
    46    37    32   ar
    47     9     4   ar
    48    44    38   ar
@<TRIPOS>MOLECULE
*****
 44 48 0 0 0
SMALL
GASTEIGER

@<TRIPOS>ATOM
      1 C           7.9785   -2.0553   24.1301 C.ar    1  UNL1        0.1392
      2 C           7.6869   -0.6220   24.4627 C.ar    1  UNL1        0.0384
      3 C           6.7962    0.1891   23.5690 C.ar    1  UNL1        0.0203
      4 C           6.1971   -0.4332   22.3427 C.ar    1  UNL1        0.0606
      5 C           6.4887   -1.8664   22.0101 C.ar    1  UNL1        0.0256
      6 C           7.3794   -2.6775   22.9038 C.ar    1  UNL1        0.0389
      7 C           5.7607   -2.2056   20.7432 C.ar    1  UNL1        0.0383
      8 C           5.0192   -0.9819   20.2928 C.ar    1  UNL1        0.0433
      9 N           5.2889    0.1135   21.2814 N.ar    1  UNL1       -0.3260
     10 O           8.8693   -2.8664   25.0238 O.3     1  UNL1       -0.4690
     11 C           8.5016   -4.2797   25.3664 C.3     1  UNL1        0.2508
     12 C           6.9523   -5.6984   30.9867 C.3     1  UNL1        0.0327
     13 C           7.3396   -5.3438   29.5816 C.ar    1  UNL1       -0.0027
     14 C           7.0480   -3.9731   29.0465 C.ar    1  UNL1       -0.0014
     15 C           7.4353   -3.6184   27.6415 C.ar    1  UNL1        0.0181
     16 C           8.1142   -4.6344   26.7715 C.ar    1  UNL1        0.1026
     17 N           8.4059   -6.0050   27.3066 N.ar    1  UNL1       -0.2448
     18 C           8.0186   -6.3597   28.7116 C.ar    1  UNL1        0.0943
     19 S           5.7722   -3.5350   20.0486 S.3     1  UNL1       -0.1142
     20 C           4.5156   -4.3503   19.9685 C.3     1  UNL1        0.0434
     21 C           4.3590   -4.2553   21.4573 C.3     1  UNL1        0.0112
     22 C           4.6722   -4.4452   18.4797 C.3     1  UNL1        0.0112
     23 C           3.2591   -5.1655   19.8883 C.3     1  UNL1        0.0112
     24 C           4.1590   -0.8729   19.0688 C.3     1  UNL1        0.0495
     25 C           2.7509   -0.3688   19.1841 C.3     1  UNL1        0.0376
     26 C           3.0265    0.6458   18.1142 C.3     1  UNL1        0.0059
     27 C           2.4753   -1.3835   20.2540 C.3     1  UNL1        0.0059
     28 C           1.3428    0.1352   19.2994 C.2     1  UNL1        0.0500
     29 O           0.5565   -0.1160   20.5518 O.co2   1  UNL1       -0.5492
     30 O           0.7211    0.8905   18.1623 O.co2   1  UNL1       -0.5492
     31 C           4.7457    1.5104   21.2195 C.3     1  UNL1        0.1324
     32 C           3.4653    1.8491   21.9235 C.ar    1  UNL1        0.0004
     33 C           2.6012    2.9641   21.4135 C.ar    1  UNL1       -0.0023
     34 C           1.3207    3.3028   22.1175 C.ar    1  UNL1        0.0012
     35 C           0.9044    2.5264   23.3317 C.ar    1  UNL1        0.0176
     36 C           1.7685    1.4115   23.8416 C.ar    1  UNL1        0.0012
     37 C           3.0490    1.0728   23.1376 C.ar    1  UNL1       -0.0023
     38 C          -0.3761    2.8651   24.0357 C.ar    1  UNL1        0.0813
     39 C          -0.5205    2.5903   25.5032 C.ar    1  UNL1        0.0188
     40 C          -1.8010    2.9290   26.2073 C.ar    1  UNL1       -0.0012
     41 C          -2.9370    3.5425   25.4438 C.ar    1  UNL1       -0.0027
     42 C          -4.2176    3.8813   26.1478 C.3     1  UNL1        0.0327
     43 C          -2.7926    3.8173   23.9763 C.ar    1  UNL1        0.0945
     44 N          -1.5122    3.4786   23.2723 N.ar    1  UNL1       -0.2442
@<TRIPOS>UNITY_ATOM_ATTR
29 1
charge -1
@<TRIPOS>BOND
     1    12    13    1
     2    13    14   ar
     3    14    15   ar
     4    15    16   ar
     5    16    11    1
     6    11    10    1
     7    10     1    1
     8     1     2   ar
     9     2     3   ar
    10     3     4   ar
    11     4     5   ar
    12     5     6   ar
    13     5     7   ar
    14     7    19    1
    15    19    20    1
    16    20    21    1
    17    20    22    1
    18    20    23    1
    19     7     8   ar
    20     8    24    1
    21    24    25    1
    22    25    26    1
    23    25    27    1
    24    25    28    1
    25    28    29   ar
    26    28    30   ar
    27     8     9   ar
    28     9    31    1
    29    31    32    1
    30    32    33   ar
    31    33    34   ar
    32    34    35   ar
    33    35    38    1
    34    38    39   ar
    35    39    40   ar
    36    40    41   ar
    37    41    42    1
    38    41    43   ar
    39    43    44   ar
    40    35    36   ar
    41    36    37   ar
    42    16    17   ar
    43    17    18   ar
    44    18    13   ar
    45     6     1   ar
    46    37    32   ar
    47     9     4   ar
    48    44    38   ar
@<TRIPOS>MOLECULE
*****
 44 48 0 0 0
SMALL
GASTEIGER

@<TRIPOS>ATOM
      1 C           0.4037    1.4593   20.4084 C.ar    1  UNL1        0.1392
      2 C           0.3829   -0.0202   20.6545 C.ar    1  UNL1        0.0384
      3 C           1.4933   -0.8830   20.1324 C.ar    1  UNL1        0.0203
      4 C           2.6244   -0.2663   19.3641 C.ar    1  UNL1        0.0606
      5 C           2.6452    1.2132   19.1180 C.ar    1  UNL1        0.0256
      6 C           1.5349    2.0760   19.6401 C.ar    1  UNL1        0.0389
      7 C           3.8824    1.5352   18.3334 C.ar    1  UNL1        0.0383
      8 C           4.6263    0.2547   18.0946 C.ar    1  UNL1        0.0433
      9 N           3.8488   -0.8587   18.7317 N.ar    1  UNL1       -0.3260
     10 O          -0.7067    2.3222   20.9305 O.3     1  UNL1       -0.4690
     11 C          -1.2170    3.4675   20.1072 C.3     1  UNL1        0.2508
     12 C          -7.0411    3.7913   18.7016 C.3     1  UNL1        0.0327
     13 C          -5.5850    3.7104   19.0530 C.ar    1  UNL1       -0.0027
     14 C          -5.1692    3.3564   20.4501 C.ar    1  UNL1       -0.0014
     15 C          -3.7132    3.2754   20.8015 C.ar    1  UNL1        0.0181
     16 C          -2.6730    3.5485   19.7558 C.ar    1  UNL1        0.1026
     17 N          -3.0888    3.9025   18.3588 N.ar    1  UNL1       -0.2448
     18 C          -4.5448    3.9834   18.0074 C.ar    1  UNL1        0.0943
     19 S           4.3021    2.8984   17.8691 S.3     1  UNL1       -0.1142
     20 C           4.2258    4.0666   18.8069 C.3     1  UNL1        0.0434
     21 C           3.1873    4.7022   17.9308 C.3     1  UNL1        0.0112
     22 C           5.2644    3.4310   19.6831 C.3     1  UNL1        0.0112
     23 C           4.1496    5.2348   19.7448 C.3     1  UNL1        0.0112
     24 C           5.9205    0.1126   17.3496 C.3     1  UNL1        0.0495
     25 C           7.1568    0.7937   17.8573 C.3     1  UNL1        0.0376
     26 C           6.9385    0.1822   19.2094 C.3     1  UNL1        0.0059
     27 C           7.3751    1.4052   16.5051 C.3     1  UNL1        0.0059
     28 C           8.3931    1.4748   18.3649 C.2     1  UNL1        0.0500
     29 O           8.5905    1.6695   19.8390 O.co2   1  UNL1       -0.5492
     30 O           9.4320    1.9612   17.3983 O.co2   1  UNL1       -0.5492
     31 C           4.2290   -2.3097   18.7356 C.3     1  UNL1        0.1324
     32 C           4.9086   -2.9038   19.9336 C.ar    1  UNL1        0.0004
     33 C           6.3234   -3.3907   19.8286 C.ar    1  UNL1       -0.0023
     34 C           7.0030   -3.9848   21.0266 C.ar    1  UNL1        0.0012
     35 C           6.2676   -4.0919   22.3296 C.ar    1  UNL1        0.0176
     36 C           4.8528   -3.6049   22.4346 C.ar    1  UNL1        0.0012
     37 C           4.1732   -3.0109   21.2365 C.ar    1  UNL1       -0.0023
     38 C           6.9472   -4.6860   23.5277 C.ar    1  UNL1        0.0813
     39 C           6.6747   -4.1334   24.8953 C.ar    1  UNL1        0.0188
     40 C           7.3543   -4.7275   26.0933 C.ar    1  UNL1       -0.0012
     41 C           8.3064   -5.8741   25.9237 C.ar    1  UNL1       -0.0027
     42 C           8.9861   -6.4682   27.1217 C.3     1  UNL1        0.0327
     43 C           8.5789   -6.4267   24.5561 C.ar    1  UNL1        0.0945
     44 N           7.8993   -5.8326   23.3581 N.ar    1  UNL1       -0.2442
@<TRIPOS>UNITY_ATOM_ATTR
29 1
charge -1
@<TRIPOS>BOND
     1    12    13    1
     2    13    14   ar
     3    14    15   ar
     4    15    16   ar
     5    16    11    1
     6    11    10    1
     7    10     1    1
     8     1     2   ar
     9     2     3   ar
    10     3     4   ar
    11     4     5   ar
    12     5     6   ar
    13     5     7   ar
    14     7    19    1
    15    19    20    1
    16    20    21    1
    17    20    22    1
    18    20    23    1
    19     7     8   ar
    20     8    24    1
    21    24    25    1
    22    25    26    1
    23    25    27    1
    24    25    28    1
    25    28    29   ar
    26    28    30   ar
    27     8     9   ar
    28     9    31    1
    29    31    32    1
    30    32    33   ar
    31    33    34   ar
    32    34    35   ar
    33    35    38    1
    34    38    39   ar
    35    39    40   ar
    36    40    41   ar
    37    41    42    1
    38    41    43   ar
    39    43    44   ar
    40    35    36   ar
    41    36    37   ar
    42    16    17   ar
    43    17    18   ar
    44    18    13   ar
    45     6     1   ar
    46    37    32   ar
    47     9     4   ar
    48    44    38   ar
@<TRIPOS>MOLECULE
*****
 44 48 0 0 0
SMALL
GASTEIGER

@<TRIPOS>ATOM
      1 C           0.3179    1.5119   20.3303 C.ar    1  UNL1        0.1392
      2 C           0.2862    0.0335   20.5820 C.ar    1  UNL1        0.0384
      3 C           1.4046   -0.8355   20.0882 C.ar    1  UNL1        0.0203
      4 C           2.5548   -0.2261   19.3427 C.ar    1  UNL1        0.0606
      5 C           2.5866    1.2523   19.0911 C.ar    1  UNL1        0.0256
      6 C           1.4681    2.1212   19.5849 C.ar    1  UNL1        0.0389
      7 C           3.8421    1.5665   18.3328 C.ar    1  UNL1        0.0383
      8 C           4.5863    0.2823   18.1159 C.ar    1  UNL1        0.0433
      9 N           3.7908   -0.8256   18.7400 N.ar    1  UNL1       -0.3260
     10 O          -0.8006    2.3809   20.8241 O.3     1  UNL1       -0.4690
     11 C          -0.5589    3.3511   21.9422 C.3     1  UNL1        0.2508
     12 C          -0.8256    1.4895   27.6399 C.3     1  UNL1        0.0327
     13 C          -0.7590    1.9549   26.2154 C.ar    1  UNL1       -0.0027
     14 C           0.2592    1.3699   25.2821 C.ar    1  UNL1       -0.0014
     15 C           0.3259    1.8353   23.8578 C.ar    1  UNL1        0.0181
     16 C          -0.6256    2.8857   23.3667 C.ar    1  UNL1        0.1026
     17 N          -1.6438    3.4707   24.3000 N.ar    1  UNL1       -0.2448
     18 C          -1.7104    3.0053   25.7244 C.ar    1  UNL1        0.0943
     19 S           4.2770    2.9262   17.8724 S.3     1  UNL1       -0.1142
     20 C           4.1688    4.1016   18.7980 C.3     1  UNL1        0.0434
     21 C           3.1679    4.7345   17.8773 C.3     1  UNL1        0.0112
     22 C           5.1697    3.4688   19.7187 C.3     1  UNL1        0.0112
     23 C           4.0606    5.2771   19.7236 C.3     1  UNL1        0.0112
     24 C           5.8962    0.1325   17.4004 C.3     1  UNL1        0.0495
     25 C           7.1211    0.8203   17.9263 C.3     1  UNL1        0.0376
     26 C           7.3624    1.4241   16.5746 C.3     1  UNL1        0.0059
     27 C           6.8797    0.2165   19.2780 C.3     1  UNL1        0.0059
     28 C           8.3459    1.5082   18.4522 C.2     1  UNL1        0.0500
     29 O           8.3939    1.9670   19.8795 O.co2   1  UNL1       -0.5492
     30 O           9.5228    1.7372   17.5508 O.co2   1  UNL1       -0.5492
     31 C           4.1653   -2.2779   18.7583 C.3     1  UNL1        0.1324
     32 C           4.8521   -2.8603   19.9580 C.ar    1  UNL1        0.0004
     33 C           6.2682   -3.3433   19.8506 C.ar    1  UNL1       -0.0023
     34 C           6.9549   -3.9257   21.0503 C.ar    1  UNL1        0.0012
     35 C           6.2255   -4.0251   22.3573 C.ar    1  UNL1        0.0176
     36 C           4.8095   -3.5422   22.4645 C.ar    1  UNL1        0.0012
     37 C           4.1227   -2.9597   21.2649 C.ar    1  UNL1       -0.0023
     38 C           6.9122   -4.6075   23.5570 C.ar    1  UNL1        0.0813
     39 C           6.7264   -3.9791   24.9062 C.ar    1  UNL1        0.0188
     40 C           7.4131   -4.5615   26.1059 C.ar    1  UNL1       -0.0012
     41 C           8.2858   -5.7723   25.9563 C.ar    1  UNL1       -0.0027
     42 C           8.9726   -6.3548   27.1559 C.3     1  UNL1        0.0327
     43 C           8.4716   -6.4007   24.6070 C.ar    1  UNL1        0.0945
     44 N           7.7849   -5.8183   23.4074 N.ar    1  UNL1       -0.2442
@<TRIPOS>UNITY_ATOM_ATTR
29 1
charge -1
@<TRIPOS>BOND
     1    12    13    1
     2    13    14   ar
     3    14    15   ar
     4    15    16   ar
     5    16    11    1
     6    11    10    1
     7    10     1    1
     8     1     2   ar
     9     2     3   ar
    10     3     4   ar
    11     4     5   ar
    12     5     6   ar
    13     5     7   ar
    14     7    19    1
    15    19    20    1
    16    20    21    1
    17    20    22    1
    18    20    23    1
    19     7     8   ar
    20     8    24    1
    21    24    25    1
    22    25    26    1
    23    25    27    1
    24    25    28    1
    25    28    29   ar
    26    28    30   ar
    27     8     9   ar
    28     9    31    1
    29    31    32    1
    30    32    33   ar
    31    33    34   ar
    32    34    35   ar
    33    35    38    1
    34    38    39   ar
    35    39    40   ar
    36    40    41   ar
    37    41    42    1
    38    41    43   ar
    39    43    44   ar
    40    35    36   ar
    41    36    37   ar
    42    16    17   ar
    43    17    18   ar
    44    18    13   ar
    45     6     1   ar
    46    37    32   ar
    47     9     4   ar
    48    44    38   ar
