@<TRIPOS>MOLECULE
*****
 34 38 0 0 0
SMALL
GASTEIGER

@<TRIPOS>ATOM
      1 C          -0.6285    2.4884   20.6450 C.ar    1  UNL1        0.1074
      2 C           0.4906    3.2268   19.9726 C.ar    1  UNL1        0.0588
      3 S           1.4745    2.2147   19.4648 S.2     1  UNL1       -0.0508
      4 C           0.9634    0.8509   19.8235 C.ar    1  UNL1        0.1646
      5 N          -0.3363    1.0200   20.5529 N.ar    1  UNL1       -0.2224
      6 C          -4.3753    3.6258   21.2914 C.ar    1  UNL1        0.2416
      7 N          -3.1748    3.0048   20.6410 N.ar    1  UNL1       -0.2089
      8 C          -1.8291    3.1093   21.2954 C.ar    1  UNL1        0.1026
      9 C          -1.6840    3.8348   22.6004 C.ar    1  UNL1        0.0224
     10 C          -2.8846    4.4558   23.2508 C.ar    1  UNL1        0.0239
     11 C          -4.2303    4.3513   22.5963 C.ar    1  UNL1        0.1189
     12 N          -5.4308    4.9722   23.2467 N.ar    1  UNL1       -0.2826
     13 C          -6.2128    4.3939   24.3886 C.ar    1  UNL1        0.1826
     14 N          -7.3255    5.3448   24.7170 N.ar    1  UNL1       -0.2280
     15 C          -7.2311    6.5107   23.7781 C.ar    1  UNL1        0.0786
     16 C          -8.1469    7.6985   23.7524 C.3     1  UNL1        0.0538
     17 C          -6.0601    6.2805   22.8695 C.ar    1  UNL1        0.0963
     18 C          -5.8209    3.3649   19.1485 C.3     1  UNL1        0.2543
     19 O          -5.7210    3.5213   20.6369 O.3     1  UNL1       -0.4551
     20 N           1.6342   -0.4532   19.5081 N.pl3   1  UNL1       -0.2786
     21 H           1.4713   -0.8940   18.6430 H       1  UNL1        0.1555
     22 C           2.5532   -1.0856   20.5108 C.ar    1  UNL1        0.1278
     23 C           2.6707   -0.7108   21.9585 C.ar    1  UNL1        0.0244
     24 C           3.7062   -1.5974   22.5844 C.ar    1  UNL1        0.0773
     25 N           4.2287   -2.5202   21.5235 N.ar    1  UNL1       -0.1726
     26 N           3.5161   -2.2040   20.2420 N.ar    1  UNL1       -0.2295
     27 C           3.8237   -1.2226   24.0320 C.3     1  UNL1        0.0477
     28 C           2.8608   -0.1043   24.3008 C.3     1  UNL1        0.0112
     29 C           2.1482    0.2120   23.0193 C.3     1  UNL1        0.0308
     30 C           3.7290   -2.8862   18.9232 C.3     1  UNL1        0.2315
     31 C           4.2050   -4.3081   18.8825 C.3     1  UNL1        0.4200
     32 F           4.6810   -5.7300   18.8418 F       1  UNL1       -0.1679
     33 F           2.7968   -4.7851   19.0805 F       1  UNL1       -0.1679
     34 F           5.6132   -3.8310   18.6846 F       1  UNL1       -0.1679
@<TRIPOS>BOND
     1    18    19    1
     2    19     6    1
     3     6     7   ar
     4     7     8   ar
     5     8     1    1
     6     1     2   ar
     7     2     3   ar
     8     3     4   ar
     9     4    20    1
    10    20    22    1
    11    22    23   ar
    12    23    24   ar
    13    24    25   ar
    14    25    26   ar
    15    26    30    1
    16    30    31    1
    17    31    32    1
    18    31    33    1
    19    31    34    1
    20    24    27    1
    21    27    28    1
    22    28    29    1
    23     4     5   ar
    24     8     9   ar
    25     9    10   ar
    26    10    11   ar
    27    11    12    1
    28    12    13   ar
    29    13    14   ar
    30    14    15   ar
    31    15    16    1
    32    15    17   ar
    33    11     6   ar
    34    17    12   ar
    35     5     1   ar
    36    26    22   ar
    37    29    23    1
    38    20    21    1
@<TRIPOS>MOLECULE
*****
 34 38 0 0 0
SMALL
GASTEIGER

@<TRIPOS>ATOM
      1 C           3.6663    0.5080   33.2245 C.ar    1  UNL1        0.1074
      2 C           2.6402    1.3169   32.4879 C.ar    1  UNL1        0.0588
      3 S           2.0380    2.2929   33.4547 S.2     1  UNL1       -0.0508
      4 C           2.6920    2.0872   34.7888 C.ar    1  UNL1        0.1646
      5 N           3.6983    0.9841   34.6466 N.ar    1  UNL1       -0.2224
      6 C           6.0567   -1.4676   30.7480 C.ar    1  UNL1        0.2416
      7 N           5.2110   -0.3745   31.3311 N.ar    1  UNL1       -0.2089
      8 C           4.5120   -0.5851   32.6415 C.ar    1  UNL1        0.1026
      9 C           4.6587   -1.8888   33.3688 C.ar    1  UNL1        0.0224
     10 C           5.5043   -2.9819   32.7857 C.ar    1  UNL1        0.0239
     11 C           6.2034   -2.7714   31.4754 C.ar    1  UNL1        0.1189
     12 N           7.0490   -3.8644   30.8923 N.ar    1  UNL1       -0.2826
     13 C           8.3935   -4.3016   31.3936 C.ar    1  UNL1        0.1826
     14 N           8.8741   -5.4196   30.5167 N.ar    1  UNL1       -0.2280
     15 C           7.8266   -5.6735   29.4735 C.ar    1  UNL1        0.0786
     16 C           7.8951   -6.7070   28.3885 C.3     1  UNL1        0.0538
     17 C           6.6987   -4.7123   29.7056 C.ar    1  UNL1        0.0963
     18 C           6.2163   -0.2645   28.4510 C.3     1  UNL1        0.2543
     19 O           6.7557   -1.2571   29.4377 O.3     1  UNL1       -0.4551
     20 N           2.3922    2.8507   36.0448 N.pl3   1  UNL1       -0.2786
     21 H           1.5792    3.4028   36.1031 H       1  UNL1        0.1555
     22 C           3.3313    2.7730   37.2118 C.ar    1  UNL1        0.1278
     23 C           4.8082    3.0324   37.1739 C.ar    1  UNL1        0.0244
     24 C           5.3481    2.8420   38.5604 C.ar    1  UNL1        0.0773
     25 N           4.2048    2.4650   39.4552 N.ar    1  UNL1       -0.1726
     26 N           2.9583    2.4223   38.6218 N.ar    1  UNL1       -0.2295
     27 C           6.8250    3.1013   38.5225 C.3     1  UNL1        0.0477
     28 C           7.1979    3.4520   37.1125 C.3     1  UNL1        0.0112
     29 C           5.9515    3.4094   36.2791 C.3     1  UNL1        0.0308
     30 C           1.5809    2.0878   39.1122 C.3     1  UNL1        0.2315
     31 C           1.2505    0.6825   39.5197 C.3     1  UNL1        0.4200
     32 F           0.9201   -0.7228   39.9273 F       1  UNL1       -0.1679
     33 F           1.9999    0.1612   38.3296 F       1  UNL1       -0.1679
     34 F           0.5011    1.2038   40.7099 F       1  UNL1       -0.1679
@<TRIPOS>BOND
     1    18    19    1
     2    19     6    1
     3     6     7   ar
     4     7     8   ar
     5     8     1    1
     6     1     2   ar
     7     2     3   ar
     8     3     4   ar
     9     4    20    1
    10    20    22    1
    11    22    23   ar
    12    23    24   ar
    13    24    25   ar
    14    25    26   ar
    15    26    30    1
    16    30    31    1
    17    31    32    1
    18    31    33    1
    19    31    34    1
    20    24    27    1
    21    27    28    1
    22    28    29    1
    23     4     5   ar
    24     8     9   ar
    25     9    10   ar
    26    10    11   ar
    27    11    12    1
    28    12    13   ar
    29    13    14   ar
    30    14    15   ar
    31    15    16    1
    32    15    17   ar
    33    11     6   ar
    34    17    12   ar
    35     5     1   ar
    36    26    22   ar
    37    29    23    1
    38    20    21    1
@<TRIPOS>MOLECULE
*****
 34 38 0 0 0
SMALL
GASTEIGER

@<TRIPOS>ATOM
      1 C          -0.7779    2.9366   20.2949 C.ar    1  UNL1        0.1074
      2 C          -0.7728    4.4241   20.1020 C.ar    1  UNL1        0.0588
      3 S          -2.0902    4.9580   20.5809 S.2     1  UNL1       -0.0508
      4 C          -2.9094    3.8005   21.0698 C.ar    1  UNL1        0.1646
      5 N          -2.0984    2.5512   20.8930 N.ar    1  UNL1       -0.2224
      6 C           2.6580    1.5664   18.8570 C.ar    1  UNL1        0.2416
      7 N           1.5390    2.5040   19.2017 N.ar    1  UNL1       -0.2089
      8 C           0.3411    1.9990   19.9502 C.ar    1  UNL1        0.1026
      9 C           0.2623    0.5565   20.3541 C.ar    1  UNL1        0.0224
     10 C           1.3813   -0.3810   20.0094 C.ar    1  UNL1        0.0239
     11 C           2.5792    0.1239   19.2608 C.ar    1  UNL1        0.1189
     12 N           3.6982   -0.8137   18.9161 N.ar    1  UNL1       -0.2826
     13 C           4.0410   -1.3101   17.5429 C.ar    1  UNL1        0.1826
     14 N           5.2255   -2.2226   17.6622 N.ar    1  UNL1       -0.2280
     15 C           5.6147   -2.2901   19.1093 C.ar    1  UNL1        0.0786
     16 C           6.7488   -3.0883   19.6810 C.3     1  UNL1        0.0538
     17 C           4.6708   -1.4194   19.8842 C.ar    1  UNL1        0.0963
     18 C           5.0479    2.5852   18.8599 C.3     1  UNL1        0.2543
     19 O           3.8558    2.0713   18.1085 O.3     1  UNL1       -0.4551
     20 N          -4.2963    3.8786   21.6360 N.pl3   1  UNL1       -0.2786
     21 H          -5.0714    3.9439   21.0326 H       1  UNL1        0.1555
     22 C          -4.5021    3.8571   23.1217 C.ar    1  UNL1        0.1278
     23 C          -3.4305    3.6906   24.1580 C.ar    1  UNL1        0.0244
     24 C          -4.0817    3.7290   25.5087 C.ar    1  UNL1        0.0773
     25 N          -5.5559    3.9193   25.3072 N.ar    1  UNL1       -0.1726
     26 N          -5.8158    3.9985   23.8320 N.ar    1  UNL1       -0.2295
     27 C          -3.0101    3.5624   26.5449 C.3     1  UNL1        0.0477
     28 C          -1.6965    3.4211   25.8347 C.3     1  UNL1        0.0112
     29 C          -1.9563    3.5003   24.3594 C.3     1  UNL1        0.0308
     30 C          -7.1541    4.1861   23.1813 C.3     1  UNL1        0.2315
     31 C          -8.2496    4.9041   23.9125 C.3     1  UNL1        0.4200
     32 F          -9.3450    5.6221   24.6436 F       1  UNL1       -0.1679
     33 F          -9.0875    3.6605   23.8783 F       1  UNL1       -0.1679
     34 F          -7.4116    6.1477   23.9467 F       1  UNL1       -0.1679
@<TRIPOS>BOND
     1    18    19    1
     2    19     6    1
     3     6     7   ar
     4     7     8   ar
     5     8     1    1
     6     1     2   ar
     7     2     3   ar
     8     3     4   ar
     9     4    20    1
    10    20    22    1
    11    22    23   ar
    12    23    24   ar
    13    24    25   ar
    14    25    26   ar
    15    26    30    1
    16    30    31    1
    17    31    32    1
    18    31    33    1
    19    31    34    1
    20    24    27    1
    21    27    28    1
    22    28    29    1
    23     4     5   ar
    24     8     9   ar
    25     9    10   ar
    26    10    11   ar
    27    11    12    1
    28    12    13   ar
    29    13    14   ar
    30    14    15   ar
    31    15    16    1
    32    15    17   ar
    33    11     6   ar
    34    17    12   ar
    35     5     1   ar
    36    26    22   ar
    37    29    23    1
    38    20    21    1
@<TRIPOS>MOLECULE
*****
 34 38 0 0 0
SMALL
GASTEIGER

@<TRIPOS>ATOM
      1 C           0.1413    2.4471   18.9875 C.ar    1  UNL1        0.1074
      2 C          -0.1391    3.1609   17.6983 C.ar    1  UNL1        0.0588
      3 S          -1.1006    4.2758   17.9854 S.2     1  UNL1       -0.0508
      4 C          -1.4145    4.2511   19.4520 C.ar    1  UNL1        0.1646
      5 N          -0.6470    3.1209   20.0713 N.ar    1  UNL1       -0.2224
      6 C           3.1518   -0.0807   18.4423 C.ar    1  UNL1        0.2416
      7 N           2.2428    1.0997   18.2676 N.ar    1  UNL1       -0.2089
      8 C           1.0503    1.2668   19.1621 C.ar    1  UNL1        0.1026
      9 C           0.7668    0.2535   20.2313 C.ar    1  UNL1        0.0224
     10 C           1.6758   -0.9268   20.4059 C.ar    1  UNL1        0.0239
     11 C           2.8683   -1.0940   19.5114 C.ar    1  UNL1        0.1189
     12 N           3.7773   -2.2743   19.6861 N.ar    1  UNL1       -0.2826
     13 C           3.4586   -3.6940   19.3219 C.ar    1  UNL1        0.1826
     14 N           4.6489   -4.5393   19.6663 N.ar    1  UNL1       -0.2280
     15 C           5.7033   -3.6419   20.2433 C.ar    1  UNL1        0.0786
     16 C           7.0585   -4.0693   20.7238 C.3     1  UNL1        0.0538
     17 C           5.1646   -2.2421   20.2555 C.ar    1  UNL1        0.0963
     18 C           5.4003    0.8162   17.4993 C.3     1  UNL1        0.2543
     19 O           4.3442   -0.2478   17.5478 O.3     1  UNL1       -0.4551
     20 N          -2.3344    5.1915   20.1728 N.pl3   1  UNL1       -0.2786
     21 H          -2.1958    6.1638   20.1054 H       1  UNL1        0.1555
     22 C          -3.4653    4.6503   20.9962 C.ar    1  UNL1        0.1278
     23 C          -3.3741    4.1774   22.4168 C.ar    1  UNL1        0.0244
     24 C          -4.7385    3.7218   22.8423 C.ar    1  UNL1        0.0773
     25 N          -5.6730    3.9132   21.6846 N.ar    1  UNL1       -0.1726
     26 N          -4.8861    4.4870   20.5436 N.ar    1  UNL1       -0.2295
     27 C          -4.6473    3.2489   24.2628 C.3     1  UNL1        0.0477
     28 C          -3.2266    3.4122   24.7154 C.3     1  UNL1        0.0112
     29 C          -2.4397    3.9860   23.5745 C.3     1  UNL1        0.0308
     30 C          -5.4253    4.8362   19.1883 C.3     1  UNL1        0.2315
     31 C          -5.0043    4.0434   17.9864 C.3     1  UNL1        0.4200
     32 F          -4.5834    3.2505   16.7847 F       1  UNL1       -0.1679
     33 F          -4.2449    5.2293   17.4702 F       1  UNL1       -0.1679
     34 F          -5.7639    2.8574   18.5028 F       1  UNL1       -0.1679
@<TRIPOS>BOND
     1    18    19    1
     2    19     6    1
     3     6     7   ar
     4     7     8   ar
     5     8     1    1
     6     1     2   ar
     7     2     3   ar
     8     3     4   ar
     9     4    20    1
    10    20    22    1
    11    22    23   ar
    12    23    24   ar
    13    24    25   ar
    14    25    26   ar
    15    26    30    1
    16    30    31    1
    17    31    32    1
    18    31    33    1
    19    31    34    1
    20    24    27    1
    21    27    28    1
    22    28    29    1
    23     4     5   ar
    24     8     9   ar
    25     9    10   ar
    26    10    11   ar
    27    11    12    1
    28    12    13   ar
    29    13    14   ar
    30    14    15   ar
    31    15    16    1
    32    15    17   ar
    33    11     6   ar
    34    17    12   ar
    35     5     1   ar
    36    26    22   ar
    37    29    23    1
    38    20    21    1
@<TRIPOS>MOLECULE
*****
 34 38 0 0 0
SMALL
GASTEIGER

@<TRIPOS>ATOM
      1 C           1.7849    0.6861   21.8069 C.ar    1  UNL1        0.1074
      2 C           0.6909    0.5149   20.7951 C.ar    1  UNL1        0.0588
      3 S           1.3243    0.4259   19.4383 S.2     1  UNL1       -0.0508
      4 C           2.8097    0.5421   19.6116 C.ar    1  UNL1        0.1646
      5 N           3.0943    0.7028   21.0755 N.ar    1  UNL1       -0.2224
      6 C           2.5180    0.5326   25.7042 C.ar    1  UNL1        0.2416
      7 N           2.7013    0.4013   24.2213 N.ar    1  UNL1       -0.2089
      8 C           1.6016    0.8174   23.2899 C.ar    1  UNL1        0.1026
      9 C           0.3185    1.3647   23.8415 C.ar    1  UNL1        0.0224
     10 C           0.1351    1.4960   25.3244 C.ar    1  UNL1        0.0239
     11 C           1.2349    1.0800   26.2558 C.ar    1  UNL1        0.1189
     12 N           1.0516    1.2113   27.7388 N.ar    1  UNL1       -0.2826
     13 C           0.6421    0.1150   28.6770 C.ar    1  UNL1        0.1826
     14 N           0.5830    0.6881   30.0619 N.ar    1  UNL1       -0.2280
     15 C           0.9559    2.1387   29.9796 C.ar    1  UNL1        0.0786
     16 C           1.0268    3.0976   31.1309 C.3     1  UNL1        0.0538
     17 C           1.2455    2.4620   28.5438 C.ar    1  UNL1        0.0963
     18 C           3.7061   -1.3057   27.1037 C.3     1  UNL1        0.2543
     19 O           3.6177    0.1166   26.6357 O.3     1  UNL1       -0.4551
     20 N           3.8312    0.5041   18.5138 N.pl3   1  UNL1       -0.2786
     21 H           3.9770    1.2975   17.9494 H       1  UNL1        0.1555
     22 C           4.6304   -0.7427   18.2758 C.ar    1  UNL1        0.1278
     23 C           4.2623   -2.1254   18.7261 C.ar    1  UNL1        0.0244
     24 C           5.3424   -3.0630   18.2743 C.ar    1  UNL1        0.0773
     25 N           6.3782   -2.2599   17.5448 N.ar    1  UNL1       -0.1726
     26 N           5.9382   -0.8258   17.5456 N.ar    1  UNL1       -0.2295
     27 C           4.9743   -4.4457   18.7246 C.3     1  UNL1        0.0477
     28 C           3.6666   -4.3625   19.4546 C.3     1  UNL1        0.0112
     29 C           3.2265   -2.9285   19.4556 C.3     1  UNL1        0.0308
     30 C           6.6762    0.3233   16.9254 C.3     1  UNL1        0.2315
     31 C           7.2729    1.3891   17.7961 C.3     1  UNL1        0.4200
     32 F           7.8696    2.4549   18.6668 F       1  UNL1       -0.1679
     33 F           8.1498    0.3633   18.4508 F       1  UNL1       -0.1679
     34 F           6.3960    2.4149   17.1414 F       1  UNL1       -0.1679
@<TRIPOS>BOND
     1    18    19    1
     2    19     6    1
     3     6     7   ar
     4     7     8   ar
     5     8     1    1
     6     1     2   ar
     7     2     3   ar
     8     3     4   ar
     9     4    20    1
    10    20    22    1
    11    22    23   ar
    12    23    24   ar
    13    24    25   ar
    14    25    26   ar
    15    26    30    1
    16    30    31    1
    17    31    32    1
    18    31    33    1
    19    31    34    1
    20    24    27    1
    21    27    28    1
    22    28    29    1
    23     4     5   ar
    24     8     9   ar
    25     9    10   ar
    26    10    11   ar
    27    11    12    1
    28    12    13   ar
    29    13    14   ar
    30    14    15   ar
    31    15    16    1
    32    15    17   ar
    33    11     6   ar
    34    17    12   ar
    35     5     1   ar
    36    26    22   ar
    37    29    23    1
    38    20    21    1
@<TRIPOS>MOLECULE
*****
 34 38 0 0 0
SMALL
GASTEIGER

@<TRIPOS>ATOM
      1 C           3.8275   -1.2676   23.4070 C.ar    1  UNL1        0.1074
      2 C           2.8207   -0.1669   23.2505 C.ar    1  UNL1        0.0588
      3 S           2.4471   -0.0833   21.8002 S.2     1  UNL1       -0.0508
      4 C           3.2231   -1.1324   21.0604 C.ar    1  UNL1        0.1646
      5 N           4.0762   -1.8643   22.0535 N.ar    1  UNL1       -0.2224
      6 C           6.3377   -2.9971   25.9483 C.ar    1  UNL1        0.2416
      7 N           5.6927   -2.5684   24.6637 N.ar    1  UNL1       -0.2089
      8 C           4.4725   -1.6964   24.6916 C.ar    1  UNL1        0.1026
      9 C           3.8972   -1.2532   26.0042 C.ar    1  UNL1        0.0224
     10 C           4.5422   -1.6820   27.2888 C.ar    1  UNL1        0.0239
     11 C           5.7624   -2.5539   27.2608 C.ar    1  UNL1        0.1189
     12 N           6.4074   -2.9827   28.5454 N.ar    1  UNL1       -0.2826
     13 C           7.1578   -2.0958   29.4942 C.ar    1  UNL1        0.1826
     14 N           7.6293   -2.9386   30.6419 N.ar    1  UNL1       -0.2280
     15 C           7.1703   -4.3464   30.4024 C.ar    1  UNL1        0.0786
     16 C           7.4223   -5.5209   31.3009 C.3     1  UNL1        0.0538
     17 C           6.4152   -4.3737   29.1068 C.ar    1  UNL1        0.0963
     18 C           7.4316   -5.3251   25.5830 C.3     1  UNL1        0.2543
     19 O           7.5579   -3.8691   25.9204 O.3     1  UNL1       -0.4551
     20 N           3.1574   -1.4021   19.5863 N.pl3   1  UNL1       -0.2786
     21 H           2.2930   -1.6047   19.1609 H       1  UNL1        0.1555
     22 C           4.4089   -1.3632   18.7602 C.ar    1  UNL1        0.1278
     23 C           5.1382   -0.1278   18.3224 C.ar    1  UNL1        0.0244
     24 C           6.3309   -0.5539   17.5186 C.ar    1  UNL1        0.0773
     25 N           6.3386   -2.0527   17.4596 N.ar    1  UNL1       -0.1726
     26 N           5.1507   -2.5530   18.2270 N.ar    1  UNL1       -0.2295
     27 C           7.0602    0.6815   17.0807 C.3     1  UNL1        0.0477
     28 C           6.3184    1.8712   17.6139 C.3     1  UNL1        0.0112
     29 C           5.1305    1.3710   18.3813 C.3     1  UNL1        0.0308
     30 C           4.7714   -3.9904   18.4262 C.3     1  UNL1        0.2315
     31 C           4.2967   -4.4617   19.7689 C.3     1  UNL1        0.4200
     32 F           3.8222   -4.9331   21.1115 F       1  UNL1       -0.1679
     33 F           2.9441   -4.7513   19.1891 F       1  UNL1       -0.1679
     34 F           5.6495   -4.1722   20.3487 F       1  UNL1       -0.1679
@<TRIPOS>BOND
     1    18    19    1
     2    19     6    1
     3     6     7   ar
     4     7     8   ar
     5     8     1    1
     6     1     2   ar
     7     2     3   ar
     8     3     4   ar
     9     4    20    1
    10    20    22    1
    11    22    23   ar
    12    23    24   ar
    13    24    25   ar
    14    25    26   ar
    15    26    30    1
    16    30    31    1
    17    31    32    1
    18    31    33    1
    19    31    34    1
    20    24    27    1
    21    27    28    1
    22    28    29    1
    23     4     5   ar
    24     8     9   ar
    25     9    10   ar
    26    10    11   ar
    27    11    12    1
    28    12    13   ar
    29    13    14   ar
    30    14    15   ar
    31    15    16    1
    32    15    17   ar
    33    11     6   ar
    34    17    12   ar
    35     5     1   ar
    36    26    22   ar
    37    29    23    1
    38    20    21    1
@<TRIPOS>MOLECULE
*****
 34 38 0 0 0
SMALL
GASTEIGER

@<TRIPOS>ATOM
      1 C           2.7707   -0.0535   22.8986 C.ar    1  UNL1        0.1074
      2 C           2.2926    1.1398   22.1257 C.ar    1  UNL1        0.0588
      3 S           2.3419    0.7969   20.6662 S.2     1  UNL1       -0.0508
      4 C           2.8505   -0.6083   20.5372 C.ar    1  UNL1        0.1646
      5 N           3.1155   -1.1338   21.9168 N.ar    1  UNL1       -0.2224
      6 C           2.2924    0.7512   26.7552 C.ar    1  UNL1        0.2416
      7 N           2.1790    0.8473   25.2626 N.ar    1  UNL1       -0.2089
      8 C           2.8841   -0.1495   24.3912 C.ar    1  UNL1        0.1026
      9 C           3.7025   -1.2424   25.0124 C.ar    1  UNL1        0.0224
     10 C           3.8159   -1.3384   26.5050 C.ar    1  UNL1        0.0239
     11 C           3.1109   -0.3416   27.3765 C.ar    1  UNL1        0.1189
     12 N           3.2243   -0.4377   28.8691 N.ar    1  UNL1       -0.2826
     13 C           2.0864   -0.6159   29.8300 C.ar    1  UNL1        0.1826
     14 N           2.6544   -0.6607   31.2176 N.ar    1  UNL1       -0.2280
     15 C           4.1432   -0.5102   31.1142 C.ar    1  UNL1        0.0786
     16 C           5.1101   -0.4994   32.2610 C.3     1  UNL1        0.0538
     17 C           4.4954   -0.3723   29.6628 C.ar    1  UNL1        0.0963
     18 C           2.2956    2.9963   28.0627 C.3     1  UNL1        0.2543
     19 O           1.5874    1.7480   27.6266 O.3     1  UNL1       -0.4551
     20 N           3.0577   -1.3566   19.2537 N.pl3   1  UNL1       -0.2786
     21 H           2.3231   -1.8875   18.8693 H       1  UNL1        0.1555
     22 C           4.3842   -1.2960   18.5561 C.ar    1  UNL1        0.1278
     23 C           5.0448   -0.0590   18.0237 C.ar    1  UNL1        0.0244
     24 C           6.3519   -0.4603   17.4069 C.ar    1  UNL1        0.0773
     25 N           6.4992   -1.9454   17.5580 N.ar    1  UNL1       -0.1726
     26 N           5.2831   -2.4620   18.2682 N.ar    1  UNL1       -0.2295
     27 C           7.0125    0.7767   16.8745 C.3     1  UNL1        0.0477
     28 C           6.1136    1.9425   17.1624 C.3     1  UNL1        0.0112
     29 C           4.8975    1.4261   17.8726 C.3     1  UNL1        0.0308
     30 C           5.0133   -3.8930   18.6275 C.3     1  UNL1        0.2315
     31 C           4.5397   -4.2435   20.0071 C.3     1  UNL1        0.4200
     32 F           4.0662   -4.5940   21.3865 F       1  UNL1       -0.1679
     33 F           3.3093   -4.8734   19.4246 F       1  UNL1       -0.1679
     34 F           5.7702   -3.6136   20.5894 F       1  UNL1       -0.1679
@<TRIPOS>BOND
     1    18    19    1
     2    19     6    1
     3     6     7   ar
     4     7     8   ar
     5     8     1    1
     6     1     2   ar
     7     2     3   ar
     8     3     4   ar
     9     4    20    1
    10    20    22    1
    11    22    23   ar
    12    23    24   ar
    13    24    25   ar
    14    25    26   ar
    15    26    30    1
    16    30    31    1
    17    31    32    1
    18    31    33    1
    19    31    34    1
    20    24    27    1
    21    27    28    1
    22    28    29    1
    23     4     5   ar
    24     8     9   ar
    25     9    10   ar
    26    10    11   ar
    27    11    12    1
    28    12    13   ar
    29    13    14   ar
    30    14    15   ar
    31    15    16    1
    32    15    17   ar
    33    11     6   ar
    34    17    12   ar
    35     5     1   ar
    36    26    22   ar
    37    29    23    1
    38    20    21    1
@<TRIPOS>MOLECULE
*****
 34 38 0 0 0
SMALL
GASTEIGER

@<TRIPOS>ATOM
      1 C           1.1304    1.0736   22.1564 C.ar    1  UNL1        0.1074
      2 C           0.7319    0.5245   20.8187 C.ar    1  UNL1        0.0588
      3 S           1.9288   -0.1537   20.2209 S.2     1  UNL1       -0.0508
      4 C           3.0670   -0.0236   21.1891 C.ar    1  UNL1        0.1646
      5 N           2.5736    0.7349   22.3853 N.ar    1  UNL1       -0.2224
      6 C          -1.5143    3.6951   23.5290 C.ar    1  UNL1        0.2416
      7 N          -0.6256    2.9398   22.5858 N.ar    1  UNL1       -0.2089
      8 C           0.2417    1.8289   23.0997 C.ar    1  UNL1        0.1026
      9 C           0.2201    1.4735   24.5568 C.ar    1  UNL1        0.0224
     10 C          -0.6686    2.2288   25.5001 C.ar    1  UNL1        0.0239
     11 C          -1.5358    3.3396   24.9862 C.ar    1  UNL1        0.1189
     12 N          -2.4245    4.0949   25.9294 N.ar    1  UNL1       -0.2826
     13 C          -3.8290    3.7250   26.3043 C.ar    1  UNL1        0.1826
     14 N          -4.3372    4.7542   27.2699 N.ar    1  UNL1       -0.2280
     15 C          -3.2469    5.7601   27.4918 C.ar    1  UNL1        0.0786
     16 C          -3.3249    6.9625   28.3853 C.3     1  UNL1        0.0538
     17 C          -2.0648    5.3526   26.6633 C.ar    1  UNL1        0.0963
     18 C          -3.7925    4.5217   22.5930 C.3     1  UNL1        0.2543
     19 O          -2.3815    4.8059   23.0151 O.3     1  UNL1       -0.4551
     20 N           4.4551   -0.5582   20.9952 N.pl3   1  UNL1       -0.2786
     21 H           4.9987   -0.8112   21.7760 H       1  UNL1        0.1555
     22 C           5.0148   -0.7073   19.6115 C.ar    1  UNL1        0.1278
     23 C           5.3994    0.4125   18.6906 C.ar    1  UNL1        0.0244
     24 C           5.9105   -0.1905   17.4158 C.ar    1  UNL1        0.0773
     25 N           5.8419   -1.6830   17.5488 N.ar    1  UNL1       -0.1726
     26 N           5.2883   -2.0025   18.9059 N.ar    1  UNL1       -0.2295
     27 C           6.2951    0.9293   16.4948 C.3     1  UNL1        0.0477
     28 C           6.0216    2.2243   17.2005 C.3     1  UNL1        0.0112
     29 C           5.4681    1.9050   18.5575 C.3     1  UNL1        0.0308
     30 C           5.0500   -3.3758   19.4600 C.3     1  UNL1        0.2315
     31 C           3.7917   -4.1159   19.1150 C.3     1  UNL1        0.4200
     32 F           2.5334   -4.8560   18.7700 F       1  UNL1       -0.1679
     33 F           2.9923   -3.1284   19.9123 F       1  UNL1       -0.1679
     34 F           4.5911   -5.1034   18.3177 F       1  UNL1       -0.1679
@<TRIPOS>BOND
     1    18    19    1
     2    19     6    1
     3     6     7   ar
     4     7     8   ar
     5     8     1    1
     6     1     2   ar
     7     2     3   ar
     8     3     4   ar
     9     4    20    1
    10    20    22    1
    11    22    23   ar
    12    23    24   ar
    13    24    25   ar
    14    25    26   ar
    15    26    30    1
    16    30    31    1
    17    31    32    1
    18    31    33    1
    19    31    34    1
    20    24    27    1
    21    27    28    1
    22    28    29    1
    23     4     5   ar
    24     8     9   ar
    25     9    10   ar
    26    10    11   ar
    27    11    12    1
    28    12    13   ar
    29    13    14   ar
    30    14    15   ar
    31    15    16    1
    32    15    17   ar
    33    11     6   ar
    34    17    12   ar
    35     5     1   ar
    36    26    22   ar
    37    29    23    1
    38    20    21    1
@<TRIPOS>MOLECULE
*****
 34 38 0 0 0
SMALL
GASTEIGER

@<TRIPOS>ATOM
      1 C           4.8660   -3.6189   20.9618 C.ar    1  UNL1        0.1074
      2 C           4.0091   -4.6574   20.3007 C.ar    1  UNL1        0.0588
      3 S           3.5591   -4.1130   18.9774 S.2     1  UNL1       -0.0508
      4 C           4.1379   -2.7381   18.8207 C.ar    1  UNL1        0.1646
      5 N           4.9456   -2.4327   20.0471 N.ar    1  UNL1       -0.2224
      6 C           7.3252   -4.8304   23.8314 C.ar    1  UNL1        0.2416
      7 N           6.6640   -4.7048   22.4908 N.ar    1  UNL1       -0.2089
      8 C           5.5272   -3.7445   22.3023 C.ar    1  UNL1        0.1026
      9 C           5.0516   -2.9098   23.4544 C.ar    1  UNL1        0.0224
     10 C           5.7128   -3.0355   24.7950 C.ar    1  UNL1        0.0239
     11 C           6.8496   -3.9957   24.9835 C.ar    1  UNL1        0.1189
     12 N           7.5109   -4.1214   26.3240 N.ar    1  UNL1       -0.2826
     13 C           8.6755   -3.3117   26.8119 C.ar    1  UNL1        0.1826
     14 N           9.0079   -3.7687   28.2014 N.ar    1  UNL1       -0.2280
     15 C           8.0488   -4.8607   28.5722 C.ar    1  UNL1        0.0786
     16 C           8.0199   -5.6043   29.8746 C.3     1  UNL1        0.0538
     17 C           7.1236   -5.0787   27.4119 C.ar    1  UNL1        0.0963
     18 C           8.1852   -7.2159   24.3968 C.3     1  UNL1        0.2543
     19 O           8.4621   -5.7907   24.0199 O.3     1  UNL1       -0.4551
     20 N           3.9432   -1.8283   17.6441 N.pl3   1  UNL1       -0.2786
     21 H           3.7745   -2.2074   16.7513 H       1  UNL1        0.1555
     22 C           4.0056   -0.3409   17.8278 C.ar    1  UNL1        0.1278
     23 C           2.8514    0.5547   18.1676 C.ar    1  UNL1        0.0244
     24 C           3.3656    1.9612   18.2538 C.ar    1  UNL1        0.0773
     25 N           4.8377    1.9349   17.9672 N.ar    1  UNL1       -0.1726
     26 N           5.2334    0.5121   17.7039 N.ar    1  UNL1       -0.2295
     27 C           2.2113    2.8568   18.5936 C.3     1  UNL1        0.0477
     28 C           0.9837    2.0039   18.7175 C.3     1  UNL1        0.0112
     29 C           1.3792    0.5811   18.4542 C.3     1  UNL1        0.0308
     30 C           6.6141    0.0274   17.3746 C.3     1  UNL1        0.2315
     31 C           7.4465   -0.6391   18.4295 C.3     1  UNL1        0.4200
     32 F           8.2789   -1.3058   19.4843 F       1  UNL1       -0.1679
     33 F           7.6823    0.6900   19.0833 F       1  UNL1       -0.1679
     34 F           7.2107   -1.9684   17.7756 F       1  UNL1       -0.1679
@<TRIPOS>BOND
     1    18    19    1
     2    19     6    1
     3     6     7   ar
     4     7     8   ar
     5     8     1    1
     6     1     2   ar
     7     2     3   ar
     8     3     4   ar
     9     4    20    1
    10    20    22    1
    11    22    23   ar
    12    23    24   ar
    13    24    25   ar
    14    25    26   ar
    15    26    30    1
    16    30    31    1
    17    31    32    1
    18    31    33    1
    19    31    34    1
    20    24    27    1
    21    27    28    1
    22    28    29    1
    23     4     5   ar
    24     8     9   ar
    25     9    10   ar
    26    10    11   ar
    27    11    12    1
    28    12    13   ar
    29    13    14   ar
    30    14    15   ar
    31    15    16    1
    32    15    17   ar
    33    11     6   ar
    34    17    12   ar
    35     5     1   ar
    36    26    22   ar
    37    29    23    1
    38    20    21    1
