@<TRIPOS>MOLECULE
*****
 31 33 0 0 0
SMALL
GASTEIGER

@<TRIPOS>ATOM
      1 C         -11.4389  -18.0483   24.1297 C.3     1  UNL1        0.1152
      2 N          -9.9918  -18.2809   23.8108 N.am    1  UNL1       -0.2743
      3 C          -9.4790  -19.6789   23.6294 C.2     1  UNL1        0.2264
      4 O         -10.4135  -20.8442   23.7670 O.2     1  UNL1       -0.2748
      5 C          -8.0320  -19.9115   23.3105 C.3     1  UNL1        0.0948
      6 C          -7.5411  -19.7618   21.9011 C.3     1  UNL1        0.0949
      7 C          -6.1644  -19.2269   21.6391 C.2     1  UNL1        0.2266
      8 O          -5.7216  -17.9474   22.2846 O.2     1  UNL1       -0.2748
      9 N          -5.2306  -19.9715   20.7316 N.am    1  UNL1       -0.2827
     10 H          -5.5213  -20.8113   20.3080 H       1  UNL1        0.1549
     11 C          -3.8539  -19.4366   20.4697 C.ar    1  UNL1        0.0697
     12 C          -3.5929  -18.6018   19.2511 C.ar    1  UNL1        0.0178
     13 C          -2.2163  -18.0669   18.9892 C.ar    1  UNL1        0.0220
     14 C          -1.1005  -18.3669   19.9458 C.ar    1  UNL1        0.0990
     15 N          -1.3615  -19.2017   21.1644 N.ar    1  UNL1       -0.2410
     16 C          -2.7381  -19.7366   21.4263 C.ar    1  UNL1        0.1135
     17 C          -9.0573  -17.1156   23.6732 C.3     1  UNL1        0.1138
     18 C          -8.3434  -16.5804   24.8788 C.ar    1  UNL1       -0.0029
     19 C          -7.0809  -15.7876   24.7124 C.ar    1  UNL1       -0.0026
     20 C          -6.3669  -15.2524   25.9181 C.ar    1  UNL1       -0.0003
     21 C          -6.9154  -15.5099   27.2903 C.ar    1  UNL1       -0.0000
     22 C          -8.1779  -16.3026   27.4567 C.ar    1  UNL1       -0.0003
     23 C          -8.8919  -16.8378   26.2510 C.ar    1  UNL1       -0.0026
     24 C          -8.8369  -16.4856   22.3298 C.3     1  UNL1        0.0968
     25 N          -9.8798  -16.6169   21.2597 N.3     1  UNL1       -0.2689
     26 C         -10.2523  -17.8802   20.5418 C.3     1  UNL1        0.0748
     27 C         -11.3360  -17.5520   19.5580 C.3     1  UNL1        0.0480
     28 C         -11.6332  -16.0858   19.6677 C.3     1  UNL1        0.1278
     29 O         -12.6515  -15.3303   18.8665 O.3     1  UNL1       -0.3830
     30 C         -10.7332  -15.5079   20.7194 C.3     1  UNL1        0.1017
     31 H         -13.0981  -15.9377   18.2561 H       1  UNL1        0.2104
@<TRIPOS>BOND
     1     1     2    1
     2     2     3   am
     3     3     4    2
     4     3     5    1
     5     5     6    1
     6     6     7    1
     7     7     8    2
     8     7     9   am
     9     9    11    1
    10    11    12   ar
    11    12    13   ar
    12    13    14   ar
    13    14    15   ar
    14    15    16   ar
    15     2    17    1
    16    17    24    1
    17    24    25    1
    18    25    26    1
    19    26    27    1
    20    27    28    1
    21    28    29    1
    22    28    30    1
    23    17    18    1
    24    18    19   ar
    25    19    20   ar
    26    20    21   ar
    27    21    22   ar
    28    22    23   ar
    29    16    11   ar
    30    30    25    1
    31    23    18   ar
    32     9    10    1
    33    29    31    1
@<TRIPOS>MOLECULE
*****
 31 33 0 0 0
SMALL
GASTEIGER

@<TRIPOS>ATOM
      1 C         -10.7224  -18.1665   19.5175 C.3     1  UNL1        0.1152
      2 N          -9.8736  -18.2580   20.7508 N.am    1  UNL1       -0.2743
      3 C          -8.7288  -19.2259   20.8034 C.2     1  UNL1        0.2264
      4 O          -8.4329  -20.1022   19.6226 O.2     1  UNL1       -0.2748
      5 C          -7.8801  -19.3174   22.0367 C.3     1  UNL1        0.0948
      6 C          -6.5487  -20.0060   21.9815 C.3     1  UNL1        0.0949
      7 C          -5.3691  -19.3102   21.3694 C.2     1  UNL1        0.2266
      8 O          -5.5047  -18.6366   20.0361 O.2     1  UNL1       -0.2748
      9 N          -4.0542  -19.2880   22.0907 N.am    1  UNL1       -0.2827
     10 H          -3.9652  -19.7301   22.9659 H       1  UNL1        0.1549
     11 C          -2.8746  -18.5922   21.4786 C.ar    1  UNL1        0.0697
     12 C          -2.6015  -17.1533   21.8027 C.ar    1  UNL1        0.0178
     13 C          -1.4220  -16.4576   21.1906 C.ar    1  UNL1        0.0220
     14 C          -0.5156  -17.2007   20.2545 C.ar    1  UNL1        0.0990
     15 N          -0.7888  -18.6395   19.9305 N.ar    1  UNL1       -0.2410
     16 C          -1.9682  -19.3353   20.5426 C.ar    1  UNL1        0.1135
     17 C         -10.1696  -17.3816   21.9317 C.3     1  UNL1        0.1138
     18 C         -11.2197  -17.7879   22.9228 C.ar    1  UNL1       -0.0029
     19 C         -10.8481  -18.6329   24.1051 C.ar    1  UNL1       -0.0026
     20 C         -11.8982  -19.0393   25.0962 C.ar    1  UNL1       -0.0003
     21 C         -13.3198  -18.6006   24.9049 C.ar    1  UNL1       -0.0000
     22 C         -13.6914  -17.7556   23.7226 C.ar    1  UNL1       -0.0003
     23 C         -12.6412  -17.3493   22.7315 C.ar    1  UNL1       -0.0026
     24 C          -9.4155  -16.0989   22.1214 C.3     1  UNL1        0.0968
     25 N          -8.5418  -15.9138   23.3266 N.3     1  UNL1       -0.2689
     26 C          -7.0577  -16.1252   23.3805 C.3     1  UNL1        0.0748
     27 C          -6.5975  -15.8268   24.7767 C.3     1  UNL1        0.0480
     28 C          -7.7970  -15.4310   25.5856 C.3     1  UNL1        0.1278
     29 O          -7.7953  -15.0486   27.0359 O.3     1  UNL1       -0.3830
     30 C          -8.9987  -15.4848   24.6893 C.3     1  UNL1        0.1017
     31 H          -6.8901  -15.0951   27.3815 H       1  UNL1        0.2104
@<TRIPOS>BOND
     1     1     2    1
     2     2     3   am
     3     3     4    2
     4     3     5    1
     5     5     6    1
     6     6     7    1
     7     7     8    2
     8     7     9   am
     9     9    11    1
    10    11    12   ar
    11    12    13   ar
    12    13    14   ar
    13    14    15   ar
    14    15    16   ar
    15     2    17    1
    16    17    24    1
    17    24    25    1
    18    25    26    1
    19    26    27    1
    20    27    28    1
    21    28    29    1
    22    28    30    1
    23    17    18    1
    24    18    19   ar
    25    19    20   ar
    26    20    21   ar
    27    21    22   ar
    28    22    23   ar
    29    16    11   ar
    30    30    25    1
    31    23    18   ar
    32     9    10    1
    33    29    31    1
@<TRIPOS>MOLECULE
*****
 31 33 0 0 0
SMALL
GASTEIGER

@<TRIPOS>ATOM
      1 C          -9.4429  -15.6275   21.6934 C.3     1  UNL1        0.1152
      2 N          -8.6960  -16.3898   22.7474 N.am    1  UNL1       -0.2743
      3 C          -7.8212  -15.6597   23.7230 C.2     1  UNL1        0.2264
      4 O          -7.6933  -14.1672   23.6445 O.2     1  UNL1       -0.2748
      5 C          -7.0744  -16.4221   24.7770 C.3     1  UNL1        0.0948
      6 C          -5.6151  -16.1574   25.0017 C.3     1  UNL1        0.0949
      7 C          -4.6461  -16.2834   23.8636 C.2     1  UNL1        0.2266
      8 O          -4.4533  -15.1396   22.9125 O.2     1  UNL1       -0.2748
      9 N          -3.8698  -17.5532   23.6767 N.am    1  UNL1       -0.2827
     10 H          -3.9963  -18.3039   24.3009 H       1  UNL1        0.1549
     11 C          -2.9007  -17.6793   22.5386 C.ar    1  UNL1        0.0697
     12 C          -2.2446  -16.4546   21.9731 C.ar    1  UNL1        0.0178
     13 C          -1.2756  -16.5807   20.8352 C.ar    1  UNL1        0.0220
     14 C          -0.9627  -17.9314   20.2627 C.ar    1  UNL1        0.0990
     15 N          -1.6187  -19.1560   20.8282 N.ar    1  UNL1       -0.2410
     16 C          -2.5878  -19.0299   21.9662 C.ar    1  UNL1        0.1135
     17 C          -8.8239  -17.8823   22.8258 C.3     1  UNL1        0.1138
     18 C          -8.0539  -18.7520   21.8768 C.ar    1  UNL1       -0.0029
     19 C          -6.7064  -19.2811   22.2697 C.ar    1  UNL1       -0.0026
     20 C          -5.9364  -20.1508   21.3206 C.ar    1  UNL1       -0.0003
     21 C          -6.5138  -20.4914   19.9787 C.ar    1  UNL1       -0.0000
     22 C          -7.8613  -19.9622   19.5859 C.ar    1  UNL1       -0.0003
     23 C          -8.6314  -19.0925   20.5350 C.ar    1  UNL1       -0.0026
     24 C          -9.7219  -18.5051   23.8534 C.3     1  UNL1        0.0968
     25 N         -11.2076  -18.3192   23.7626 N.3     1  UNL1       -0.2689
     26 C         -11.9530  -17.7293   22.6022 C.3     1  UNL1        0.0748
     27 C         -13.4148  -17.7361   22.9386 C.3     1  UNL1        0.0480
     28 C         -13.5728  -18.3302   24.3069 C.3     1  UNL1        0.1278
     29 O         -14.8676  -18.5290   25.0375 O.3     1  UNL1       -0.3830
     30 C         -12.2087  -18.6906   24.8161 C.3     1  UNL1        0.1017
     31 H         -15.6012  -18.2122   24.4876 H       1  UNL1        0.2104
@<TRIPOS>BOND
     1     1     2    1
     2     2     3   am
     3     3     4    2
     4     3     5    1
     5     5     6    1
     6     6     7    1
     7     7     8    2
     8     7     9   am
     9     9    11    1
    10    11    12   ar
    11    12    13   ar
    12    13    14   ar
    13    14    15   ar
    14    15    16   ar
    15     2    17    1
    16    17    24    1
    17    24    25    1
    18    25    26    1
    19    26    27    1
    20    27    28    1
    21    28    29    1
    22    28    30    1
    23    17    18    1
    24    18    19   ar
    25    19    20   ar
    26    20    21   ar
    27    21    22   ar
    28    22    23   ar
    29    16    11   ar
    30    30    25    1
    31    23    18   ar
    32     9    10    1
    33    29    31    1
@<TRIPOS>MOLECULE
*****
 31 33 0 0 0
SMALL
GASTEIGER

@<TRIPOS>ATOM
      1 C          -8.7011  -15.2795   25.8593 C.3     1  UNL1        0.1152
      2 N          -7.8411  -15.7799   24.7368 N.am    1  UNL1       -0.2743
      3 C          -6.3600  -15.5438   24.7640 C.2     1  UNL1        0.2264
      4 O          -5.7390  -14.8072   25.9136 O.2     1  UNL1       -0.2748
      5 C          -5.5001  -16.0442   23.6415 C.3     1  UNL1        0.0948
      6 C          -4.5658  -17.1955   23.8684 C.3     1  UNL1        0.0949
      7 C          -3.6635  -17.6583   22.7630 C.2     1  UNL1        0.2266
      8 O          -3.4047  -19.1232   22.5699 O.2     1  UNL1       -0.2748
      9 N          -3.0201  -16.6564   21.8509 N.am    1  UNL1       -0.2827
     10 H          -3.1899  -15.6950   21.9777 H       1  UNL1        0.1549
     11 C          -2.1178  -17.1192   20.7455 C.ar    1  UNL1        0.0697
     12 C          -0.6414  -17.2377   20.9825 C.ar    1  UNL1        0.0178
     13 C           0.2608  -17.7005   19.8772 C.ar    1  UNL1        0.0220
     14 C          -0.3134  -18.0448   18.5349 C.ar    1  UNL1        0.0990
     15 N          -1.7898  -17.9263   18.2979 N.ar    1  UNL1       -0.2410
     16 C          -2.6920  -17.4635   19.4032 C.ar    1  UNL1        0.1135
     17 C          -8.4622  -16.5165   23.5871 C.3     1  UNL1        0.1138
     18 C          -9.0507  -17.8796   23.7999 C.ar    1  UNL1       -0.0029
     19 C         -10.3266  -18.0333   24.5736 C.ar    1  UNL1       -0.0026
     20 C         -10.9151  -19.3965   24.7863 C.ar    1  UNL1       -0.0003
     21 C         -10.2278  -20.6061   24.2254 C.ar    1  UNL1       -0.0000
     22 C          -8.9520  -20.4524   23.4517 C.ar    1  UNL1       -0.0003
     23 C          -8.3634  -19.0891   23.2389 C.ar    1  UNL1       -0.0026
     24 C          -8.4947  -15.8898   22.2246 C.3     1  UNL1        0.0968
     25 N          -9.6156  -16.2071   21.2797 N.3     1  UNL1       -0.2689
     26 C         -10.0735  -17.5797   20.8842 C.3     1  UNL1        0.0748
     27 C         -11.2163  -17.4284   19.9244 C.3     1  UNL1        0.0480
     28 C         -11.4648  -15.9624   19.7268 C.3     1  UNL1        0.1278
     29 O         -12.5176  -15.3574   18.8463 O.3     1  UNL1       -0.3830
     30 C         -10.4755  -15.2076   20.5645 C.3     1  UNL1        0.1017
     31 H         -13.0237  -16.0638   18.4153 H       1  UNL1        0.2104
@<TRIPOS>BOND
     1     1     2    1
     2     2     3   am
     3     3     4    2
     4     3     5    1
     5     5     6    1
     6     6     7    1
     7     7     8    2
     8     7     9   am
     9     9    11    1
    10    11    12   ar
    11    12    13   ar
    12    13    14   ar
    13    14    15   ar
    14    15    16   ar
    15     2    17    1
    16    17    24    1
    17    24    25    1
    18    25    26    1
    19    26    27    1
    20    27    28    1
    21    28    29    1
    22    28    30    1
    23    17    18    1
    24    18    19   ar
    25    19    20   ar
    26    20    21   ar
    27    21    22   ar
    28    22    23   ar
    29    16    11   ar
    30    30    25    1
    31    23    18   ar
    32     9    10    1
    33    29    31    1
