@<TRIPOS>MOLECULE
*****
 24 26 0 0 0
SMALL
GASTEIGER

@<TRIPOS>ATOM
      1 C          -4.4729  -19.8752   20.9175 C.3     1  UNL1        0.0838
      2 C          -5.3763  -20.0352   19.7308 C.3     1  UNL1        0.0437
      3 C          -6.7808  -19.7541   20.1762 C.ar    1  UNL1       -0.0247
      4 C          -8.0874  -19.7589   19.4395 C.ar    1  UNL1       -0.0045
      5 C          -9.3585  -19.4299   20.1647 C.ar    1  UNL1       -0.0003
      6 C          -9.3231  -19.0962   21.6267 C.ar    1  UNL1        0.0012
      7 C          -8.0165  -19.0914   22.3634 C.ar    1  UNL1       -0.0045
      8 C          -6.7454  -19.4203   21.6382 C.ar    1  UNL1       -0.0247
      9 C          -5.3190  -19.4952   22.0963 C.3     1  UNL1        0.0437
     10 C         -10.5943  -18.7672   22.3519 C.ar    1  UNL1        0.0193
     11 C         -11.7338  -18.1276   21.6156 C.ar    1  UNL1        0.0055
     12 C         -13.0050  -17.7986   22.3408 C.ar    1  UNL1        0.0497
     13 C         -13.1366  -18.1093   23.8024 C.ar    1  UNL1        0.2223
     14 F         -14.4077  -17.7804   24.5276 F       1  UNL1       -0.1832
     15 N         -11.9970  -18.7490   24.5387 N.ar    1  UNL1       -0.2165
     16 C         -10.7258  -19.0779   23.8135 C.ar    1  UNL1        0.1012
     17 N          -2.9846  -20.0624   20.9241 N.3     1  UNL1       -0.1841
     18 H          -2.7481  -20.5101   21.8096 H       1  UNL1        0.1484
     19 S          -2.0788  -18.8751   20.7836 S.O2    1  UNL1        0.0390
     20 O          -1.7144  -18.9814   22.2348 O.2     1  UNL1       -0.1576
     21 O          -2.4431  -18.7688   19.3325 O.2     1  UNL1       -0.1576
     22 C           0.1179  -17.8142   19.8896 C.3     1  UNL1        0.0270
     23 C          -1.1728  -17.6878   20.6432 C.3     1  UNL1        0.1457
     24 C          -1.5577  -16.3741   21.2564 C.3     1  UNL1        0.0270
@<TRIPOS>BOND
     1    22    23    1
     2    23    24    1
     3    23    19    1
     4    19    20    2
     5    19    21    2
     6    19    17    1
     7     1    17    1
     8     1     2    1
     9     2     3    1
    10     3     4   ar
    11     4     5   ar
    12     5     6   ar
    13     6    10    1
    14    10    11   ar
    15    11    12   ar
    16    12    13   ar
    17    13    14    1
    18    13    15   ar
    19    15    16   ar
    20     6     7   ar
    21     7     8   ar
    22     8     9    1
    23     9     1    1
    24     8     3   ar
    25    16    10   ar
    26    17    18    1
@<TRIPOS>MOLECULE
*****
 24 26 0 0 0
SMALL
GASTEIGER

@<TRIPOS>ATOM
      1 C          -3.8625  -17.2648   23.1001 C.3     1  UNL1        0.0838
      2 C          -4.3684  -16.0237   23.7737 C.3     1  UNL1        0.0437
      3 C          -5.8633  -16.1168   23.8548 C.ar    1  UNL1       -0.0247
      4 C          -6.8978  -15.1868   24.4158 C.ar    1  UNL1       -0.0045
      5 C          -8.3505  -15.5554   24.3533 C.ar    1  UNL1       -0.0003
      6 C          -8.7685  -16.8540   23.7298 C.ar    1  UNL1        0.0012
      7 C          -7.7340  -17.7840   23.1688 C.ar    1  UNL1       -0.0045
      8 C          -6.2814  -17.4154   23.2313 C.ar    1  UNL1       -0.0247
      9 C          -5.0448  -18.1249   22.7648 C.3     1  UNL1        0.0437
     10 C         -10.2213  -17.2226   23.6673 C.ar    1  UNL1        0.0193
     11 C         -11.1496  -16.4633   22.7664 C.ar    1  UNL1        0.0055
     12 C         -12.6023  -16.8319   22.7040 C.ar    1  UNL1        0.0497
     13 C         -13.1266  -17.9599   23.5424 C.ar    1  UNL1        0.2223
     14 F         -14.5792  -18.3285   23.4799 F       1  UNL1       -0.1832
     15 N         -12.1982  -18.7192   24.4433 N.ar    1  UNL1       -0.2165
     16 C         -10.7455  -18.3506   24.5057 C.ar    1  UNL1        0.1012
     17 N          -2.4265  -17.5890   22.8123 N.3     1  UNL1       -0.1841
     18 H          -1.8667  -16.8521   23.2412 H       1  UNL1        0.1484
     19 S          -1.9569  -17.7194   21.3937 S.O2    1  UNL1        0.0390
     20 O          -2.3700  -16.3025   21.1266 O.2     1  UNL1       -0.1576
     21 O          -1.5438  -19.1364   21.6608 O.2     1  UNL1       -0.1576
     22 C          -0.0194  -17.9206   19.6744 C.3     1  UNL1        0.0270
     23 C          -1.4872  -17.8499   19.9750 C.3     1  UNL1        0.1457
     24 C          -2.4855  -17.9097   18.8571 C.3     1  UNL1        0.0270
@<TRIPOS>BOND
     1    22    23    1
     2    23    24    1
     3    23    19    1
     4    19    20    2
     5    19    21    2
     6    19    17    1
     7     1    17    1
     8     1     2    1
     9     2     3    1
    10     3     4   ar
    11     4     5   ar
    12     5     6   ar
    13     6    10    1
    14    10    11   ar
    15    11    12   ar
    16    12    13   ar
    17    13    14    1
    18    13    15   ar
    19    15    16   ar
    20     6     7   ar
    21     7     8   ar
    22     8     9    1
    23     9     1    1
    24     8     3   ar
    25    16    10   ar
    26    17    18    1
@<TRIPOS>MOLECULE
*****
 24 26 0 0 0
SMALL
GASTEIGER

@<TRIPOS>ATOM
      1 C          -9.0162  -18.4257   23.6047 C.3     1  UNL1        0.0838
      2 C          -8.8692  -19.6686   22.7779 C.3     1  UNL1        0.0437
      3 C          -7.5141  -19.6402   22.1352 C.ar    1  UNL1       -0.0247
      4 C          -6.8198  -20.5993   21.2143 C.ar    1  UNL1       -0.0045
      5 C          -5.4349  -20.2979   20.7231 C.ar    1  UNL1       -0.0003
      6 C          -4.7445  -19.0375   21.1527 C.ar    1  UNL1        0.0012
      7 C          -5.4388  -18.0784   22.0735 C.ar    1  UNL1       -0.0045
      8 C          -6.8236  -18.3798   22.5648 C.ar    1  UNL1       -0.0247
      9 C          -7.7520  -17.6292   23.4729 C.3     1  UNL1        0.0437
     10 C          -3.3596  -18.7361   20.6613 C.ar    1  UNL1        0.0193
     11 C          -3.1458  -18.2981   19.2428 C.ar    1  UNL1        0.0055
     12 C          -1.7609  -17.9967   18.7515 C.ar    1  UNL1        0.0497
     13 C          -0.5898  -18.1335   19.6788 C.ar    1  UNL1        0.2223
     14 F           0.7950  -17.8322   19.1875 F       1  UNL1       -0.1832
     15 N          -0.8037  -18.5716   21.0974 N.ar    1  UNL1       -0.2165
     16 C          -2.1885  -18.8729   21.5886 C.ar    1  UNL1        0.1012
     17 N         -10.2166  -18.0459   24.4200 N.3     1  UNL1       -0.1841
     18 H         -10.2819  -18.7223   25.1807 H       1  UNL1        0.1484
     19 S         -11.5707  -17.9848   23.7776 S.O2    1  UNL1        0.0390
     20 O         -12.0422  -19.0979   24.6655 O.2     1  UNL1       -0.1576
     21 O         -11.0992  -16.8716   22.8897 O.2     1  UNL1       -0.1576
     22 C         -14.1607  -18.0184   23.9801 C.3     1  UNL1        0.0270
     23 C         -12.9249  -17.9236   23.1352 C.3     1  UNL1        0.1457
     24 C         -13.0432  -17.7678   21.6481 C.3     1  UNL1        0.0270
@<TRIPOS>BOND
     1    22    23    1
     2    23    24    1
     3    23    19    1
     4    19    20    2
     5    19    21    2
     6    19    17    1
     7     1    17    1
     8     1     2    1
     9     2     3    1
    10     3     4   ar
    11     4     5   ar
    12     5     6   ar
    13     6    10    1
    14    10    11   ar
    15    11    12   ar
    16    12    13   ar
    17    13    14    1
    18    13    15   ar
    19    15    16   ar
    20     6     7   ar
    21     7     8   ar
    22     8     9    1
    23     9     1    1
    24     8     3   ar
    25    16    10   ar
    26    17    18    1
@<TRIPOS>MOLECULE
*****
 24 26 0 0 0
SMALL
GASTEIGER

@<TRIPOS>ATOM
      1 C          -4.7077  -19.3939   20.1840 C.3     1  UNL1        0.0838
      2 C          -4.9338  -20.4436   21.2313 C.3     1  UNL1        0.0437
      3 C          -6.3086  -20.2453   21.7973 C.ar    1  UNL1       -0.0247
      4 C          -7.0732  -20.9807   22.8577 C.ar    1  UNL1       -0.0045
      5 C          -8.4615  -20.5438   23.2206 C.ar    1  UNL1       -0.0003
      6 C          -9.0852  -19.3714   22.5230 C.ar    1  UNL1        0.0012
      7 C          -8.3206  -18.6360   21.4626 C.ar    1  UNL1       -0.0045
      8 C          -6.9323  -19.0729   21.0998 C.ar    1  UNL1       -0.0247
      9 C          -5.9429  -18.5468   20.1027 C.3     1  UNL1        0.0437
     10 C         -10.4736  -18.9345   22.8859 C.ar    1  UNL1        0.0193
     11 C         -10.9868  -19.1476   24.2792 C.ar    1  UNL1        0.0055
     12 C         -12.3752  -18.7107   24.6421 C.ar    1  UNL1        0.0497
     13 C         -13.2502  -18.0607   23.6117 C.ar    1  UNL1        0.2223
     14 F         -14.6385  -17.6237   23.9745 F       1  UNL1       -0.1832
     15 N         -12.7369  -17.8475   22.2184 N.ar    1  UNL1       -0.2165
     16 C         -11.3486  -18.2845   21.8555 C.ar    1  UNL1        0.1012
     17 N          -3.4647  -19.2216   19.3622 N.3     1  UNL1       -0.1841
     18 H          -3.0657  -20.1514   19.2333 H       1  UNL1        0.1484
     19 S          -2.3563  -18.3392   19.8549 S.O2    1  UNL1        0.0390
     20 O          -1.7335  -19.5114   20.5534 O.2     1  UNL1       -0.1576
     21 O          -2.9790  -17.1669   19.1563 O.2     1  UNL1       -0.1576
     22 C          -1.5520  -16.3168   21.2738 C.3     1  UNL1        0.0270
     23 C          -1.2478  -17.4568   20.3476 C.3     1  UNL1        0.1457
     24 C           0.1649  -17.7144   19.9140 C.3     1  UNL1        0.0270
@<TRIPOS>BOND
     1    22    23    1
     2    23    24    1
     3    23    19    1
     4    19    20    2
     5    19    21    2
     6    19    17    1
     7     1    17    1
     8     1     2    1
     9     2     3    1
    10     3     4   ar
    11     4     5   ar
    12     5     6   ar
    13     6    10    1
    14    10    11   ar
    15    11    12   ar
    16    12    13   ar
    17    13    14    1
    18    13    15   ar
    19    15    16   ar
    20     6     7   ar
    21     7     8   ar
    22     8     9    1
    23     9     1    1
    24     8     3   ar
    25    16    10   ar
    26    17    18    1
@<TRIPOS>MOLECULE
*****
 24 26 0 0 0
SMALL
GASTEIGER

@<TRIPOS>ATOM
      1 C          -9.2763  -19.0382   22.9791 C.3     1  UNL1        0.0838
      2 C          -8.7462  -17.8321   23.6963 C.3     1  UNL1        0.0437
      3 C          -7.3094  -17.6537   23.3041 C.ar    1  UNL1       -0.0247
      4 C          -6.2809  -16.6350   23.6968 C.ar    1  UNL1       -0.0045
      5 C          -4.8943  -16.7122   23.1298 C.ar    1  UNL1       -0.0003
      6 C          -4.5363  -17.8081   22.1702 C.ar    1  UNL1        0.0012
      7 C          -5.5649  -18.8268   21.7775 C.ar    1  UNL1       -0.0045
      8 C          -6.9515  -18.7496   22.3445 C.ar    1  UNL1       -0.0247
      9 C          -8.1670  -19.6052   22.1437 C.3     1  UNL1        0.0437
     10 C          -3.1497  -17.8853   21.6033 C.ar    1  UNL1        0.0193
     11 C          -2.3338  -16.6367   21.4444 C.ar    1  UNL1        0.0055
     12 C          -0.9472  -16.7138   20.8775 C.ar    1  UNL1        0.0497
     13 C          -0.3765  -18.0396   20.4694 C.ar    1  UNL1        0.2223
     14 F           1.0101  -18.1168   19.9025 F       1  UNL1       -0.1832
     15 N          -1.1924  -19.2883   20.6283 N.ar    1  UNL1       -0.2165
     16 C          -2.5790  -19.2111   21.1952 C.ar    1  UNL1        0.1012
     17 N         -10.6707  -19.5818   23.0798 N.3     1  UNL1       -0.1841
     18 H         -10.8294  -20.1422   22.2424 H       1  UNL1        0.1484
     19 S         -11.8346  -18.6433   23.1997 S.O2    1  UNL1        0.0390
     20 O         -11.8215  -18.4371   21.7141 O.2     1  UNL1       -0.1576
     21 O         -11.8477  -18.8496   24.6854 O.2     1  UNL1       -0.1576
     22 C         -14.1812  -18.0805   24.1626 C.3     1  UNL1        0.0270
     23 C         -12.9987  -17.7048   23.3197 C.3     1  UNL1        0.1457
     24 C         -12.9801  -16.3907   22.5967 C.3     1  UNL1        0.0270
@<TRIPOS>BOND
     1    22    23    1
     2    23    24    1
     3    23    19    1
     4    19    20    2
     5    19    21    2
     6    19    17    1
     7     1    17    1
     8     1     2    1
     9     2     3    1
    10     3     4   ar
    11     4     5   ar
    12     5     6   ar
    13     6    10    1
    14    10    11   ar
    15    11    12   ar
    16    12    13   ar
    17    13    14    1
    18    13    15   ar
    19    15    16   ar
    20     6     7   ar
    21     7     8   ar
    22     8     9    1
    23     9     1    1
    24     8     3   ar
    25    16    10   ar
    26    17    18    1
@<TRIPOS>MOLECULE
*****
 24 26 0 0 0
SMALL
GASTEIGER

@<TRIPOS>ATOM
      1 C          -9.1477  -19.2350   21.7583 C.3     1  UNL1        0.0838
      2 C          -8.6212  -20.4416   21.0392 C.3     1  UNL1        0.0437
      3 C          -7.1621  -20.2210   20.7704 C.ar    1  UNL1       -0.0247
      4 C          -6.1268  -21.0695   20.0935 C.ar    1  UNL1       -0.0045
      5 C          -4.7161  -20.5751   19.9696 C.ar    1  UNL1       -0.0003
      6 C          -4.3407  -19.2322   20.5225 C.ar    1  UNL1        0.0012
      7 C          -5.3760  -18.3837   21.1994 C.ar    1  UNL1       -0.0045
      8 C          -6.7867  -18.8782   21.3233 C.ar    1  UNL1       -0.0247
      9 C          -8.0138  -18.2688   21.9339 C.3     1  UNL1        0.0437
     10 C          -2.9299  -18.7378   20.3986 C.ar    1  UNL1        0.0193
     11 C          -2.4469  -18.1665   19.0985 C.ar    1  UNL1        0.0055
     12 C          -1.0361  -17.6721   18.9746 C.ar    1  UNL1        0.0497
     13 C          -0.1083  -17.7490   20.1508 C.ar    1  UNL1        0.2223
     14 F           1.3024  -17.2546   20.0269 F       1  UNL1       -0.1832
     15 N          -0.5914  -18.3203   21.4509 N.ar    1  UNL1       -0.2165
     16 C          -2.0022  -18.8147   21.5748 C.ar    1  UNL1        0.1012
     17 N         -10.5599  -19.0306   22.2207 N.3     1  UNL1       -0.1841
     18 H         -11.1103  -19.7972   21.8335 H       1  UNL1        0.1484
     19 S         -11.2844  -17.7622   21.8800 S.O2    1  UNL1        0.0390
     20 O         -11.2781  -18.1478   20.4305 O.2     1  UNL1       -0.1576
     21 O         -11.2907  -17.3766   23.3296 O.2     1  UNL1       -0.1576
     22 C         -12.1636  -16.0801   20.1059 C.3     1  UNL1        0.0270
     23 C         -12.0090  -16.4937   21.5394 C.3     1  UNL1        0.1457
     24 C         -12.5789  -15.6388   22.6323 C.3     1  UNL1        0.0270
@<TRIPOS>BOND
     1    22    23    1
     2    23    24    1
     3    23    19    1
     4    19    20    2
     5    19    21    2
     6    19    17    1
     7     1    17    1
     8     1     2    1
     9     2     3    1
    10     3     4   ar
    11     4     5   ar
    12     5     6   ar
    13     6    10    1
    14    10    11   ar
    15    11    12   ar
    16    12    13   ar
    17    13    14    1
    18    13    15   ar
    19    15    16   ar
    20     6     7   ar
    21     7     8   ar
    22     8     9    1
    23     9     1    1
    24     8     3   ar
    25    16    10   ar
    26    17    18    1
@<TRIPOS>MOLECULE
*****
 24 26 0 0 0
SMALL
GASTEIGER

@<TRIPOS>ATOM
      1 C         -13.8091   -7.0968   18.9688 C.3     1  UNL1        0.0838
      2 C         -12.4505   -6.4633   19.0204 C.3     1  UNL1        0.0437
      3 C         -12.6318   -4.9745   18.9936 C.ar    1  UNL1       -0.0247
      4 C         -11.6477   -3.8429   19.0225 C.ar    1  UNL1       -0.0045
      5 C         -12.1344   -2.4246   18.9831 C.ar    1  UNL1       -0.0003
      6 C         -13.6052   -2.1380   18.9149 C.ar    1  UNL1        0.0012
      7 C         -14.5893   -3.2696   18.8861 C.ar    1  UNL1       -0.0045
      8 C         -14.1026   -4.6879   18.9254 C.ar    1  UNL1       -0.0247
      9 C         -14.8302   -5.9995   18.9100 C.3     1  UNL1        0.0437
     10 C         -14.0918   -0.7196   18.8756 C.ar    1  UNL1        0.0193
     11 C         -15.4604   -0.3818   19.3882 C.ar    1  UNL1        0.0055
     12 C         -15.9471    1.0366   19.3489 C.ar    1  UNL1        0.0497
     13 C         -15.0651    2.1171   18.7970 C.ar    1  UNL1        0.2223
     14 F         -15.5517    3.5354   18.7576 F       1  UNL1       -0.1832
     15 N         -13.6964    1.7792   18.2843 N.ar    1  UNL1       -0.2165
     16 C         -13.2098    0.3609   18.3237 C.ar    1  UNL1        0.1012
     17 N         -14.0963   -8.5690   18.9748 N.3     1  UNL1       -0.1841
     18 H         -13.4165   -9.0042   18.3512 H       1  UNL1        0.1484
     19 S         -15.4476   -9.0713   18.5604 S.O2    1  UNL1        0.0390
     20 O         -15.0739   -8.8877   17.1194 O.2     1  UNL1       -0.1576
     21 O         -15.8213   -9.2548   20.0014 O.2     1  UNL1       -0.1576
     22 C         -17.2255  -10.9651   18.5087 C.3     1  UNL1        0.0270
     23 C         -16.7989   -9.5735   18.1459 C.3     1  UNL1        0.1457
     24 C         -17.7236   -8.6842   17.3687 C.3     1  UNL1        0.0270
@<TRIPOS>BOND
     1    22    23    1
     2    23    24    1
     3    23    19    1
     4    19    20    2
     5    19    21    2
     6    19    17    1
     7     1    17    1
     8     1     2    1
     9     2     3    1
    10     3     4   ar
    11     4     5   ar
    12     5     6   ar
    13     6    10    1
    14    10    11   ar
    15    11    12   ar
    16    12    13   ar
    17    13    14    1
    18    13    15   ar
    19    15    16   ar
    20     6     7   ar
    21     7     8   ar
    22     8     9    1
    23     9     1    1
    24     8     3   ar
    25    16    10   ar
    26    17    18    1
@<TRIPOS>MOLECULE
*****
 24 26 0 0 0
SMALL
GASTEIGER

@<TRIPOS>ATOM
      1 C           4.3779    1.3841   36.4775 C.3     1  UNL1        0.0838
      2 C           4.5206    2.1139   35.1748 C.3     1  UNL1        0.0437
      3 C           4.9242    1.1186   34.1276 C.ar    1  UNL1       -0.0247
      4 C           5.2083    1.2633   32.6620 C.ar    1  UNL1       -0.0045
      5 C           5.5992    0.0630   31.8518 C.ar    1  UNL1       -0.0003
      6 C           5.7060   -1.2820   32.5073 C.ar    1  UNL1        0.0012
      7 C           5.4219   -1.4266   33.9730 C.ar    1  UNL1       -0.0045
      8 C           5.0310   -0.2263   34.7832 C.ar    1  UNL1       -0.0247
      9 C           4.6934   -0.0622   36.2354 C.3     1  UNL1        0.0437
     10 C           6.0968   -2.4823   31.6970 C.ar    1  UNL1        0.0193
     11 C           6.4327   -3.7733   32.3830 C.ar    1  UNL1        0.0055
     12 C           6.8236   -4.9736   31.5728 C.ar    1  UNL1        0.0497
     13 C           6.8786   -4.8829   30.0765 C.ar    1  UNL1        0.2223
     14 F           7.2694   -6.0832   29.2662 F       1  UNL1       -0.1832
     15 N           6.5427   -3.5919   29.3905 N.ar    1  UNL1       -0.2165
     16 C           6.1518   -2.3917   30.2008 C.ar    1  UNL1        0.1012
     17 N           3.9882    1.9936   37.7915 N.3     1  UNL1       -0.1841
     18 H           4.7354    1.7750   38.4506 H       1  UNL1        0.1484
     19 S           2.7002    1.5967   38.4498 S.O2    1  UNL1        0.0390
     20 O           1.9315    2.2512   37.3405 O.2     1  UNL1       -0.1576
     21 O           3.4689    0.9421   39.5591 O.2     1  UNL1       -0.1576
     22 C           1.2119   -0.2119   39.5742 C.3     1  UNL1        0.0270
     23 C           1.4121    1.1997   39.1081 C.3     1  UNL1        0.1457
     24 C           0.3243    2.2144   39.3003 C.3     1  UNL1        0.0270
@<TRIPOS>BOND
     1    22    23    1
     2    23    24    1
     3    23    19    1
     4    19    20    2
     5    19    21    2
     6    19    17    1
     7     1    17    1
     8     1     2    1
     9     2     3    1
    10     3     4   ar
    11     4     5   ar
    12     5     6   ar
    13     6    10    1
    14    10    11   ar
    15    11    12   ar
    16    12    13   ar
    17    13    14    1
    18    13    15   ar
    19    15    16   ar
    20     6     7   ar
    21     7     8   ar
    22     8     9    1
    23     9     1    1
    24     8     3   ar
    25    16    10   ar
    26    17    18    1
