@<TRIPOS>MOLECULE
*****
 36 40 0 0 0
SMALL
GASTEIGER

@<TRIPOS>ATOM
      1 N          -8.9911  -18.2112   21.2392 N.3     1  UNL1       -0.2679
      2 C          -9.5780  -18.9076   22.4311 C.3     1  UNL1        0.0978
      3 C          -8.8119  -20.0024   23.1125 C.3     1  UNL1        0.0224
      4 C          -9.3988  -20.6988   24.3044 C.3     1  UNL1        0.0065
      5 C         -10.7518  -20.3004   24.8148 C.3     1  UNL1        0.0277
      6 C         -11.5180  -19.2057   24.1334 C.ar    1  UNL1       -0.0073
      7 C         -12.8711  -18.8072   24.6438 C.ar    1  UNL1       -0.0015
      8 C         -13.6372  -17.7125   23.9623 C.ar    1  UNL1        0.0203
      9 C         -13.0503  -17.0160   22.7704 C.ar    1  UNL1        0.0985
     10 N         -11.6973  -17.4144   22.2600 N.ar    1  UNL1       -0.2471
     11 C         -10.9311  -18.5092   22.9415 C.ar    1  UNL1        0.0695
     12 C          -8.9983  -18.8840   19.8986 C.3     1  UNL1        0.0725
     13 C          -7.8220  -19.7087   19.4670 C.3     1  UNL1        0.0188
     14 C          -6.4366  -19.3169   19.8875 C.3     1  UNL1        0.0185
     15 C          -5.7846  -20.0011   21.0523 C.3     1  UNL1        0.0689
     16 N          -5.3783  -19.2062   22.2577 N.3     1  UNL1       -0.2937
     17 H          -5.6087  -18.2325   22.0597 H       1  UNL1        0.1236
     18 C          -3.9531  -19.2275   22.7248 C.3     1  UNL1        0.0972
     19 C          -1.5804  -16.3921   21.2822 C.ar    1  UNL1        0.0204
     20 C          -0.7609  -17.1793   20.3031 C.ar    1  UNL1        0.0989
     21 N          -1.0054  -18.6492   20.1312 N.ar    1  UNL1       -0.2426
     22 C          -2.0695  -19.3320   20.9384 C.ar    1  UNL1        0.0959
     23 C          -2.8890  -18.5448   21.9175 C.ar    1  UNL1        0.0128
     24 C          -2.6445  -17.0749   22.0894 C.ar    1  UNL1        0.0002
     25 C          -8.3970  -16.8419   21.3879 C.3     1  UNL1        0.0886
     26 C          -7.7593  -16.4378   22.6841 C.3     1  UNL1        0.0748
     27 C          -8.6151  -16.1247   23.8755 C.3     1  UNL1        0.0432
     28 C          -7.9774  -15.7205   25.1717 C.ar    1  UNL1       -0.0234
     29 C          -8.8332  -15.4074   26.3631 C.ar    1  UNL1       -0.0045
     30 C          -8.1955  -15.0033   27.6592 C.ar    1  UNL1       -0.0003
     31 C          -6.7019  -14.9123   27.7639 C.ar    1  UNL1       -0.0003
     32 C          -5.8461  -15.2254   26.5725 C.ar    1  UNL1       -0.0032
     33 C          -6.4838  -15.6295   25.2764 C.ar    1  UNL1       -0.0103
     34 C          -5.6280  -15.9427   24.0849 C.3     1  UNL1        0.0953
     35 N          -6.2657  -16.3468   22.7888 N.3     1  UNL1       -0.2934
     36 H          -5.8974  -17.2686   22.5543 H       1  UNL1        0.1236
@<TRIPOS>BOND
     1    19    20   ar
     2    20    21   ar
     3    21    22   ar
     4    22    23   ar
     5    23    18    1
     6    18    16    1
     7    16    15    1
     8    15    14    1
     9    14    13    1
    10    13    12    1
    11    12     1    1
    12     1    25    1
    13    26    25    1
    14    26    27    1
    15    27    28    1
    16    28    29   ar
    17    29    30   ar
    18    30    31   ar
    19    31    32   ar
    20    32    33   ar
    21    33    34    1
    22    34    35    1
    23     2     1    1
    24     2     3    1
    25     3     4    1
    26     4     5    1
    27     5     6    1
    28     6     7   ar
    29     7     8   ar
    30     8     9   ar
    31     9    10   ar
    32    10    11   ar
    33    23    24   ar
    34    24    19   ar
    35    35    26    1
    36    11     2    1
    37    33    28   ar
    38    11     6   ar
    39    16    17    1
    40    35    36    1
@<TRIPOS>MOLECULE
*****
 36 40 0 0 0
SMALL
GASTEIGER

@<TRIPOS>ATOM
      1 N         -10.6236  -16.8117   21.0782 N.3     1  UNL1       -0.2679
      2 C         -11.3214  -17.4625   22.2356 C.3     1  UNL1        0.0978
      3 C         -12.6788  -16.9842   22.6582 C.3     1  UNL1        0.0224
      4 C         -13.3766  -17.6349   23.8156 C.3     1  UNL1        0.0065
      5 C         -12.7170  -18.7640   24.5504 C.3     1  UNL1        0.0277
      6 C         -11.3596  -19.2423   24.1279 C.ar    1  UNL1       -0.0073
      7 C         -10.6999  -20.3714   24.8628 C.ar    1  UNL1       -0.0015
      8 C          -9.3425  -20.8497   24.4402 C.ar    1  UNL1        0.0203
      9 C          -8.6447  -20.1990   23.2828 C.ar    1  UNL1        0.0985
     10 N          -9.3043  -19.0699   22.5480 N.ar    1  UNL1       -0.2471
     11 C         -10.6618  -18.5915   22.9705 C.ar    1  UNL1        0.0695
     12 C         -10.7592  -17.3884   19.7002 C.3     1  UNL1        0.0725
     13 C         -11.1098  -18.8362   19.5242 C.3     1  UNL1        0.0188
     14 C         -10.0230  -19.8554   19.3508 C.3     1  UNL1        0.0185
     15 C          -8.6465  -19.4217   18.9420 C.3     1  UNL1        0.0689
     16 N          -7.5884  -19.2046   19.9828 N.3     1  UNL1       -0.2937
     17 H          -7.0774  -18.3642   19.7125 H       1  UNL1        0.1236
     18 C          -6.5641  -20.2688   20.2444 C.3     1  UNL1        0.0972
     19 C          -3.9018  -18.6744   22.7183 C.ar    1  UNL1        0.0204
     20 C          -2.6222  -19.1840   22.1244 C.ar    1  UNL1        0.0989
     21 N          -2.6565  -20.0552   20.9038 N.ar    1  UNL1       -0.2426
     22 C          -3.9705  -20.4168   20.2771 C.ar    1  UNL1        0.0959
     23 C          -5.2501  -19.9072   20.8711 C.ar    1  UNL1        0.0128
     24 C          -5.2158  -19.0360   22.0917 C.ar    1  UNL1        0.0002
     25 C          -9.7902  -15.5842   21.2989 C.3     1  UNL1        0.0886
     26 C          -8.8199  -15.5319   22.4416 C.3     1  UNL1        0.0748
     27 C          -9.2802  -15.8565   23.8318 C.3     1  UNL1        0.0432
     28 C          -8.3099  -15.8042   24.9746 C.ar    1  UNL1       -0.0234
     29 C          -8.7702  -16.1289   26.3648 C.ar    1  UNL1       -0.0045
     30 C          -7.7999  -16.0765   27.5074 C.ar    1  UNL1       -0.0003
     31 C          -6.3693  -15.6995   27.2599 C.ar    1  UNL1       -0.0003
     32 C          -5.9090  -15.3748   25.8697 C.ar    1  UNL1       -0.0032
     33 C          -6.8793  -15.4272   24.7271 C.ar    1  UNL1       -0.0103
     34 C          -6.4190  -15.1025   23.3368 C.3     1  UNL1        0.0953
     35 N          -7.3893  -15.1549   22.1941 N.3     1  UNL1       -0.2934
     36 H          -7.0189  -15.8288   21.5240 H       1  UNL1        0.1236
@<TRIPOS>BOND
     1    19    20   ar
     2    20    21   ar
     3    21    22   ar
     4    22    23   ar
     5    23    18    1
     6    18    16    1
     7    16    15    1
     8    15    14    1
     9    14    13    1
    10    13    12    1
    11    12     1    1
    12     1    25    1
    13    26    25    1
    14    26    27    1
    15    27    28    1
    16    28    29   ar
    17    29    30   ar
    18    30    31   ar
    19    31    32   ar
    20    32    33   ar
    21    33    34    1
    22    34    35    1
    23     2     1    1
    24     2     3    1
    25     3     4    1
    26     4     5    1
    27     5     6    1
    28     6     7   ar
    29     7     8   ar
    30     8     9   ar
    31     9    10   ar
    32    10    11   ar
    33    23    24   ar
    34    24    19   ar
    35    35    26    1
    36    11     2    1
    37    33    28   ar
    38    11     6   ar
    39    16    17    1
    40    35    36    1
@<TRIPOS>MOLECULE
*****
 36 40 0 0 0
SMALL
GASTEIGER

@<TRIPOS>ATOM
      1 N          -7.5941  -19.5406   21.5556 N.3     1  UNL1       -0.2679
      2 C          -8.3879  -19.1788   22.7759 C.3     1  UNL1        0.0978
      3 C          -9.3617  -20.1613   23.3557 C.3     1  UNL1        0.0224
      4 C         -10.1555  -19.7995   24.5759 C.3     1  UNL1        0.0065
      5 C          -9.9755  -18.4551   25.2163 C.3     1  UNL1        0.0277
      6 C          -9.0017  -17.4725   24.6365 C.ar    1  UNL1       -0.0073
      7 C          -8.8217  -16.1280   25.2768 C.ar    1  UNL1       -0.0015
      8 C          -7.8479  -15.1455   24.6970 C.ar    1  UNL1        0.0203
      9 C          -7.0541  -15.5073   23.4768 C.ar    1  UNL1        0.0985
     10 N          -7.2341  -16.8517   22.8364 N.ar    1  UNL1       -0.2471
     11 C          -8.2079  -17.8344   23.4162 C.ar    1  UNL1        0.0695
     12 C          -8.1281  -19.2197   20.1912 C.3     1  UNL1        0.0725
     13 C          -9.3542  -19.9181   19.6823 C.3     1  UNL1        0.0188
     14 C         -10.7016  -19.2781   19.8397 C.3     1  UNL1        0.0185
     15 C         -11.5580  -19.6149   21.0242 C.3     1  UNL1        0.0689
     16 N         -12.1939  -18.5181   21.8261 N.3     1  UNL1       -0.2937
     17 H         -13.0235  -18.9174   22.2652 H       1  UNL1        0.1236
     18 C         -12.6285  -17.2509   21.1514 C.3     1  UNL1        0.0972
     19 C          -9.4552  -14.8687   21.0783 C.ar    1  UNL1        0.0204
     20 C          -9.5514  -14.3110   19.6892 C.ar    1  UNL1        0.0989
     21 N         -10.6733  -14.7333   18.7874 N.ar    1  UNL1       -0.2426
     22 C         -11.6989  -15.7132   19.2748 C.ar    1  UNL1        0.0959
     23 C         -11.6028  -16.2709   20.6639 C.ar    1  UNL1        0.0128
     24 C         -10.4809  -15.8486   21.5657 C.ar    1  UNL1        0.0002
     25 C          -6.2663  -20.2233   21.6999 C.3     1  UNL1        0.0886
     26 C          -4.9996  -19.4234   21.6251 C.3     1  UNL1        0.0748
     27 C          -4.2110  -19.3849   20.3498 C.3     1  UNL1        0.0432
     28 C          -2.9442  -18.5850   20.2750 C.ar    1  UNL1       -0.0234
     29 C          -2.1556  -18.5466   18.9997 C.ar    1  UNL1       -0.0045
     30 C          -0.8889  -17.7466   18.9250 C.ar    1  UNL1       -0.0003
     31 C          -0.4109  -16.9851   20.1257 C.ar    1  UNL1       -0.0003
     32 C          -1.1995  -17.0235   21.4010 C.ar    1  UNL1       -0.0032
     33 C          -2.4662  -17.8235   21.4757 C.ar    1  UNL1       -0.0103
     34 C          -3.2549  -17.8619   22.7511 C.3     1  UNL1        0.0953
     35 N          -4.5215  -18.6618   22.8258 N.3     1  UNL1       -0.2934
     36 H          -5.2660  -18.0116   23.0777 H       1  UNL1        0.1236
@<TRIPOS>BOND
     1    19    20   ar
     2    20    21   ar
     3    21    22   ar
     4    22    23   ar
     5    23    18    1
     6    18    16    1
     7    16    15    1
     8    15    14    1
     9    14    13    1
    10    13    12    1
    11    12     1    1
    12     1    25    1
    13    26    25    1
    14    26    27    1
    15    27    28    1
    16    28    29   ar
    17    29    30   ar
    18    30    31   ar
    19    31    32   ar
    20    32    33   ar
    21    33    34    1
    22    34    35    1
    23     2     1    1
    24     2     3    1
    25     3     4    1
    26     4     5    1
    27     5     6    1
    28     6     7   ar
    29     7     8   ar
    30     8     9   ar
    31     9    10   ar
    32    10    11   ar
    33    23    24   ar
    34    24    19   ar
    35    35    26    1
    36    11     2    1
    37    33    28   ar
    38    11     6   ar
    39    16    17    1
    40    35    36    1
@<TRIPOS>MOLECULE
*****
 36 40 0 0 0
SMALL
GASTEIGER

@<TRIPOS>ATOM
      1 N          -7.3665  -19.6248   21.7538 N.3     1  UNL1       -0.2679
      2 C          -8.2778  -19.2135   22.8721 C.3     1  UNL1        0.0978
      3 C          -9.2302  -20.2075   23.4676 C.3     1  UNL1        0.0224
      4 C         -10.1414  -19.7961   24.5859 C.3     1  UNL1        0.0065
      5 C         -10.1002  -18.3908   25.1086 C.3     1  UNL1        0.0277
      6 C          -9.1478  -17.3968   24.5130 C.ar    1  UNL1       -0.0073
      7 C          -9.1065  -15.9913   25.0357 C.ar    1  UNL1       -0.0015
      8 C          -8.1540  -14.9973   24.4401 C.ar    1  UNL1        0.0203
      9 C          -7.2428  -15.4087   23.3219 C.ar    1  UNL1        0.0985
     10 N          -7.2840  -16.8140   22.7992 N.ar    1  UNL1       -0.2471
     11 C          -8.2365  -17.8081   23.3947 C.ar    1  UNL1        0.0695
     12 C          -7.8202  -19.4942   20.3301 C.3     1  UNL1        0.0725
     13 C          -7.6487  -20.6423   19.3800 C.3     1  UNL1        0.0188
     14 C          -8.5468  -20.7675   18.1851 C.3     1  UNL1        0.0185
     15 C         -10.0280  -20.5866   18.3380 C.3     1  UNL1        0.0689
     16 N         -10.5671  -19.3778   19.0438 N.3     1  UNL1       -0.2937
     17 H          -9.8015  -18.7066   19.1049 H       1  UNL1        0.1236
     18 C         -11.1398  -19.5083   20.4239 C.3     1  UNL1        0.0972
     19 C         -12.9338  -17.1002   23.0187 C.ar    1  UNL1        0.0204
     20 C         -12.1838  -15.8224   22.7848 C.ar    1  UNL1        0.0989
     21 N         -11.0859  -15.7732   21.7640 N.ar    1  UNL1       -0.2426
     22 C         -10.7379  -17.0018   20.9770 C.ar    1  UNL1        0.0959
     23 C         -11.4878  -18.2796   21.2109 C.ar    1  UNL1        0.0128
     24 C         -12.5857  -18.3288   22.2317 C.ar    1  UNL1        0.0002
     25 C          -6.0017  -20.1668   22.0593 C.3     1  UNL1        0.0886
     26 C          -4.7930  -19.2949   21.8886 C.3     1  UNL1        0.0748
     27 C          -3.9716  -19.3884   20.6370 C.3     1  UNL1        0.0432
     28 C          -2.7629  -18.5165   20.4662 C.ar    1  UNL1       -0.0234
     29 C          -1.9415  -18.6100   19.2146 C.ar    1  UNL1       -0.0045
     30 C          -0.7329  -17.7382   19.0439 C.ar    1  UNL1       -0.0003
     31 C          -0.3457  -16.7729   20.1248 C.ar    1  UNL1       -0.0003
     32 C          -1.1671  -16.6795   21.3764 C.ar    1  UNL1       -0.0032
     33 C          -2.3757  -17.5513   21.5471 C.ar    1  UNL1       -0.0103
     34 C          -3.1972  -17.4578   22.7988 C.3     1  UNL1        0.0953
     35 N          -4.4058  -18.3297   22.9695 N.3     1  UNL1       -0.2934
     36 H          -5.2015  -17.7063   23.1065 H       1  UNL1        0.1236
@<TRIPOS>BOND
     1    19    20   ar
     2    20    21   ar
     3    21    22   ar
     4    22    23   ar
     5    23    18    1
     6    18    16    1
     7    16    15    1
     8    15    14    1
     9    14    13    1
    10    13    12    1
    11    12     1    1
    12     1    25    1
    13    26    25    1
    14    26    27    1
    15    27    28    1
    16    28    29   ar
    17    29    30   ar
    18    30    31   ar
    19    31    32   ar
    20    32    33   ar
    21    33    34    1
    22    34    35    1
    23     2     1    1
    24     2     3    1
    25     3     4    1
    26     4     5    1
    27     5     6    1
    28     6     7   ar
    29     7     8   ar
    30     8     9   ar
    31     9    10   ar
    32    10    11   ar
    33    23    24   ar
    34    24    19   ar
    35    35    26    1
    36    11     2    1
    37    33    28   ar
    38    11     6   ar
    39    16    17    1
    40    35    36    1
@<TRIPOS>MOLECULE
*****
 36 40 0 0 0
SMALL
GASTEIGER

@<TRIPOS>ATOM
      1 N          -8.8251  -17.8485   21.3224 N.3     1  UNL1       -0.2679
      2 C         -10.2708  -17.4486   21.3286 C.3     1  UNL1        0.0978
      3 C         -10.8296  -16.6380   20.1970 C.3     1  UNL1        0.0224
      4 C         -12.2753  -16.2381   20.2032 C.3     1  UNL1        0.0065
      5 C         -13.1622  -16.6489   21.3410 C.3     1  UNL1        0.0277
      6 C         -12.6034  -17.4595   22.4726 C.ar    1  UNL1       -0.0073
      7 C         -13.4903  -17.8704   23.6105 C.ar    1  UNL1       -0.0015
      8 C         -12.9315  -18.6811   24.7420 C.ar    1  UNL1        0.0203
      9 C         -11.4858  -19.0810   24.7358 C.ar    1  UNL1        0.0985
     10 N         -10.5989  -18.6702   23.5980 N.ar    1  UNL1       -0.2471
     11 C         -11.1577  -17.8594   22.4664 C.ar    1  UNL1        0.0695
     12 C          -8.4467  -19.2914   21.1648 C.3     1  UNL1        0.0725
     13 C          -7.1898  -19.6618   20.4346 C.3     1  UNL1        0.0188
     14 C          -6.2657  -20.6945   21.0085 C.3     1  UNL1        0.0185
     15 C          -5.2259  -21.3366   20.1388 C.3     1  UNL1        0.0689
     16 N          -4.0361  -20.5449   19.6832 N.3     1  UNL1       -0.2937
     17 H          -3.6380  -21.0432   18.8871 H       1  UNL1        0.1236
     18 C          -2.9071  -20.2740   20.6329 C.3     1  UNL1        0.0972
     19 C          -0.9778  -16.8123   20.4221 C.ar    1  UNL1        0.0204
     20 C          -1.6678  -16.0368   21.5049 C.ar    1  UNL1        0.0989
     21 N          -2.7709  -16.6737   22.2970 N.ar    1  UNL1       -0.2426
     22 C          -3.1840  -18.0861   22.0064 C.ar    1  UNL1        0.0959
     23 C          -2.4940  -18.8616   20.9236 C.ar    1  UNL1        0.0128
     24 C          -1.3909  -18.2247   20.1314 C.ar    1  UNL1        0.0002
     25 C          -7.7578  -16.8056   21.4737 C.3     1  UNL1        0.0886
     26 C          -7.3068  -16.3870   22.8418 C.3     1  UNL1        0.0748
     27 C          -8.3188  -16.1208   23.9164 C.3     1  UNL1        0.0432
     28 C          -7.8678  -15.7022   25.2844 C.ar    1  UNL1       -0.0234
     29 C          -8.8799  -15.4360   26.3590 C.ar    1  UNL1       -0.0045
     30 C          -8.4288  -15.0175   27.7269 C.ar    1  UNL1       -0.0003
     31 C          -6.9657  -14.8651   28.0203 C.ar    1  UNL1       -0.0003
     32 C          -5.9536  -15.1312   26.9457 C.ar    1  UNL1       -0.0032
     33 C          -6.4047  -15.5498   25.5777 C.ar    1  UNL1       -0.0103
     34 C          -5.3926  -15.8160   24.5030 C.3     1  UNL1        0.0953
     35 N          -5.8436  -16.2345   23.1351 N.3     1  UNL1       -0.2934
     36 H          -5.4097  -17.1380   22.9456 H       1  UNL1        0.1236
@<TRIPOS>BOND
     1    19    20   ar
     2    20    21   ar
     3    21    22   ar
     4    22    23   ar
     5    23    18    1
     6    18    16    1
     7    16    15    1
     8    15    14    1
     9    14    13    1
    10    13    12    1
    11    12     1    1
    12     1    25    1
    13    26    25    1
    14    26    27    1
    15    27    28    1
    16    28    29   ar
    17    29    30   ar
    18    30    31   ar
    19    31    32   ar
    20    32    33   ar
    21    33    34    1
    22    34    35    1
    23     2     1    1
    24     2     3    1
    25     3     4    1
    26     4     5    1
    27     5     6    1
    28     6     7   ar
    29     7     8   ar
    30     8     9   ar
    31     9    10   ar
    32    10    11   ar
    33    23    24   ar
    34    24    19   ar
    35    35    26    1
    36    11     2    1
    37    33    28   ar
    38    11     6   ar
    39    16    17    1
    40    35    36    1
@<TRIPOS>MOLECULE
*****
 36 40 0 0 0
SMALL
GASTEIGER

@<TRIPOS>ATOM
      1 N          -8.2940  -18.4888   21.8635 N.3     1  UNL1       -0.2679
      2 C          -9.7087  -18.4109   22.3562 C.3     1  UNL1        0.0978
      3 C         -10.1177  -19.1680   23.5848 C.3     1  UNL1        0.0224
      4 C         -11.5324  -19.0901   24.0775 C.3     1  UNL1        0.0065
      5 C         -12.5380  -18.2552   23.3415 C.3     1  UNL1        0.0277
      6 C         -12.1289  -17.4981   22.1129 C.ar    1  UNL1       -0.0073
      7 C         -13.1345  -16.6631   21.3770 C.ar    1  UNL1       -0.0015
      8 C         -12.7255  -15.9061   20.1484 C.ar    1  UNL1        0.0203
      9 C         -11.3109  -15.9839   19.6557 C.ar    1  UNL1        0.0985
     10 N         -10.3053  -16.8189   20.3916 N.ar    1  UNL1       -0.2471
     11 C         -10.7143  -17.5760   21.6202 C.ar    1  UNL1        0.0695
     12 C          -7.7428  -19.7933   21.3691 C.3     1  UNL1        0.0725
     13 C          -6.4728  -20.3396   21.9511 C.3     1  UNL1        0.0188
     14 C          -5.8103  -21.5291   21.3218 C.3     1  UNL1        0.0185
     15 C          -5.2925  -21.4430   19.9167 C.3     1  UNL1        0.0689
     16 N          -4.3186  -20.3657   19.5409 N.3     1  UNL1       -0.2937
     17 H          -4.0510  -20.5358   18.5715 H       1  UNL1        0.1236
     18 C          -3.0468  -20.1998   20.3186 C.3     1  UNL1        0.0972
     19 C          -0.9839  -16.8139   20.4930 C.ar    1  UNL1        0.0204
     20 C          -1.7079  -16.0973   21.5939 C.ar    1  UNL1        0.0989
     21 N          -2.8783  -16.7481   22.2698 N.ar    1  UNL1       -0.2426
     22 C          -3.3245  -18.1156   21.8447 C.ar    1  UNL1        0.0959
     23 C          -2.6005  -18.8323   20.7437 C.ar    1  UNL1        0.0128
     24 C          -1.4302  -18.1814   20.0679 C.ar    1  UNL1        0.0002
     25 C          -7.4307  -17.2623   21.8652 C.3     1  UNL1        0.0886
     26 C          -7.0601  -16.6077   23.1630 C.3     1  UNL1        0.0748
     27 C          -8.1016  -16.3993   24.2222 C.3     1  UNL1        0.0432
     28 C          -7.7310  -15.7448   25.5200 C.ar    1  UNL1       -0.0234
     29 C          -8.7725  -15.5364   26.5791 C.ar    1  UNL1       -0.0045
     30 C          -8.4019  -14.8818   27.8769 C.ar    1  UNL1       -0.0003
     31 C          -6.9898  -14.4357   28.1155 C.ar    1  UNL1       -0.0003
     32 C          -5.9483  -14.6441   27.0563 C.ar    1  UNL1       -0.0032
     33 C          -6.3189  -15.2986   25.7586 C.ar    1  UNL1       -0.0103
     34 C          -5.2774  -15.5070   24.6993 C.3     1  UNL1        0.0953
     35 N          -5.6480  -16.1615   23.4016 N.3     1  UNL1       -0.2934
     36 H          -5.0584  -16.9888   23.3101 H       1  UNL1        0.1236
@<TRIPOS>BOND
     1    19    20   ar
     2    20    21   ar
     3    21    22   ar
     4    22    23   ar
     5    23    18    1
     6    18    16    1
     7    16    15    1
     8    15    14    1
     9    14    13    1
    10    13    12    1
    11    12     1    1
    12     1    25    1
    13    26    25    1
    14    26    27    1
    15    27    28    1
    16    28    29   ar
    17    29    30   ar
    18    30    31   ar
    19    31    32   ar
    20    32    33   ar
    21    33    34    1
    22    34    35    1
    23     2     1    1
    24     2     3    1
    25     3     4    1
    26     4     5    1
    27     5     6    1
    28     6     7   ar
    29     7     8   ar
    30     8     9   ar
    31     9    10   ar
    32    10    11   ar
    33    23    24   ar
    34    24    19   ar
    35    35    26    1
    36    11     2    1
    37    33    28   ar
    38    11     6   ar
    39    16    17    1
    40    35    36    1
@<TRIPOS>MOLECULE
*****
 36 40 0 0 0
SMALL
GASTEIGER

@<TRIPOS>ATOM
      1 N         -15.4173   -5.2193   18.8805 N.3     1  UNL1       -0.2679
      2 C         -15.4858   -6.6924   18.6056 C.3     1  UNL1        0.0978
      3 C         -14.3492   -7.3789   17.9081 C.3     1  UNL1        0.0224
      4 C         -14.4177   -8.8519   17.6332 C.3     1  UNL1        0.0065
      5 C         -15.6230   -9.6384   18.0560 C.3     1  UNL1        0.0277
      6 C         -16.7596   -8.9519   18.7536 C.ar    1  UNL1       -0.0073
      7 C         -17.9649   -9.7384   19.1764 C.ar    1  UNL1       -0.0015
      8 C         -19.1016   -9.0519   19.8740 C.ar    1  UNL1        0.0203
      9 C         -19.0330   -7.5789   20.1488 C.ar    1  UNL1        0.0985
     10 N         -17.8278   -6.7924   19.7261 N.ar    1  UNL1       -0.2471
     11 C         -16.6910   -7.4789   19.0284 C.ar    1  UNL1        0.0695
     12 C         -14.6182   -4.7097   20.0431 C.3     1  UNL1        0.0725
     13 C         -13.1994   -4.2664   19.8413 C.3     1  UNL1        0.0188
     14 C         -12.8411   -2.8157   19.9720 C.3     1  UNL1        0.0185
     15 C         -11.8831   -2.1896   19.0024 C.3     1  UNL1        0.0689
     16 N         -10.4733   -2.6936   18.9095 N.3     1  UNL1       -0.2937
     17 H          -9.8646   -1.8768   18.9620 H       1  UNL1        0.1236
     18 C         -10.0365   -3.4830   17.7112 C.3     1  UNL1        0.0972
     19 C          -9.9318   -7.3025   18.7837 C.ar    1  UNL1        0.0204
     20 C         -10.6256   -7.9432   17.6184 C.ar    1  UNL1        0.0989
     21 N         -11.1230   -7.0972   16.4840 N.ar    1  UNL1       -0.2426
     22 C         -10.9267   -5.6105   16.5149 C.ar    1  UNL1        0.0959
     23 C         -10.2329   -4.9698   17.6802 C.ar    1  UNL1        0.0128
     24 C          -9.7355   -5.8158   18.8146 C.ar    1  UNL1        0.0002
     25 C         -16.1478   -4.2560   17.9927 C.3     1  UNL1        0.0886
     26 C         -15.9257   -2.7802   18.1441 C.3     1  UNL1        0.0748
     27 C         -16.5794   -2.0350   19.2698 C.3     1  UNL1        0.0432
     28 C         -16.3573   -0.5592   19.4213 C.ar    1  UNL1       -0.0234
     29 C         -17.0110    0.1860   20.5470 C.ar    1  UNL1       -0.0045
     30 C         -16.7889    1.6616   20.6984 C.ar    1  UNL1       -0.0003
     31 C         -15.9131    2.3921   19.7240 C.ar    1  UNL1       -0.0003
     32 C         -15.2594    1.6469   18.5983 C.ar    1  UNL1       -0.0032
     33 C         -15.4815    0.1713   18.4469 C.ar    1  UNL1       -0.0103
     34 C         -14.8277   -0.5740   17.3212 C.3     1  UNL1        0.0953
     35 N         -15.0499   -2.0497   17.1698 N.3     1  UNL1       -0.2934
     36 H         -14.1314   -2.4915   17.2109 H       1  UNL1        0.1236
@<TRIPOS>BOND
     1    19    20   ar
     2    20    21   ar
     3    21    22   ar
     4    22    23   ar
     5    23    18    1
     6    18    16    1
     7    16    15    1
     8    15    14    1
     9    14    13    1
    10    13    12    1
    11    12     1    1
    12     1    25    1
    13    26    25    1
    14    26    27    1
    15    27    28    1
    16    28    29   ar
    17    29    30   ar
    18    30    31   ar
    19    31    32   ar
    20    32    33   ar
    21    33    34    1
    22    34    35    1
    23     2     1    1
    24     2     3    1
    25     3     4    1
    26     4     5    1
    27     5     6    1
    28     6     7   ar
    29     7     8   ar
    30     8     9   ar
    31     9    10   ar
    32    10    11   ar
    33    23    24   ar
    34    24    19   ar
    35    35    26    1
    36    11     2    1
    37    33    28   ar
    38    11     6   ar
    39    16    17    1
    40    35    36    1
@<TRIPOS>MOLECULE
*****
 36 40 0 0 0
SMALL
GASTEIGER

@<TRIPOS>ATOM
      1 N          -7.1399  -17.1860   22.5520 N.3     1  UNL1       -0.2679
      2 C          -6.5355  -16.3714   23.6570 C.3     1  UNL1        0.0978
      3 C          -5.3026  -15.5567   23.4002 C.3     1  UNL1        0.0224
      4 C          -4.6982  -14.7420   24.5052 C.3     1  UNL1        0.0065
      5 C          -5.3268  -14.7421   25.8671 C.3     1  UNL1        0.0277
      6 C          -6.5597  -15.5568   26.1240 C.ar    1  UNL1       -0.0073
      7 C          -7.1884  -15.5569   27.4860 C.ar    1  UNL1       -0.0015
      8 C          -8.4213  -16.3715   27.7428 C.ar    1  UNL1        0.0203
      9 C          -9.0257  -17.1862   26.6378 C.ar    1  UNL1        0.0985
     10 N          -8.3971  -17.1861   25.2759 N.ar    1  UNL1       -0.2471
     11 C          -7.1641  -16.3714   25.0190 C.ar    1  UNL1        0.0695
     12 C          -6.6793  -18.5946   22.3205 C.3     1  UNL1        0.0725
     13 C          -7.4664  -19.5031   21.4232 C.3     1  UNL1        0.0188
     14 C          -6.8456  -20.0388   20.1672 C.3     1  UNL1        0.0185
     15 C          -5.7647  -21.0756   20.2480 C.3     1  UNL1        0.0689
     16 N          -4.3293  -20.6782   20.0696 N.3     1  UNL1       -0.2937
     17 H          -3.8275  -21.5139   19.7692 H       1  UNL1        0.1236
     18 C          -3.5614  -20.1032   21.2227 C.3     1  UNL1        0.0972
     19 C          -2.0072  -16.4906   21.7553 C.ar    1  UNL1        0.0204
     20 C          -1.0183  -16.4385   20.6287 C.ar    1  UNL1        0.0989
     21 N          -0.8771  -17.6080   19.7001 N.ar    1  UNL1       -0.2426
     22 C          -1.7247  -18.8296   19.8981 C.ar    1  UNL1        0.0959
     23 C          -2.7137  -18.8816   21.0247 C.ar    1  UNL1        0.0128
     24 C          -2.8549  -17.7121   21.9533 C.ar    1  UNL1        0.0002
     25 C          -8.2049  -16.5920   21.6785 C.3     1  UNL1        0.0886
     26 C          -9.6515  -16.7708   22.0327 C.3     1  UNL1        0.0748
     27 C         -10.0384  -17.6484   23.1860 C.3     1  UNL1        0.0432
     28 C         -11.4850  -17.8272   23.5402 C.ar    1  UNL1       -0.0234
     29 C         -11.8718  -18.7048   24.6935 C.ar    1  UNL1       -0.0045
     30 C         -13.3184  -18.8835   25.0477 C.ar    1  UNL1       -0.0003
     31 C         -14.3781  -18.1847   24.2485 C.ar    1  UNL1       -0.0003
     32 C         -13.9913  -17.3071   23.0952 C.ar    1  UNL1       -0.0032
     33 C         -12.5447  -17.1283   22.7411 C.ar    1  UNL1       -0.0103
     34 C         -12.1578  -16.2507   21.5878 C.3     1  UNL1        0.0953
     35 N         -10.7112  -16.0719   21.2336 N.3     1  UNL1       -0.2934
     36 H         -10.5146  -15.0729   21.2939 H       1  UNL1        0.1236
@<TRIPOS>BOND
     1    19    20   ar
     2    20    21   ar
     3    21    22   ar
     4    22    23   ar
     5    23    18    1
     6    18    16    1
     7    16    15    1
     8    15    14    1
     9    14    13    1
    10    13    12    1
    11    12     1    1
    12     1    25    1
    13    26    25    1
    14    26    27    1
    15    27    28    1
    16    28    29   ar
    17    29    30   ar
    18    30    31   ar
    19    31    32   ar
    20    32    33   ar
    21    33    34    1
    22    34    35    1
    23     2     1    1
    24     2     3    1
    25     3     4    1
    26     4     5    1
    27     5     6    1
    28     6     7   ar
    29     7     8   ar
    30     8     9   ar
    31     9    10   ar
    32    10    11   ar
    33    23    24   ar
    34    24    19   ar
    35    35    26    1
    36    11     2    1
    37    33    28   ar
    38    11     6   ar
    39    16    17    1
    40    35    36    1
@<TRIPOS>MOLECULE
*****
 36 40 0 0 0
SMALL
GASTEIGER

@<TRIPOS>ATOM
      1 N          -7.3400  -19.8515   21.4556 N.3     1  UNL1       -0.2679
      2 C          -5.8767  -19.9281   21.1351 C.3     1  UNL1        0.0978
      3 C          -5.3764  -20.9450   20.1525 C.3     1  UNL1        0.0224
      4 C          -3.9130  -21.0216   19.8320 C.3     1  UNL1        0.0065
      5 C          -2.9500  -20.0813   20.4941 C.3     1  UNL1        0.0277
      6 C          -3.4503  -19.0645   21.4767 C.ar    1  UNL1       -0.0073
      7 C          -2.4873  -18.1241   22.1389 C.ar    1  UNL1       -0.0015
      8 C          -2.9876  -17.1073   23.1215 C.ar    1  UNL1        0.0203
      9 C          -4.4510  -17.0307   23.4420 C.ar    1  UNL1        0.0985
     10 N          -5.4140  -17.9709   22.7799 N.ar    1  UNL1       -0.2471
     11 C          -4.9137  -18.9879   21.7972 C.ar    1  UNL1        0.0695
     12 C          -8.2782  -19.1544   20.5156 C.3     1  UNL1        0.0725
     13 C          -8.4541  -17.6670   20.5973 C.3     1  UNL1        0.0188
     14 C          -9.8178  -17.0631   20.4377 C.3     1  UNL1        0.0185
     15 C         -10.2939  -16.0197   21.4045 C.3     1  UNL1        0.0689
     16 N          -9.3934  -15.5558   22.5108 N.3     1  UNL1       -0.2937
     17 H          -8.4357  -15.6748   22.1805 H       1  UNL1        0.1236
     18 C          -9.4694  -16.2040   23.8614 C.3     1  UNL1        0.0972
     19 C          -7.5697  -16.0831   27.3437 C.ar    1  UNL1        0.0204
     20 C          -6.3510  -15.2905   26.9744 C.ar    1  UNL1        0.0989
     21 N          -6.1718  -14.8023   25.5675 N.ar    1  UNL1       -0.2426
     22 C          -7.2112  -15.1068   24.5298 C.ar    1  UNL1        0.0959
     23 C          -8.4299  -15.8995   24.8991 C.ar    1  UNL1        0.0128
     24 C          -8.6092  -16.3876   26.3060 C.ar    1  UNL1        0.0002
     25 C          -7.8652  -20.4720   22.7162 C.3     1  UNL1        0.0886
     26 C          -9.1512  -19.9829   23.3137 C.3     1  UNL1        0.0748
     27 C         -10.2745  -19.5458   22.4209 C.3     1  UNL1        0.0432
     28 C         -11.5606  -19.0566   23.0184 C.ar    1  UNL1       -0.0234
     29 C         -12.6839  -18.6195   22.1257 C.ar    1  UNL1       -0.0045
     30 C         -13.9699  -18.1304   22.7231 C.ar    1  UNL1       -0.0003
     31 C         -14.1325  -18.0784   24.2134 C.ar    1  UNL1       -0.0003
     32 C         -13.0092  -18.5155   25.1062 C.ar    1  UNL1       -0.0032
     33 C         -11.7233  -19.0046   24.5087 C.ar    1  UNL1       -0.0103
     34 C         -10.5999  -19.4418   25.4014 C.3     1  UNL1        0.0953
     35 N          -9.3139  -19.9309   24.8040 N.3     1  UNL1       -0.2934
     36 H          -9.1711  -20.8801   25.1490 H       1  UNL1        0.1236
@<TRIPOS>BOND
     1    19    20   ar
     2    20    21   ar
     3    21    22   ar
     4    22    23   ar
     5    23    18    1
     6    18    16    1
     7    16    15    1
     8    15    14    1
     9    14    13    1
    10    13    12    1
    11    12     1    1
    12     1    25    1
    13    26    25    1
    14    26    27    1
    15    27    28    1
    16    28    29   ar
    17    29    30   ar
    18    30    31   ar
    19    31    32   ar
    20    32    33   ar
    21    33    34    1
    22    34    35    1
    23     2     1    1
    24     2     3    1
    25     3     4    1
    26     4     5    1
    27     5     6    1
    28     6     7   ar
    29     7     8   ar
    30     8     9   ar
    31     9    10   ar
    32    10    11   ar
    33    23    24   ar
    34    24    19   ar
    35    35    26    1
    36    11     2    1
    37    33    28   ar
    38    11     6   ar
    39    16    17    1
    40    35    36    1
