@<TRIPOS>MOLECULE
*****
 28 32 0 0 0
SMALL
GASTEIGER

@<TRIPOS>ATOM
      1 C         -15.7353   -1.9535   19.5991 C.3     1  UNL1        0.0578
      2 C         -16.9033   -2.8915   19.6743 C.3     1  UNL1        0.0163
      3 C         -16.3836   -4.2914   19.5324 C.3     1  UNL1        0.0058
      4 C         -14.8943   -4.2185   19.3694 C.3     1  UNL1        0.0240
      5 C         -13.4400   -3.8799   19.2263 C.3     1  UNL1        0.0301
      6 C         -12.2772   -4.8090   19.0402 C.ar    1  UNL1       -0.0255
      7 C         -10.9842   -4.0555   18.9400 C.ar    1  UNL1       -0.0046
      8 C          -9.6954   -4.7992   18.7508 C.ar    1  UNL1       -0.0003
      9 C          -9.6997   -6.2966   18.6619 C.ar    1  UNL1       -0.0003
     10 C         -10.9927   -7.0502   18.7622 C.ar    1  UNL1       -0.0042
     11 C         -12.2815   -6.3064   18.9513 C.ar    1  UNL1       -0.0217
     12 C         -13.4497   -7.2444   19.0266 C.3     1  UNL1        0.0520
     13 C         -14.9020   -6.9168   19.2092 C.ar    1  UNL1       -0.0218
     14 C         -15.7453   -8.1571   19.2299 C.ar    1  UNL1       -0.0042
     15 C         -17.2314   -8.0508   19.4032 C.ar    1  UNL1       -0.0003
     16 C         -17.8743   -6.7042   19.5558 C.ar    1  UNL1       -0.0003
     17 C         -17.0310   -5.4638   19.5351 C.ar    1  UNL1       -0.0046
     18 C         -15.5449   -5.5701   19.3618 C.ar    1  UNL1       -0.0261
     19 C         -14.4935   -2.7737   19.4106 C.3     1  UNL1        0.0203
     20 C         -15.9231    2.5333   19.8880 C.3     1  UNL1        0.0393
     21 C         -14.9196    1.8813   18.9835 C.3     1  UNL1        0.0229
     22 C         -14.8570    0.3857   18.8872 C.3     1  UNL1        0.0724
     23 N         -15.7979   -0.4579   19.6954 N.3     1  UNL1       -0.2739
     24 C         -16.8013    0.1941   20.5999 C.3     1  UNL1        0.0724
     25 C         -16.8639    1.6896   20.6962 C.3     1  UNL1        0.0229
     26 O         -14.7631    4.8073   20.3708 O.co2   1  UNL1       -0.5492
     27 C         -15.9857    4.0289   19.9843 C.2     1  UNL1        0.0501
     28 O         -17.2707    4.7460   19.6940 O.co2   1  UNL1       -0.5492
@<TRIPOS>UNITY_ATOM_ATTR
26 1
charge -1
@<TRIPOS>BOND
     1    26    27   ar
     2    27    28   ar
     3    27    20    1
     4    20    21    1
     5    21    22    1
     6    22    23    1
     7    23     1    1
     8     1     2    1
     9     2     3    1
    10     4     3    1
    11     4     5    1
    12     5     6    1
    13     6     7   ar
    14     7     8   ar
    15     8     9   ar
    16     9    10   ar
    17    10    11   ar
    18    11    12    1
    19    12    13    1
    20    13    14   ar
    21    14    15   ar
    22    15    16   ar
    23    16    17   ar
    24    17    18   ar
    25     4    19    1
    26    23    24    1
    27    24    25    1
    28    25    20    1
    29    19     1    1
    30    18     4    1
    31    11     6   ar
    32    18    13   ar
@<TRIPOS>MOLECULE
*****
 28 32 0 0 0
SMALL
GASTEIGER

@<TRIPOS>ATOM
      1 C         -16.5959   -3.2882   19.6639 C.3     1  UNL1        0.0578
      2 C         -17.4359   -4.5265   19.5601 C.3     1  UNL1        0.0163
      3 C         -16.5254   -5.6806   19.2623 C.3     1  UNL1        0.0058
      4 C         -15.1226   -5.1556   19.1819 C.3     1  UNL1        0.0240
      5 C         -13.8319   -4.3919   19.1541 C.3     1  UNL1        0.0301
      6 C         -12.4454   -4.9072   18.9047 C.ar    1  UNL1       -0.0255
      7 C         -11.4314   -3.8035   18.9656 C.ar    1  UNL1       -0.0046
      8 C          -9.9792   -4.1063   18.7434 C.ar    1  UNL1       -0.0003
      9 C          -9.5410   -5.5126   18.4602 C.ar    1  UNL1       -0.0003
     10 C         -10.5550   -6.6162   18.3992 C.ar    1  UNL1       -0.0042
     11 C         -12.0072   -6.3135   18.6215 C.ar    1  UNL1       -0.0217
     12 C         -12.8473   -7.5519   18.5178 C.3     1  UNL1        0.0520
     13 C         -14.3330   -7.6898   18.6716 C.ar    1  UNL1       -0.0218
     14 C         -14.7731   -9.1122   18.4901 C.ar    1  UNL1       -0.0042
     15 C         -16.2258   -9.4682   18.6041 C.ar    1  UNL1       -0.0003
     16 C         -17.2383   -8.4019   18.8997 C.ar    1  UNL1       -0.0003
     17 C         -16.7983   -6.9794   19.0812 C.ar    1  UNL1       -0.0046
     18 C         -15.3456   -6.6233   18.9672 C.ar    1  UNL1       -0.0261
     19 C         -15.1661   -3.6769   19.4301 C.3     1  UNL1        0.0203
     20 C         -18.1008    0.8644   20.5252 C.3     1  UNL1        0.0393
     21 C         -19.0685   -0.2766   20.4168 C.3     1  UNL1        0.0229
     22 C         -18.5669   -1.6607   20.1297 C.3     1  UNL1        0.0724
     23 N         -17.0975   -1.9040   19.9510 N.3     1  UNL1       -0.2739
     24 C         -16.1298   -0.7629   20.0594 C.3     1  UNL1        0.0724
     25 C         -16.6314    0.6211   20.3465 C.3     1  UNL1        0.0229
     26 O         -19.1468    3.0948   19.6998 O.co2   1  UNL1       -0.5492
     27 C         -18.6024    2.2486   20.8123 C.2     1  UNL1        0.0501
     28 O         -18.5597    2.7866   22.2118 O.co2   1  UNL1       -0.5492
@<TRIPOS>UNITY_ATOM_ATTR
26 1
charge -1
@<TRIPOS>BOND
     1    26    27   ar
     2    27    28   ar
     3    27    20    1
     4    20    21    1
     5    21    22    1
     6    22    23    1
     7    23     1    1
     8     1     2    1
     9     2     3    1
    10     4     3    1
    11     4     5    1
    12     5     6    1
    13     6     7   ar
    14     7     8   ar
    15     8     9   ar
    16     9    10   ar
    17    10    11   ar
    18    11    12    1
    19    12    13    1
    20    13    14   ar
    21    14    15   ar
    22    15    16   ar
    23    16    17   ar
    24    17    18   ar
    25     4    19    1
    26    23    24    1
    27    24    25    1
    28    25    20    1
    29    19     1    1
    30    18     4    1
    31    11     6   ar
    32    18    13   ar
@<TRIPOS>MOLECULE
*****
 28 32 0 0 0
SMALL
GASTEIGER

@<TRIPOS>ATOM
      1 C           4.1433   -1.5682   25.0971 C.3     1  UNL1        0.0578
      2 C           4.8969   -2.5532   24.2534 C.3     1  UNL1        0.0163
      3 C           4.4525   -2.3810   22.8312 C.3     1  UNL1        0.0058
      4 C           3.4241   -1.2896   22.7959 C.3     1  UNL1        0.0240
      5 C           2.4360   -0.1847   23.0261 C.3     1  UNL1        0.0301
      6 C           1.5739    0.5231   22.0231 C.ar    1  UNL1       -0.0255
      7 C           0.7225    1.5717   22.6754 C.ar    1  UNL1       -0.0046
      8 C          -0.2158    2.3980   21.8467 C.ar    1  UNL1       -0.0003
      9 C          -0.3028    2.1757   20.3658 C.ar    1  UNL1       -0.0003
     10 C           0.5486    1.1270   19.7136 C.ar    1  UNL1       -0.0042
     11 C           1.4870    0.3007   20.5423 C.ar    1  UNL1       -0.0217
     12 C           2.2407   -0.6843   19.6986 C.3     1  UNL1        0.0520
     13 C           3.2674   -1.6902   20.1274 C.ar    1  UNL1       -0.0218
     14 C           3.7777   -2.4837   18.9612 C.ar    1  UNL1       -0.0042
     15 C           4.8146   -3.5466   19.1735 C.ar    1  UNL1       -0.0003
     16 C           5.3413   -3.8160   20.5519 C.ar    1  UNL1       -0.0003
     17 C           4.8310   -3.0224   21.7181 C.ar    1  UNL1       -0.0046
     18 C           3.7941   -1.9596   21.5058 C.ar    1  UNL1       -0.0261
     19 C           3.2330   -0.7872   24.1963 C.3     1  UNL1        0.0203
     20 C           4.5430   -1.0476   29.5490 C.3     1  UNL1        0.0393
     21 C           5.6323   -1.7261   28.7725 C.3     1  UNL1        0.0229
     22 C           5.4991   -1.8997   27.2885 C.3     1  UNL1        0.0724
     23 N           4.2765   -1.3947   26.5810 N.3     1  UNL1       -0.2739
     24 C           3.1872   -0.7162   27.3577 C.3     1  UNL1        0.0724
     25 C           3.3204   -0.5426   28.8415 C.3     1  UNL1        0.0229
     26 O           5.9136   -0.2502   31.6070 O.co2   1  UNL1       -0.5492
     27 C           4.6762   -0.8741   31.0329 C.2     1  UNL1        0.0501
     28 O           3.5720   -1.3244   31.9429 O.co2   1  UNL1       -0.5492
@<TRIPOS>UNITY_ATOM_ATTR
26 1
charge -1
@<TRIPOS>BOND
     1    26    27   ar
     2    27    28   ar
     3    27    20    1
     4    20    21    1
     5    21    22    1
     6    22    23    1
     7    23     1    1
     8     1     2    1
     9     2     3    1
    10     4     3    1
    11     4     5    1
    12     5     6    1
    13     6     7   ar
    14     7     8   ar
    15     8     9   ar
    16     9    10   ar
    17    10    11   ar
    18    11    12    1
    19    12    13    1
    20    13    14   ar
    21    14    15   ar
    22    15    16   ar
    23    16    17   ar
    24    17    18   ar
    25     4    19    1
    26    23    24    1
    27    24    25    1
    28    25    20    1
    29    19     1    1
    30    18     4    1
    31    11     6   ar
    32    18    13   ar
@<TRIPOS>MOLECULE
*****
 28 32 0 0 0
SMALL
GASTEIGER

@<TRIPOS>ATOM
      1 C           1.4796    0.9758   24.6532 C.3     1  UNL1        0.0578
      2 C           0.7167    1.8189   23.6750 C.3     1  UNL1        0.0163
      3 C           1.0629    1.3526   22.2921 C.3     1  UNL1        0.0058
      4 C           2.0399    0.2211   22.4156 C.3     1  UNL1        0.0240
      5 C           2.9929   -0.8703   22.8039 C.3     1  UNL1        0.0301
      6 C           3.7594   -1.8032   21.9139 C.ar    1  UNL1       -0.0255
      7 C           4.6050   -2.7509   22.7118 C.ar    1  UNL1       -0.0046
      8 C           5.4534   -3.7706   22.0115 C.ar    1  UNL1       -0.0003
      9 C           5.4562   -3.8425   20.5132 C.ar    1  UNL1       -0.0003
     10 C           4.6106   -2.8948   19.7153 C.ar    1  UNL1       -0.0042
     11 C           3.7622   -1.8752   20.4156 C.ar    1  UNL1       -0.0217
     12 C           2.9992   -1.0319   19.4374 C.3     1  UNL1        0.0520
     13 C           2.0450    0.0915   19.7158 C.ar    1  UNL1       -0.0218
     14 C           1.4964    0.6719   18.4461 C.ar    1  UNL1       -0.0042
     15 C           0.5208    1.8100   18.5019 C.ar    1  UNL1       -0.0003
     16 C           0.0939    2.3676   19.8273 C.ar    1  UNL1       -0.0003
     17 C           0.6426    1.7871   21.0970 C.ar    1  UNL1       -0.0046
     18 C           1.6181    0.6491   21.0412 C.ar    1  UNL1       -0.0261
     19 C           2.2974   -0.0118   23.8749 C.3     1  UNL1        0.0203
     20 C           1.3394    1.3442   29.1359 C.3     1  UNL1        0.0393
     21 C           2.6284    0.9968   28.4519 C.3     1  UNL1        0.0229
     22 C           2.6751    0.8740   26.9577 C.3     1  UNL1        0.0724
     23 N           1.4329    1.0986   26.1474 N.3     1  UNL1       -0.2739
     24 C           0.1439    1.4459   26.8316 C.3     1  UNL1        0.0724
     25 C           0.0972    1.5687   28.3257 C.3     1  UNL1        0.0229
     26 O           2.5400    1.2653   31.4386 O.co2   1  UNL1       -0.5492
     27 C           1.2927    1.4670   30.6302 C.2     1  UNL1        0.0501
     28 O          -0.0012    1.7914   31.3160 O.co2   1  UNL1       -0.5492
@<TRIPOS>UNITY_ATOM_ATTR
26 1
charge -1
@<TRIPOS>BOND
     1    26    27   ar
     2    27    28   ar
     3    27    20    1
     4    20    21    1
     5    21    22    1
     6    22    23    1
     7    23     1    1
     8     1     2    1
     9     2     3    1
    10     4     3    1
    11     4     5    1
    12     5     6    1
    13     6     7   ar
    14     7     8   ar
    15     8     9   ar
    16     9    10   ar
    17    10    11   ar
    18    11    12    1
    19    12    13    1
    20    13    14   ar
    21    14    15   ar
    22    15    16   ar
    23    16    17   ar
    24    17    18   ar
    25     4    19    1
    26    23    24    1
    27    24    25    1
    28    25    20    1
    29    19     1    1
    30    18     4    1
    31    11     6   ar
    32    18    13   ar
@<TRIPOS>MOLECULE
*****
 28 32 0 0 0
SMALL
GASTEIGER

@<TRIPOS>ATOM
      1 C           1.0203    0.9815   20.0658 C.3     1  UNL1        0.0578
      2 C           1.6082   -0.0893   19.1955 C.3     1  UNL1        0.0163
      3 C           2.4661   -0.9678   20.0569 C.3     1  UNL1        0.0058
      4 C           2.4084   -0.4399   21.4597 C.3     1  UNL1        0.0240
      5 C           2.1874    0.2751   22.7597 C.3     1  UNL1        0.0301
      6 C           2.7498   -0.0479   24.1123 C.ar    1  UNL1       -0.0255
      7 C           2.2745    0.9252   25.1501 C.ar    1  UNL1       -0.0046
      8 C           2.7216    0.7804   26.5745 C.ar    1  UNL1       -0.0003
      9 C           3.6441   -0.3374   26.9611 C.ar    1  UNL1       -0.0003
     10 C           4.1194   -1.3105   25.9233 C.ar    1  UNL1       -0.0042
     11 C           3.6722   -1.1658   24.4989 C.ar    1  UNL1       -0.0217
     12 C           4.2601   -2.2366   23.6284 C.3     1  UNL1        0.0520
     13 C           4.0707   -2.4542   22.1564 C.ar    1  UNL1       -0.0218
     14 C           4.8420   -3.6472   21.6750 C.ar    1  UNL1       -0.0042
     15 C           4.7893   -4.0406   20.2284 C.ar    1  UNL1       -0.0003
     16 C           3.9653   -3.2410   19.2633 C.ar    1  UNL1       -0.0003
     17 C           3.1939   -2.0479   19.7447 C.ar    1  UNL1       -0.0046
     18 C           3.2466   -1.6545   21.1913 C.ar    1  UNL1       -0.0261
     19 C           1.5149    0.7649   21.4653 C.3     1  UNL1        0.0203
     20 C          -1.7422    4.2673   18.7158 C.3     1  UNL1        0.0393
     21 C          -0.6847    3.7478   17.7874 C.3     1  UNL1        0.0229
     22 C           0.2361    2.6525   18.2374 C.3     1  UNL1        0.0724
     23 N           0.0995    2.0768   19.6158 N.3     1  UNL1       -0.2739
     24 C          -0.9580    2.5964   20.5442 C.3     1  UNL1        0.0724
     25 C          -1.8788    3.6916   20.0942 C.3     1  UNL1        0.0229
     26 O          -2.1595    6.4349   17.3456 O.co2   1  UNL1       -0.5492
     27 C          -2.6630    5.3626   18.2658 C.2     1  UNL1        0.0501
     28 O          -4.0872    5.3856   18.7360 O.co2   1  UNL1       -0.5492
@<TRIPOS>UNITY_ATOM_ATTR
26 1
charge -1
@<TRIPOS>BOND
     1    26    27   ar
     2    27    28   ar
     3    27    20    1
     4    20    21    1
     5    21    22    1
     6    22    23    1
     7    23     1    1
     8     1     2    1
     9     2     3    1
    10     4     3    1
    11     4     5    1
    12     5     6    1
    13     6     7   ar
    14     7     8   ar
    15     8     9   ar
    16     9    10   ar
    17    10    11   ar
    18    11    12    1
    19    12    13    1
    20    13    14   ar
    21    14    15   ar
    22    15    16   ar
    23    16    17   ar
    24    17    18   ar
    25     4    19    1
    26    23    24    1
    27    24    25    1
    28    25    20    1
    29    19     1    1
    30    18     4    1
    31    11     6   ar
    32    18    13   ar
@<TRIPOS>MOLECULE
*****
 28 32 0 0 0
SMALL
GASTEIGER

@<TRIPOS>ATOM
      1 C           1.1739    0.9313   20.3168 C.3     1  UNL1        0.0578
      2 C           0.2792    1.8117   19.4957 C.3     1  UNL1        0.0163
      3 C          -0.5947    2.5891   20.4348 C.3     1  UNL1        0.0058
      4 C          -0.2401    2.1891   21.8363 C.3     1  UNL1        0.0240
      5 C           0.2934    1.6264   23.1203 C.3     1  UNL1        0.0301
      6 C          -0.1199    1.9484   24.5258 C.ar    1  UNL1       -0.0255
      7 C           0.6712    1.1570   25.5247 C.ar    1  UNL1       -0.0046
      8 C           0.4133    1.3299   26.9922 C.ar    1  UNL1       -0.0003
      9 C          -0.6356    2.2943   27.4608 C.ar    1  UNL1       -0.0003
     10 C          -1.4267    3.0857   26.4620 C.ar    1  UNL1       -0.0042
     11 C          -1.1688    2.9128   24.9945 C.ar    1  UNL1       -0.0217
     12 C          -2.0635    3.7933   24.1733 C.3     1  UNL1        0.0520
     13 C          -2.1303    3.9269   22.6808 C.ar    1  UNL1       -0.0218
     14 C          -3.1704    4.9249   22.2658 C.ar    1  UNL1       -0.0042
     15 C          -3.3990    5.2089   20.8108 C.ar    1  UNL1       -0.0003
     16 C          -2.5875    4.4950   19.7708 C.ar    1  UNL1       -0.0003
     17 C          -1.5473    3.4970   20.1857 C.ar    1  UNL1       -0.0046
     18 C          -1.3187    3.2129   21.6407 C.ar    1  UNL1       -0.0261
     19 C           0.8530    1.1645   21.7634 C.3     1  UNL1        0.0203
     20 C           4.2762   -1.9109   18.7206 C.3     1  UNL1        0.0393
     21 C           3.8357   -0.7398   17.8934 C.3     1  UNL1        0.0229
     22 C           2.8016    0.2076   18.4255 C.3     1  UNL1        0.0724
     23 N           2.2080   -0.0161   19.7848 N.3     1  UNL1       -0.2739
     24 C           2.6486   -1.1874   20.6120 C.3     1  UNL1        0.0724
     25 C           3.6826   -2.1347   20.0799 C.3     1  UNL1        0.0229
     26 O           5.1676   -4.3331   18.4228 O.co2   1  UNL1       -0.5492
     27 C           5.3103   -2.8583   18.1886 C.2     1  UNL1        0.0501
     28 O           6.4871   -2.3311   17.4223 O.co2   1  UNL1       -0.5492
@<TRIPOS>UNITY_ATOM_ATTR
26 1
charge -1
@<TRIPOS>BOND
     1    26    27   ar
     2    27    28   ar
     3    27    20    1
     4    20    21    1
     5    21    22    1
     6    22    23    1
     7    23     1    1
     8     1     2    1
     9     2     3    1
    10     4     3    1
    11     4     5    1
    12     5     6    1
    13     6     7   ar
    14     7     8   ar
    15     8     9   ar
    16     9    10   ar
    17    10    11   ar
    18    11    12    1
    19    12    13    1
    20    13    14   ar
    21    14    15   ar
    22    15    16   ar
    23    16    17   ar
    24    17    18   ar
    25     4    19    1
    26    23    24    1
    27    24    25    1
    28    25    20    1
    29    19     1    1
    30    18     4    1
    31    11     6   ar
    32    18    13   ar
@<TRIPOS>MOLECULE
*****
 28 32 0 0 0
SMALL
GASTEIGER

@<TRIPOS>ATOM
      1 C           4.2323   -1.2383   25.7186 C.3     1  UNL1        0.0578
      2 C           3.1799   -0.1705   25.6749 C.3     1  UNL1        0.0163
      3 C           2.6791   -0.0708   24.2645 C.3     1  UNL1        0.0058
      4 C           3.4220   -1.0770   23.4366 C.3     1  UNL1        0.0240
      5 C           4.2902   -2.1442   22.8387 C.3     1  UNL1        0.0301
      6 C           4.3444   -2.6180   21.4165 C.ar    1  UNL1       -0.0255
      7 C           5.3576   -3.7100   21.2409 C.ar    1  UNL1       -0.0046
      8 C           5.5703   -4.3255   19.8897 C.ar    1  UNL1       -0.0003
      9 C           4.7697   -3.8490   18.7141 C.ar    1  UNL1       -0.0003
     10 C           3.7565   -2.7570   18.8897 C.ar    1  UNL1       -0.0042
     11 C           3.5439   -2.1415   20.2409 C.ar    1  UNL1       -0.0217
     12 C           2.4914   -1.0736   20.1972 C.3     1  UNL1        0.0520
     13 C           1.9795   -0.2184   21.3182 C.ar    1  UNL1       -0.0218
     14 C           0.9194    0.7306   20.8435 C.ar    1  UNL1       -0.0042
     15 C           0.2734    1.6782   21.8104 C.ar    1  UNL1       -0.0003
     16 C           0.6876    1.6766   23.2520 C.ar    1  UNL1       -0.0003
     17 C           1.7477    0.7275   23.7268 C.ar    1  UNL1       -0.0046
     18 C           2.3937   -0.2200   22.7599 C.ar    1  UNL1       -0.0261
     19 C           4.3820   -1.7987   24.3353 C.3     1  UNL1        0.0203
     20 C           6.5363   -2.5337   29.3606 C.3     1  UNL1        0.0393
     21 C           6.8437   -3.1404   28.0237 C.3     1  UNL1        0.0229
     22 C           6.0757   -2.7087   26.8097 C.3     1  UNL1        0.0724
     23 N           5.0003   -1.6701   26.9326 N.3     1  UNL1       -0.2739
     24 C           4.6930   -1.0634   28.2696 C.3     1  UNL1        0.0724
     25 C           5.4609   -1.4951   29.4836 C.3     1  UNL1        0.0229
     26 O           8.6063   -2.3022   30.9135 O.co2   1  UNL1       -0.5492
     27 C           7.3043   -2.9654   30.5746 C.2     1  UNL1        0.0501
     28 O           6.7703   -4.0604   31.4497 O.co2   1  UNL1       -0.5492
@<TRIPOS>UNITY_ATOM_ATTR
26 1
charge -1
@<TRIPOS>BOND
     1    26    27   ar
     2    27    28   ar
     3    27    20    1
     4    20    21    1
     5    21    22    1
     6    22    23    1
     7    23     1    1
     8     1     2    1
     9     2     3    1
    10     4     3    1
    11     4     5    1
    12     5     6    1
    13     6     7   ar
    14     7     8   ar
    15     8     9   ar
    16     9    10   ar
    17    10    11   ar
    18    11    12    1
    19    12    13    1
    20    13    14   ar
    21    14    15   ar
    22    15    16   ar
    23    16    17   ar
    24    17    18   ar
    25     4    19    1
    26    23    24    1
    27    24    25    1
    28    25    20    1
    29    19     1    1
    30    18     4    1
    31    11     6   ar
    32    18    13   ar
@<TRIPOS>MOLECULE
*****
 28 32 0 0 0
SMALL
GASTEIGER

@<TRIPOS>ATOM
      1 C           0.7456    1.6183   21.0604 C.3     1  UNL1        0.0578
      2 C           0.8309    1.8820   22.5345 C.3     1  UNL1        0.0163
      3 C           1.7707    0.8770   23.1316 C.3     1  UNL1        0.0058
      4 C           2.2662   -0.0079   22.0264 C.3     1  UNL1        0.0240
      5 C           2.6061   -0.7413   20.7629 C.3     1  UNL1        0.0301
      6 C           3.5235   -1.9139   20.5799 C.ar    1  UNL1       -0.0255
      7 C           3.5823   -2.3450   19.1444 C.ar    1  UNL1       -0.0046
      8 C           4.4452   -3.5049   18.7444 C.ar    1  UNL1       -0.0003
      9 C           5.2493   -4.2337   19.7799 C.ar    1  UNL1       -0.0003
     10 C           5.1905   -3.8026   21.2154 C.ar    1  UNL1       -0.0042
     11 C           4.3276   -2.6427   21.6154 C.ar    1  UNL1       -0.0217
     12 C           4.4129   -2.3790   23.0896 C.3     1  UNL1        0.0520
     13 C           3.7152   -1.3213   23.8924 C.ar    1  UNL1       -0.0218
     14 C           4.0798   -1.4060   25.3449 C.ar    1  UNL1       -0.0042
     15 C           3.4890   -0.4355   26.3243 C.ar    1  UNL1       -0.0003
     16 C           2.5337    0.6196   25.8512 C.ar    1  UNL1       -0.0003
     17 C           2.1691    0.7044   24.3986 C.ar    1  UNL1       -0.0046
     18 C           2.7598   -0.2661   23.4192 C.ar    1  UNL1       -0.0261
     19 C           1.6327    0.4502   20.7463 C.3     1  UNL1        0.0203
     20 C          -1.7359    3.9262   18.0997 C.3     1  UNL1        0.0393
     21 C          -2.2253    3.7411   19.5055 C.3     1  UNL1        0.0229
     22 C          -1.3981    2.9718   20.4924 C.3     1  UNL1        0.0724
     23 N          -0.0816    2.3876   20.0735 N.3     1  UNL1       -0.2739
     24 C           0.4078    2.5728   18.6676 C.3     1  UNL1        0.0724
     25 C          -0.4193    3.3421   17.6808 C.3     1  UNL1        0.0229
     26 O          -2.0327    5.9671   16.5196 O.co2   1  UNL1       -0.5492
     27 C          -2.5631    4.6955   17.1128 C.2     1  UNL1        0.0501
     28 O          -3.9205    4.1934   16.7191 O.co2   1  UNL1       -0.5492
@<TRIPOS>UNITY_ATOM_ATTR
26 1
charge -1
@<TRIPOS>BOND
     1    26    27   ar
     2    27    28   ar
     3    27    20    1
     4    20    21    1
     5    21    22    1
     6    22    23    1
     7    23     1    1
     8     1     2    1
     9     2     3    1
    10     4     3    1
    11     4     5    1
    12     5     6    1
    13     6     7   ar
    14     7     8   ar
    15     8     9   ar
    16     9    10   ar
    17    10    11   ar
    18    11    12    1
    19    12    13    1
    20    13    14   ar
    21    14    15   ar
    22    15    16   ar
    23    16    17   ar
    24    17    18   ar
    25     4    19    1
    26    23    24    1
    27    24    25    1
    28    25    20    1
    29    19     1    1
    30    18     4    1
    31    11     6   ar
    32    18    13   ar
@<TRIPOS>MOLECULE
*****
 28 32 0 0 0
SMALL
GASTEIGER

@<TRIPOS>ATOM
      1 C           1.3990    0.8983   22.4043 C.3     1  UNL1        0.0578
      2 C           1.3140    1.0914   20.9193 C.3     1  UNL1        0.0163
      3 C           2.3327    0.1976   20.2766 C.3     1  UNL1        0.0058
      4 C           3.0473   -0.5480   21.3645 C.3     1  UNL1        0.0240
      5 C           3.6007   -1.1571   22.6186 C.3     1  UNL1        0.0301
      6 C           4.6908   -2.1776   22.7607 C.ar    1  UNL1       -0.0255
      7 C           4.9386   -2.5179   24.2004 C.ar    1  UNL1       -0.0046
      8 C           5.9924   -3.5218   24.5631 C.ar    1  UNL1       -0.0003
      9 C           6.7985   -4.1853   23.4860 C.ar    1  UNL1       -0.0003
     10 C           6.5507   -3.8450   22.0464 C.ar    1  UNL1       -0.0042
     11 C           5.4969   -2.8411   21.6837 C.ar    1  UNL1       -0.0217
     12 C           5.4119   -2.6480   20.1986 C.3     1  UNL1        0.0520
     13 C           4.4999   -1.7437   19.4237 C.ar    1  UNL1       -0.0218
     14 C           4.7425   -1.8547   17.9476 C.ar    1  UNL1       -0.0042
     15 C           3.9328   -1.0311   16.9904 C.ar    1  UNL1       -0.0003
     16 C           2.8806   -0.0966   17.5093 C.ar    1  UNL1       -0.0003
     17 C           2.6379    0.0144   18.9854 C.ar    1  UNL1       -0.0046
     18 C           3.4475   -0.8091   19.9426 C.ar    1  UNL1       -0.0261
     19 C           2.4702   -0.1149   22.6795 C.3     1  UNL1        0.0203
     20 C          -1.1180    2.9914   25.4921 C.3     1  UNL1        0.0393
     21 C          -0.2878    1.8040   25.8807 C.3     1  UNL1        0.0229
     22 C           0.5512    1.1064   24.8514 C.3     1  UNL1        0.0724
     23 N           0.5600    1.5960   23.4336 N.3     1  UNL1       -0.2739
     24 C          -0.2703    2.7834   23.0451 C.3     1  UNL1        0.0724
     25 C          -1.1092    3.4810   24.0742 C.3     1  UNL1        0.0229
     26 O          -1.3176    4.6348   27.4944 O.co2   1  UNL1       -0.5492
     27 C          -1.9570    3.6891   26.5213 C.2     1  UNL1        0.0501
     28 O          -3.4352    3.4411   26.5775 O.co2   1  UNL1       -0.5492
@<TRIPOS>UNITY_ATOM_ATTR
26 1
charge -1
@<TRIPOS>BOND
     1    26    27   ar
     2    27    28   ar
     3    27    20    1
     4    20    21    1
     5    21    22    1
     6    22    23    1
     7    23     1    1
     8     1     2    1
     9     2     3    1
    10     4     3    1
    11     4     5    1
    12     5     6    1
    13     6     7   ar
    14     7     8   ar
    15     8     9   ar
    16     9    10   ar
    17    10    11   ar
    18    11    12    1
    19    12    13    1
    20    13    14   ar
    21    14    15   ar
    22    15    16   ar
    23    16    17   ar
    24    17    18   ar
    25     4    19    1
    26    23    24    1
    27    24    25    1
    28    25    20    1
    29    19     1    1
    30    18     4    1
    31    11     6   ar
    32    18    13   ar
