@<TRIPOS>MOLECULE
*****
 35 39 0 0 0
SMALL
GASTEIGER

@<TRIPOS>ATOM
      1 C           8.8516   -5.0784   21.7062 C.3     1  UNL1        0.0327
      2 C           7.8130   -4.0177   21.9212 C.ar    1  UNL1       -0.0026
      3 C           7.1812   -3.3369   20.7434 C.ar    1  UNL1       -0.0026
      4 C           6.1426   -2.2762   20.9584 C.ar    1  UNL1        0.0030
      5 C           5.7358   -1.8962   22.3513 C.ar    1  UNL1        0.0225
      6 C           6.3677   -2.5770   23.5292 C.ar    1  UNL1        0.1203
      7 N           5.9609   -2.1971   24.9221 N.ar    1  UNL1       -0.1437
      8 N           6.5927   -2.8779   26.0999 N.ar    1  UNL1       -0.1123
      9 C           7.6312   -3.9386   25.8849 C.ar    1  UNL1        0.2398
     10 N           8.0380   -4.3185   24.4920 N.ar    1  UNL1       -0.2111
     11 C           7.4062   -3.6377   23.3142 C.ar    1  UNL1        0.0996
     12 C           5.5108   -1.5954   19.7805 C.ar    1  UNL1        0.0212
     13 C           6.0659   -0.2952   19.2792 C.ar    1  UNL1        0.0585
     14 CL          7.2527    0.3243   19.9557 Cl      1  UNL1       -0.0822
     15 C           5.4341    0.3855   18.1013 C.ar    1  UNL1        0.0114
     16 C           4.2472   -0.2339   17.4248 C.ar    1  UNL1        0.0017
     17 C           3.6922   -1.5341   17.9262 C.ar    1  UNL1        0.0114
     18 C           4.3240   -2.2148   19.1040 C.ar    1  UNL1        0.0585
     19 CL          3.7689   -3.5151   19.6054 Cl      1  UNL1       -0.0822
     20 N           8.2631   -4.6194   27.0628 N.pl3   1  UNL1       -0.2813
     21 H           8.7234   -4.0864   27.7507 H       1  UNL1        0.1551
     22 C           8.1934   -6.1121   27.1925 C.ar    1  UNL1        0.0507
     23 C           7.1887   -6.8883   26.3937 C.ar    1  UNL1        0.0178
     24 C           7.1191   -8.3811   26.5234 C.ar    1  UNL1        0.0382
     25 C           8.0541   -9.0976   27.4520 C.ar    1  UNL1        0.1387
     26 C           9.0588   -8.3214   28.2509 C.ar    1  UNL1        0.0382
     27 C           9.1284   -6.8287   28.1212 C.ar    1  UNL1        0.0178
     28 O           7.9845  -10.5904   27.5817 O.3     1  UNL1       -0.4740
     29 C           6.8643  -11.2248   28.3516 C.3     1  UNL1        0.2226
     30 C           6.2670  -12.5171   27.8789 C.3     1  UNL1        0.1200
     31 N           4.8101  -12.7958   28.1016 N.3     1  UNL1       -0.2696
     32 C           3.9505  -13.7071   27.2767 C.3     1  UNL1        0.0722
     33 C           2.5660  -13.6866   27.8536 C.3     1  UNL1        0.0188
     34 C           2.5700  -12.7626   29.0352 C.3     1  UNL1        0.0188
     35 C           3.9569  -12.2120   29.1886 C.3     1  UNL1        0.0722
@<TRIPOS>BOND
     1     1     2    1
     2     2     3   ar
     3     3     4   ar
     4     4    12    1
     5    12    13   ar
     6    13    14    1
     7    13    15   ar
     8    15    16   ar
     9    16    17   ar
    10    17    18   ar
    11    18    19    1
    12     4     5   ar
    13     5     6   ar
    14     6     7   ar
    15     7     8   ar
    16     8     9   ar
    17     9    20    1
    18    20    22    1
    19    22    23   ar
    20    23    24   ar
    21    24    25   ar
    22    25    28    1
    23    28    29    1
    24    29    30    1
    25    30    31    1
    26    31    32    1
    27    32    33    1
    28    33    34    1
    29    34    35    1
    30    25    26   ar
    31    26    27   ar
    32     9    10   ar
    33    10    11   ar
    34    11     2   ar
    35    18    12   ar
    36    11     6   ar
    37    27    22   ar
    38    35    31    1
    39    20    21    1
@<TRIPOS>MOLECULE
*****
 35 39 0 0 0
SMALL
GASTEIGER

@<TRIPOS>ATOM
      1 C           0.0069    1.1664   20.3152 C.3     1  UNL1        0.0327
      2 C           1.2805    0.6293   20.8979 C.ar    1  UNL1       -0.0026
      3 C           2.3363    0.0607   19.9968 C.ar    1  UNL1       -0.0026
      4 C           3.6099   -0.4764   20.5795 C.ar    1  UNL1        0.0030
      5 C           3.8277   -0.4449   22.0632 C.ar    1  UNL1        0.0225
      6 C           2.7719    0.1237   22.9644 C.ar    1  UNL1        0.1203
      7 N           2.9897    0.1553   24.4481 N.ar    1  UNL1       -0.1437
      8 N           1.9339    0.7239   25.3492 N.ar    1  UNL1       -0.1123
      9 C           0.6603    1.2610   24.7665 C.ar    1  UNL1        0.2398
     10 N           0.4425    1.2295   23.2828 N.ar    1  UNL1       -0.2111
     11 C           1.4983    0.6608   22.3817 C.ar    1  UNL1        0.0996
     12 C           4.6657   -1.0451   19.6784 C.ar    1  UNL1        0.0212
     13 C           4.5368   -2.4484   19.1645 C.ar    1  UNL1        0.0585
     14 CL          3.3522   -3.2831   19.5517 Cl      1  UNL1       -0.0822
     15 C           5.5926   -3.0169   18.2634 C.ar    1  UNL1        0.0114
     16 C           6.7772   -2.1822   17.8762 C.ar    1  UNL1        0.0017
     17 C           6.9061   -0.7790   18.3901 C.ar    1  UNL1        0.0114
     18 C           5.8503   -0.2104   19.2912 C.ar    1  UNL1        0.0585
     19 CL          5.9791    1.1930   19.8051 Cl      1  UNL1       -0.0822
     20 N          -0.3955    1.8296   25.6676 N.pl3   1  UNL1       -0.2813
     21 H          -1.2225    2.2009   25.2838 H       1  UNL1        0.1551
     22 C          -0.1911    1.8326   27.1536 C.ar    1  UNL1        0.0507
     23 C          -0.6024    0.6431   27.9696 C.ar    1  UNL1        0.0178
     24 C          -0.3980    0.6461   29.4557 C.ar    1  UNL1        0.0382
     25 C           0.2176    1.8386   30.1257 C.ar    1  UNL1        0.1387
     26 C           0.6288    3.0281   29.3097 C.ar    1  UNL1        0.0382
     27 C           0.4245    3.0252   27.8237 C.ar    1  UNL1        0.0178
     28 O           0.4219    1.8416   31.6117 O.3     1  UNL1       -0.4740
     29 C           1.7966    1.6487   32.1801 C.3     1  UNL1        0.2226
     30 C           2.7546    0.7012   31.5208 C.3     1  UNL1        0.1200
     31 N           3.5281   -0.2808   32.3498 N.3     1  UNL1       -0.2696
     32 C           4.0598   -1.6033   31.8824 C.3     1  UNL1        0.0722
     33 C           4.7660   -2.2527   33.0355 C.3     1  UNL1        0.0188
     34 C           4.6709   -1.3316   34.2155 C.3     1  UNL1        0.0188
     35 C           3.9058   -0.1128   33.7918 C.3     1  UNL1        0.0722
@<TRIPOS>BOND
     1     1     2    1
     2     2     3   ar
     3     3     4   ar
     4     4    12    1
     5    12    13   ar
     6    13    14    1
     7    13    15   ar
     8    15    16   ar
     9    16    17   ar
    10    17    18   ar
    11    18    19    1
    12     4     5   ar
    13     5     6   ar
    14     6     7   ar
    15     7     8   ar
    16     8     9   ar
    17     9    20    1
    18    20    22    1
    19    22    23   ar
    20    23    24   ar
    21    24    25   ar
    22    25    28    1
    23    28    29    1
    24    29    30    1
    25    30    31    1
    26    31    32    1
    27    32    33    1
    28    33    34    1
    29    34    35    1
    30    25    26   ar
    31    26    27   ar
    32     9    10   ar
    33    10    11   ar
    34    11     2   ar
    35    18    12   ar
    36    11     6   ar
    37    27    22   ar
    38    35    31    1
    39    20    21    1
@<TRIPOS>MOLECULE
*****
 35 39 0 0 0
SMALL
GASTEIGER

@<TRIPOS>ATOM
      1 C          -1.4413   -0.4844   29.1244 C.3     1  UNL1        0.0327
      2 C          -0.6259    0.6139   28.5088 C.ar    1  UNL1       -0.0026
      3 C          -0.6501    0.8238   27.0238 C.ar    1  UNL1       -0.0026
      4 C           0.1653    1.9220   26.4082 C.ar    1  UNL1        0.0030
      5 C           1.0048    2.8104   27.2776 C.ar    1  UNL1        0.0225
      6 C           1.0290    2.6005   28.7627 C.ar    1  UNL1        0.1203
      7 N           1.8685    3.4889   29.6321 N.ar    1  UNL1       -0.1437
      8 N           1.8927    3.2790   31.1171 N.ar    1  UNL1       -0.1123
      9 C           1.0773    2.1807   31.7327 C.ar    1  UNL1        0.2398
     10 N           0.2378    1.2924   30.8633 N.ar    1  UNL1       -0.2111
     11 C           0.2136    1.5023   29.3783 C.ar    1  UNL1        0.0996
     12 C           0.1411    2.1319   24.9231 C.ar    1  UNL1        0.0212
     13 C          -0.8450    3.0856   24.3164 C.ar    1  UNL1        0.0585
     14 CL         -1.8069    3.8294   25.1947 Cl      1  UNL1       -0.0822
     15 C          -0.8691    3.2954   22.8314 C.ar    1  UNL1        0.0114
     16 C           0.0928    2.5516   21.9531 C.ar    1  UNL1        0.0017
     17 C           1.0789    1.5979   22.5598 C.ar    1  UNL1        0.0114
     18 C           1.1030    1.3881   24.0448 C.ar    1  UNL1        0.0585
     19 CL          2.0892    0.4344   24.6516 Cl      1  UNL1       -0.0822
     20 N           1.1015    1.9709   33.2178 N.pl3   1  UNL1       -0.2813
     21 H           0.2935    1.6556   33.6837 H       1  UNL1        0.1551
     22 C           2.3568    2.2412   33.9931 C.ar    1  UNL1        0.0507
     23 C           2.4893    3.5060   34.7886 C.ar    1  UNL1        0.0178
     24 C           3.7446    3.7764   35.5639 C.ar    1  UNL1        0.0382
     25 C           4.8674    2.7820   35.5438 C.ar    1  UNL1        0.1387
     26 C           4.7349    1.5171   34.7484 C.ar    1  UNL1        0.0382
     27 C           3.4796    1.2468   33.9731 C.ar    1  UNL1        0.0178
     28 O           6.1227    3.0523   36.3191 O.3     1  UNL1       -0.4740
     29 C           6.3793    2.3279   37.6072 C.3     1  UNL1        0.2226
     30 C           5.5481    2.6332   38.8180 C.3     1  UNL1        0.1200
     31 N           4.0807    2.3222   38.8181 N.3     1  UNL1       -0.2696
     32 C           3.4602    0.9968   38.4888 C.3     1  UNL1        0.0722
     33 C           1.9722    1.1375   38.6147 C.3     1  UNL1        0.0188
     34 C           1.6729    2.5498   39.0218 C.3     1  UNL1        0.0188
     35 C           2.9760    3.2821   39.1475 C.3     1  UNL1        0.0722
@<TRIPOS>BOND
     1     1     2    1
     2     2     3   ar
     3     3     4   ar
     4     4    12    1
     5    12    13   ar
     6    13    14    1
     7    13    15   ar
     8    15    16   ar
     9    16    17   ar
    10    17    18   ar
    11    18    19    1
    12     4     5   ar
    13     5     6   ar
    14     6     7   ar
    15     7     8   ar
    16     8     9   ar
    17     9    20    1
    18    20    22    1
    19    22    23   ar
    20    23    24   ar
    21    24    25   ar
    22    25    28    1
    23    28    29    1
    24    29    30    1
    25    30    31    1
    26    31    32    1
    27    32    33    1
    28    33    34    1
    29    34    35    1
    30    25    26   ar
    31    26    27   ar
    32     9    10   ar
    33    10    11   ar
    34    11     2   ar
    35    18    12   ar
    36    11     6   ar
    37    27    22   ar
    38    35    31    1
    39    20    21    1
@<TRIPOS>MOLECULE
*****
 35 39 0 0 0
SMALL
GASTEIGER

@<TRIPOS>ATOM
      1 C           1.3436    5.1414   29.2053 C.3     1  UNL1        0.0327
      2 C           0.6985    3.9864   28.4982 C.ar    1  UNL1       -0.0026
      3 C          -0.1361    4.2271   27.2753 C.ar    1  UNL1       -0.0026
      4 C          -0.7811    3.0721   26.5682 C.ar    1  UNL1        0.0030
      5 C          -0.5915    1.6764   27.0840 C.ar    1  UNL1        0.0225
      6 C           0.2432    1.4357   28.3069 C.ar    1  UNL1        0.1203
      7 N           0.4328    0.0400   28.8227 N.ar    1  UNL1       -0.1437
      8 N           1.2674   -0.2007   30.0456 N.ar    1  UNL1       -0.1123
      9 C           1.9124    0.9543   30.7527 C.ar    1  UNL1        0.2398
     10 N           1.7228    2.3499   30.2369 N.ar    1  UNL1       -0.2111
     11 C           0.8882    2.5906   29.0140 C.ar    1  UNL1        0.0996
     12 C          -1.6157    3.3129   25.3453 C.ar    1  UNL1        0.0212
     13 C          -3.0742    3.6346   25.4841 C.ar    1  UNL1        0.0585
     14 CL         -3.6981    3.7156   26.8458 Cl      1  UNL1       -0.0822
     15 C          -3.9088    3.8754   24.2612 C.ar    1  UNL1        0.0114
     16 C          -3.2849    3.7944   22.8995 C.ar    1  UNL1        0.0017
     17 C          -1.8264    3.4727   22.7607 C.ar    1  UNL1        0.0114
     18 C          -0.9918    3.2319   23.9836 C.ar    1  UNL1        0.0585
     19 CL          0.4667    2.9102   23.8449 Cl      1  UNL1       -0.0822
     20 N           2.7470    0.7135   31.9756 N.pl3   1  UNL1       -0.2813
     21 H           2.6321    1.2835   32.7700 H       1  UNL1        0.1551
     22 C           3.7567   -0.3957   31.9881 C.ar    1  UNL1        0.0507
     23 C           4.6125   -0.6445   30.7816 C.ar    1  UNL1        0.0178
     24 C           5.6223   -1.7538   30.7941 C.ar    1  UNL1        0.0382
     25 C           5.7761   -2.6142   32.0131 C.ar    1  UNL1        0.1387
     26 C           4.9202   -2.3654   33.2196 C.ar    1  UNL1        0.0382
     27 C           3.9106   -1.2562   33.2071 C.ar    1  UNL1        0.0178
     28 O           6.7857   -3.7234   32.0255 O.3     1  UNL1       -0.4740
     29 C           7.4050   -4.1884   30.7409 C.3     1  UNL1        0.2226
     30 C           7.4051   -5.6476   30.3934 C.3     1  UNL1        0.1200
     31 N           7.3502   -6.0765   28.9571 N.3     1  UNL1       -0.2696
     32 C           6.4848   -5.4750   27.8897 C.3     1  UNL1        0.0722
     33 C           6.7508   -6.2090   26.6089 C.3     1  UNL1        0.0188
     34 C           7.7807   -7.2641   26.8846 C.3     1  UNL1        0.0188
     35 C           8.1512   -7.1823   28.3359 C.3     1  UNL1        0.0722
@<TRIPOS>BOND
     1     1     2    1
     2     2     3   ar
     3     3     4   ar
     4     4    12    1
     5    12    13   ar
     6    13    14    1
     7    13    15   ar
     8    15    16   ar
     9    16    17   ar
    10    17    18   ar
    11    18    19    1
    12     4     5   ar
    13     5     6   ar
    14     6     7   ar
    15     7     8   ar
    16     8     9   ar
    17     9    20    1
    18    20    22    1
    19    22    23   ar
    20    23    24   ar
    21    24    25   ar
    22    25    28    1
    23    28    29    1
    24    29    30    1
    25    30    31    1
    26    31    32    1
    27    32    33    1
    28    33    34    1
    29    34    35    1
    30    25    26   ar
    31    26    27   ar
    32     9    10   ar
    33    10    11   ar
    34    11     2   ar
    35    18    12   ar
    36    11     6   ar
    37    27    22   ar
    38    35    31    1
    39    20    21    1
@<TRIPOS>MOLECULE
*****
 35 39 0 0 0
SMALL
GASTEIGER

@<TRIPOS>ATOM
      1 C           5.3786   -1.5784   28.4501 C.3     1  UNL1        0.0327
      2 C           5.9642   -2.1355   29.7137 C.ar    1  UNL1       -0.0026
      3 C           6.0335   -1.2847   30.9471 C.ar    1  UNL1       -0.0026
      4 C           6.6192   -1.8418   32.2106 C.ar    1  UNL1        0.0030
      5 C           7.1355   -3.2498   32.2408 C.ar    1  UNL1        0.0225
      6 C           7.0662   -4.1007   31.0074 C.ar    1  UNL1        0.1203
      7 N           7.5826   -5.5087   31.0376 N.ar    1  UNL1       -0.1437
      8 N           7.5133   -6.3595   29.8042 N.ar    1  UNL1       -0.1123
      9 C           6.9276   -5.8023   28.5407 C.ar    1  UNL1        0.2398
     10 N           6.4113   -4.3944   28.5105 N.ar    1  UNL1       -0.2111
     11 C           6.4806   -3.5436   29.7438 C.ar    1  UNL1        0.0996
     12 C           6.6885   -0.9909   33.4440 C.ar    1  UNL1        0.0212
     13 C           7.9145   -0.1730   33.7230 C.ar    1  UNL1        0.0585
     14 CL          9.0712   -0.2059   32.7687 Cl      1  UNL1       -0.0822
     15 C           7.9837    0.6778   34.9564 C.ar    1  UNL1        0.0114
     16 C           6.8270    0.7107   35.9108 C.ar    1  UNL1        0.0017
     17 C           5.6010   -0.1072   35.6318 C.ar    1  UNL1        0.0114
     18 C           5.5317   -0.9580   34.3984 C.ar    1  UNL1        0.0585
     19 CL          4.3057   -1.7760   34.1194 Cl      1  UNL1       -0.0822
     20 N           6.8583   -6.6533   27.3072 N.pl3   1  UNL1       -0.2813
     21 H           6.5684   -7.5918   27.3724 H       1  UNL1        0.1551
     22 C           7.2308   -6.0741   25.9747 C.ar    1  UNL1        0.0507
     23 C           8.0162   -6.8934   24.9939 C.ar    1  UNL1        0.0178
     24 C           8.3886   -6.3142   23.6612 C.ar    1  UNL1        0.0382
     25 C           7.9757   -4.9158   23.3094 C.ar    1  UNL1        0.1387
     26 C           7.1904   -4.0965   24.2902 C.ar    1  UNL1        0.0382
     27 C           6.8179   -4.6756   25.6228 C.ar    1  UNL1        0.0178
     28 O           8.3482   -4.3366   21.9768 O.3     1  UNL1       -0.4740
     29 C           7.6367   -3.1205   21.4623 C.3     1  UNL1        0.2226
     30 C           7.1240   -3.0918   20.0528 C.3     1  UNL1        0.1200
     31 N           5.6532   -3.2184   19.7871 N.3     1  UNL1       -0.2696
     32 C           4.6360   -2.1238   19.9188 C.3     1  UNL1        0.0722
     33 C           3.2954   -2.6907   19.5561 C.3     1  UNL1        0.0188
     34 C           3.4841   -4.1356   19.2002 C.3     1  UNL1        0.0188
     35 C           4.9413   -4.4618   19.3429 C.3     1  UNL1        0.0722
@<TRIPOS>BOND
     1     1     2    1
     2     2     3   ar
     3     3     4   ar
     4     4    12    1
     5    12    13   ar
     6    13    14    1
     7    13    15   ar
     8    15    16   ar
     9    16    17   ar
    10    17    18   ar
    11    18    19    1
    12     4     5   ar
    13     5     6   ar
    14     6     7   ar
    15     7     8   ar
    16     8     9   ar
    17     9    20    1
    18    20    22    1
    19    22    23   ar
    20    23    24   ar
    21    24    25   ar
    22    25    28    1
    23    28    29    1
    24    29    30    1
    25    30    31    1
    26    31    32    1
    27    32    33    1
    28    33    34    1
    29    34    35    1
    30    25    26   ar
    31    26    27   ar
    32     9    10   ar
    33    10    11   ar
    34    11     2   ar
    35    18    12   ar
    36    11     6   ar
    37    27    22   ar
    38    35    31    1
    39    20    21    1
@<TRIPOS>MOLECULE
*****
 35 39 0 0 0
SMALL
GASTEIGER

@<TRIPOS>ATOM
      1 C          -1.2641   -0.5445   29.0832 C.3     1  UNL1        0.0327
      2 C          -0.7593    0.7783   28.5878 C.ar    1  UNL1       -0.0026
      3 C          -1.3230    1.3734   27.3317 C.ar    1  UNL1       -0.0026
      4 C          -0.8182    2.6962   26.8363 C.ar    1  UNL1        0.0030
      5 C           0.2503    3.4238   27.5970 C.ar    1  UNL1        0.0225
      6 C           0.8141    2.8287   28.8532 C.ar    1  UNL1        0.1203
      7 N           1.8826    3.5563   29.6140 N.ar    1  UNL1       -0.1437
      8 N           2.4463    2.9612   30.8701 N.ar    1  UNL1       -0.1123
      9 C           1.9415    1.6384   31.3655 C.ar    1  UNL1        0.2398
     10 N           0.8730    0.9108   30.6048 N.ar    1  UNL1       -0.2111
     11 C           0.3093    1.5059   29.3486 C.ar    1  UNL1        0.0996
     12 C          -1.3820    3.2914   25.5800 C.ar    1  UNL1        0.0212
     13 C          -2.6218    4.1336   25.6399 C.ar    1  UNL1        0.0585
     14 CL         -3.2978    4.3807   26.9559 Cl      1  UNL1       -0.0822
     15 C          -3.1855    4.7287   24.3837 C.ar    1  UNL1        0.0114
     16 C          -2.5095    4.4815   23.0677 C.ar    1  UNL1        0.0017
     17 C          -1.2697    3.6393   23.0078 C.ar    1  UNL1        0.0114
     18 C          -0.7060    3.0442   24.2640 C.ar    1  UNL1        0.0585
     19 CL          0.5338    2.2019   24.2042 Cl      1  UNL1       -0.0822
     20 N           2.5053    1.0433   32.6217 N.pl3   1  UNL1       -0.2813
     21 H           2.1728    1.3403   33.4995 H       1  UNL1        0.1551
     22 C           3.5758   -0.0044   32.5406 C.ar    1  UNL1        0.0507
     23 C           4.0374   -0.7030   33.7851 C.ar    1  UNL1        0.0178
     24 C           5.1078   -1.7507   33.7039 C.ar    1  UNL1        0.0382
     25 C           5.7167   -2.0997   32.3782 C.ar    1  UNL1        0.1387
     26 C           5.2551   -1.4010   31.1337 C.ar    1  UNL1        0.0382
     27 C           4.1847   -0.3534   31.2149 C.ar    1  UNL1        0.0178
     28 O           6.7871   -3.1473   32.2971 O.3     1  UNL1       -0.4740
     29 C           6.6402   -4.2975   31.3455 C.3     1  UNL1        0.2226
     30 C           7.7834   -4.6846   30.4547 C.3     1  UNL1        0.1200
     31 N           7.5173   -5.3807   29.1529 N.3     1  UNL1       -0.2696
     32 C           6.4577   -5.0131   28.1570 C.3     1  UNL1        0.0722
     33 C           6.5497   -5.9718   27.0070 C.3     1  UNL1        0.0188
     34 C           7.6663   -6.9319   27.2922 C.3     1  UNL1        0.0188
     35 C           8.2644   -6.5667   28.6185 C.3     1  UNL1        0.0722
@<TRIPOS>BOND
     1     1     2    1
     2     2     3   ar
     3     3     4   ar
     4     4    12    1
     5    12    13   ar
     6    13    14    1
     7    13    15   ar
     8    15    16   ar
     9    16    17   ar
    10    17    18   ar
    11    18    19    1
    12     4     5   ar
    13     5     6   ar
    14     6     7   ar
    15     7     8   ar
    16     8     9   ar
    17     9    20    1
    18    20    22    1
    19    22    23   ar
    20    23    24   ar
    21    24    25   ar
    22    25    28    1
    23    28    29    1
    24    29    30    1
    25    30    31    1
    26    31    32    1
    27    32    33    1
    28    33    34    1
    29    34    35    1
    30    25    26   ar
    31    26    27   ar
    32     9    10   ar
    33    10    11   ar
    34    11     2   ar
    35    18    12   ar
    36    11     6   ar
    37    27    22   ar
    38    35    31    1
    39    20    21    1
@<TRIPOS>MOLECULE
*****
 35 39 0 0 0
SMALL
GASTEIGER

@<TRIPOS>ATOM
      1 C           3.8084   -1.2650   25.2030 C.3     1  UNL1        0.0327
      2 C           3.5614   -0.7944   23.8003 C.ar    1  UNL1       -0.0026
      3 C           4.4390   -1.2744   22.6826 C.ar    1  UNL1       -0.0026
      4 C           4.1919   -0.8037   21.2800 C.ar    1  UNL1        0.0030
      5 C           3.0672    0.1469   20.9950 C.ar    1  UNL1        0.0225
      6 C           2.1895    0.6270   22.1128 C.ar    1  UNL1        0.1203
      7 N           1.0649    1.5777   21.8278 N.ar    1  UNL1       -0.1437
      8 N           0.1872    2.0577   22.9455 N.ar    1  UNL1       -0.1123
      9 C           0.4343    1.5871   24.3482 C.ar    1  UNL1        0.2398
     10 N           1.5590    0.6364   24.6331 N.ar    1  UNL1       -0.2111
     11 C           2.4366    0.1564   23.5154 C.ar    1  UNL1        0.0996
     12 C           5.0696   -1.2838   20.1623 C.ar    1  UNL1        0.0212
     13 C           6.3478   -0.5636   19.8501 C.ar    1  UNL1        0.0585
     14 CL          6.7483    0.6367   20.6555 Cl      1  UNL1       -0.0822
     15 C           7.2254   -1.0437   18.7324 C.ar    1  UNL1        0.0114
     16 C           6.8248   -2.2440   17.9269 C.ar    1  UNL1        0.0017
     17 C           5.5467   -2.9642   18.2391 C.ar    1  UNL1        0.0114
     18 C           4.6691   -2.4841   19.3568 C.ar    1  UNL1        0.0585
     19 CL          3.3908   -3.2044   19.6690 Cl      1  UNL1       -0.0822
     20 N          -0.4434    2.0672   25.4659 N.pl3   1  UNL1       -0.2813
     21 H          -1.2795    2.5463   25.2642 H       1  UNL1        0.1551
     22 C          -0.0472    1.8172   26.8909 C.ar    1  UNL1        0.0507
     23 C          -0.5935    0.6279   27.6236 C.ar    1  UNL1        0.0178
     24 C          -0.1973    0.3780   29.0487 C.ar    1  UNL1        0.0382
     25 C           0.7452    1.3174   29.7409 C.ar    1  UNL1        0.1387
     26 C           1.2914    2.5068   29.0081 C.ar    1  UNL1        0.0382
     27 C           0.8953    2.7567   27.5831 C.ar    1  UNL1        0.0178
     28 O           1.1413    1.0675   31.1658 O.3     1  UNL1       -0.4740
     29 C           2.5418    1.3592   31.6171 C.3     1  UNL1        0.2226
     30 C           3.0994    0.6683   32.8262 C.3     1  UNL1        0.1200
     31 N           3.9885   -0.5287   32.6625 N.3     1  UNL1       -0.2696
     32 C           4.3118   -1.5385   33.7236 C.3     1  UNL1        0.0722
     33 C           5.2336   -2.5599   33.1259 C.3     1  UNL1        0.0188
     34 C           5.4799   -2.1814   31.6955 C.3     1  UNL1        0.0188
     35 C           4.7104   -0.9260   31.4091 C.3     1  UNL1        0.0722
@<TRIPOS>BOND
     1     1     2    1
     2     2     3   ar
     3     3     4   ar
     4     4    12    1
     5    12    13   ar
     6    13    14    1
     7    13    15   ar
     8    15    16   ar
     9    16    17   ar
    10    17    18   ar
    11    18    19    1
    12     4     5   ar
    13     5     6   ar
    14     6     7   ar
    15     7     8   ar
    16     8     9   ar
    17     9    20    1
    18    20    22    1
    19    22    23   ar
    20    23    24   ar
    21    24    25   ar
    22    25    28    1
    23    28    29    1
    24    29    30    1
    25    30    31    1
    26    31    32    1
    27    32    33    1
    28    33    34    1
    29    34    35    1
    30    25    26   ar
    31    26    27   ar
    32     9    10   ar
    33    10    11   ar
    34    11     2   ar
    35    18    12   ar
    36    11     6   ar
    37    27    22   ar
    38    35    31    1
    39    20    21    1
@<TRIPOS>MOLECULE
*****
 35 39 0 0 0
SMALL
GASTEIGER

@<TRIPOS>ATOM
      1 C           6.7155    0.7466   22.7331 C.3     1  UNL1        0.0327
      2 C           5.5250    0.0752   22.1151 C.ar    1  UNL1       -0.0026
      3 C           4.3281    0.8873   21.7180 C.ar    1  UNL1       -0.0026
      4 C           3.1376    0.2159   21.1000 C.ar    1  UNL1        0.0030
      5 C           3.1440   -1.2677   20.8792 C.ar    1  UNL1        0.0225
      6 C           4.3409   -2.0800   21.2763 C.ar    1  UNL1        0.1203
      7 N           4.3473   -3.5636   21.0555 N.ar    1  UNL1       -0.1437
      8 N           5.5442   -4.3757   21.4527 N.ar    1  UNL1       -0.1123
      9 C           6.7347   -3.7043   22.0706 C.ar    1  UNL1        0.2398
     10 N           6.7283   -2.2207   22.2915 N.ar    1  UNL1       -0.2111
     11 C           5.5314   -1.4085   21.8943 C.ar    1  UNL1        0.0996
     12 C           1.9407    1.0282   20.7029 C.ar    1  UNL1        0.0212
     13 C           0.9128    1.4007   21.7298 C.ar    1  UNL1        0.0585
     14 CL          1.0818    0.9611   23.1539 Cl      1  UNL1       -0.0822
     15 C          -0.2840    2.2129   21.3326 C.ar    1  UNL1        0.0114
     16 C          -0.4531    2.6526   19.9085 C.ar    1  UNL1        0.0017
     17 C           0.5748    2.2800   18.8815 C.ar    1  UNL1        0.0114
     18 C           1.7716    1.4678   19.2787 C.ar    1  UNL1        0.0585
     19 CL          2.7996    1.0952   18.2517 Cl      1  UNL1       -0.0822
     20 N           7.9317   -4.5166   22.4678 N.pl3   1  UNL1       -0.2813
     21 H           8.7601   -4.4636   21.9385 H       1  UNL1        0.1551
     22 C           7.8664   -5.4094   23.6713 C.ar    1  UNL1        0.0507
     23 C           7.1526   -4.9501   24.9081 C.ar    1  UNL1        0.0178
     24 C           7.0873   -5.8431   26.1116 C.ar    1  UNL1        0.0382
     25 C           7.7357   -7.1952   26.0784 C.ar    1  UNL1        0.1387
     26 C           8.4495   -7.6545   24.8416 C.ar    1  UNL1        0.0382
     27 C           8.5148   -6.7617   23.6381 C.ar    1  UNL1        0.0178
     28 O           7.6704   -8.0881   27.2819 O.3     1  UNL1       -0.4740
     29 C           8.8240   -8.1422   28.2391 C.3     1  UNL1        0.2226
     30 C           9.4776   -6.8725   28.6985 C.3     1  UNL1        0.1200
     31 N           8.7706   -5.9738   29.6692 N.3     1  UNL1       -0.2696
     32 C           9.4190   -4.9633   30.5683 C.3     1  UNL1        0.0722
     33 C           8.3402   -4.2926   31.3661 C.3     1  UNL1        0.0188
     34 C           7.0250   -4.8886   30.9600 C.3     1  UNL1        0.0188
     35 C           7.2909   -5.9276   29.9113 C.3     1  UNL1        0.0722
@<TRIPOS>BOND
     1     1     2    1
     2     2     3   ar
     3     3     4   ar
     4     4    12    1
     5    12    13   ar
     6    13    14    1
     7    13    15   ar
     8    15    16   ar
     9    16    17   ar
    10    17    18   ar
    11    18    19    1
    12     4     5   ar
    13     5     6   ar
    14     6     7   ar
    15     7     8   ar
    16     8     9   ar
    17     9    20    1
    18    20    22    1
    19    22    23   ar
    20    23    24   ar
    21    24    25   ar
    22    25    28    1
    23    28    29    1
    24    29    30    1
    25    30    31    1
    26    31    32    1
    27    32    33    1
    28    33    34    1
    29    34    35    1
    30    25    26   ar
    31    26    27   ar
    32     9    10   ar
    33    10    11   ar
    34    11     2   ar
    35    18    12   ar
    36    11     6   ar
    37    27    22   ar
    38    35    31    1
    39    20    21    1
@<TRIPOS>MOLECULE
*****
 35 39 0 0 0
SMALL
GASTEIGER

@<TRIPOS>ATOM
      1 C           4.6105   -2.5757   33.5684 C.3     1  UNL1        0.0327
      2 C           4.3949   -1.1244   33.8802 C.ar    1  UNL1       -0.0026
      3 C           4.9290   -0.5441   35.1561 C.ar    1  UNL1       -0.0026
      4 C           4.7134    0.9072   35.4679 C.ar    1  UNL1        0.0030
      5 C           3.9636    1.7781   34.5040 C.ar    1  UNL1        0.0225
      6 C           3.4294    1.1978   33.2281 C.ar    1  UNL1        0.1203
      7 N           2.6795    2.0687   32.2642 N.ar    1  UNL1       -0.1437
      8 N           2.1453    1.4883   30.9883 N.ar    1  UNL1       -0.1123
      9 C           2.3610    0.0370   30.6765 C.ar    1  UNL1        0.2398
     10 N           3.1108   -0.8339   31.6404 N.ar    1  UNL1       -0.2111
     11 C           3.6450   -0.2535   32.9162 C.ar    1  UNL1        0.0996
     12 C           5.2477    1.4876   36.7438 C.ar    1  UNL1        0.0212
     13 C           4.3531    1.6180   37.9408 C.ar    1  UNL1        0.0585
     14 CL          2.9244    1.1681   37.8620 Cl      1  UNL1       -0.0822
     15 C           4.8874    2.1983   39.2166 C.ar    1  UNL1        0.0114
     16 C           6.3162    2.6483   39.2955 C.ar    1  UNL1        0.0017
     17 C           7.2107    2.5178   38.0985 C.ar    1  UNL1        0.0114
     18 C           6.6764    1.9375   36.8227 C.ar    1  UNL1        0.0585
     19 CL          7.5709    1.8071   35.6256 Cl      1  UNL1       -0.0822
     20 N           1.8267   -0.5434   29.4006 N.pl3   1  UNL1       -0.2813
     21 H           2.0706   -1.4599   29.1366 H       1  UNL1        0.1551
     22 C           0.9210    0.2728   28.5268 C.ar    1  UNL1        0.0507
     23 C           1.4518    0.8932   27.2685 C.ar    1  UNL1        0.0178
     24 C           0.5459    1.7094   26.3948 C.ar    1  UNL1        0.0382
     25 C          -0.8907    1.9051   26.7794 C.ar    1  UNL1        0.1387
     26 C          -1.4215    1.2847   28.0377 C.ar    1  UNL1        0.0382
     27 C          -0.5157    0.4685   28.9114 C.ar    1  UNL1        0.0178
     28 O          -1.7964    2.7212   25.9056 O.3     1  UNL1       -0.4740
     29 C          -1.3566    3.1101   24.5253 C.3     1  UNL1        0.2226
     30 C          -2.1069    4.1658   23.7686 C.3     1  UNL1        0.1200
     31 N          -2.8638    3.8025   22.5256 N.3     1  UNL1       -0.2696
     32 C          -4.3435    3.5766   22.4286 C.3     1  UNL1        0.0722
     33 C          -4.6680    3.2358   21.0043 C.3     1  UNL1        0.0188
     34 C          -3.3889    3.2511   20.2210 C.3     1  UNL1        0.0188
     35 C          -2.2737    3.6014   21.1612 C.3     1  UNL1        0.0722
@<TRIPOS>BOND
     1     1     2    1
     2     2     3   ar
     3     3     4   ar
     4     4    12    1
     5    12    13   ar
     6    13    14    1
     7    13    15   ar
     8    15    16   ar
     9    16    17   ar
    10    17    18   ar
    11    18    19    1
    12     4     5   ar
    13     5     6   ar
    14     6     7   ar
    15     7     8   ar
    16     8     9   ar
    17     9    20    1
    18    20    22    1
    19    22    23   ar
    20    23    24   ar
    21    24    25   ar
    22    25    28    1
    23    28    29    1
    24    29    30    1
    25    30    31    1
    26    31    32    1
    27    32    33    1
    28    33    34    1
    29    34    35    1
    30    25    26   ar
    31    26    27   ar
    32     9    10   ar
    33    10    11   ar
    34    11     2   ar
    35    18    12   ar
    36    11     6   ar
    37    27    22   ar
    38    35    31    1
    39    20    21    1
