@<TRIPOS>MOLECULE
*****
 33 36 0 0 0
SMALL
GASTEIGER

@<TRIPOS>ATOM
      1 N           4.0741   -3.1376   33.2686 N.3     1  UNL1       -0.3217
      2 C           5.5022   -2.8627   32.9014 C.3     1  UNL1        0.0597
      3 C           6.3042   -3.9035   32.1777 C.3     1  UNL1        0.0464
      4 C           7.7324   -3.6287   31.8105 C.2     1  UNL1        0.0285
      5 C           8.3585   -2.3130   32.1669 C.2     1  UNL1       -0.0255
      6 C           7.5565   -1.2723   32.8906 C.3     1  UNL1        0.0315
      7 C           6.1284   -1.5471   33.2578 C.3     1  UNL1        0.0413
      8 H           3.8154   -4.0721   32.9520 H       1  UNL1        0.1188
      9 H           3.4695   -2.4479   32.8222 H       1  UNL1        0.1188
     10 C           8.5343   -4.6694   31.0869 C.2     1  UNL1        0.2451
     11 O           9.5192   -5.5144   31.8391 O.2     1  UNL1       -0.2703
     12 N           8.3514   -4.8651   29.6109 N.am    1  UNL1       -0.2673
     13 C           9.1534   -5.9058   28.8873 C.3     1  UNL1        0.1186
     14 C           8.9705   -6.1015   27.4114 C.3     1  UNL1        0.1301
     15 N           7.9856   -5.2564   26.6592 N.ar    1  UNL1       -0.2924
     16 C           7.1836   -4.2157   27.3828 C.ar    1  UNL1        0.1636
     17 N           6.2945   -3.5376   26.3830 N.ar    1  UNL1       -0.1316
     18 N           6.5471   -4.1592   25.0414 N.ar    1  UNL1       -0.1249
     19 C           7.5922   -5.2215   25.2121 C.ar    1  UNL1        0.2383
     20 C           7.3665   -4.0201   28.8587 C.3     1  UNL1        0.1599
     21 C           8.1466   -6.0955   24.1264 C.3     1  UNL1        0.4524
     22 F           8.7009   -6.9695   23.0407 F       1  UNL1       -0.1632
     23 F           7.5870   -7.3052   24.8145 F       1  UNL1       -0.1632
     24 F           8.7061   -4.8858   23.4383 F       1  UNL1       -0.1632
     25 C           5.3264   -0.5064   33.9814 C.ar    1  UNL1       -0.0163
     26 C           4.5201    0.4926   33.2056 C.ar    1  UNL1        0.0279
     27 C           3.7180    1.5334   33.9293 C.ar    1  UNL1        0.1693
     28 F           2.9117    2.5324   33.1536 F       1  UNL1       -0.2017
     29 C           3.7224    1.5751   35.4287 C.ar    1  UNL1        0.1946
     30 F           2.9204    2.6158   36.1523 F       1  UNL1       -0.1994
     31 C           4.5288    0.5761   36.2045 C.ar    1  UNL1        0.1693
     32 F           4.5332    0.6178   37.7039 F       1  UNL1       -0.2017
     33 C           5.3308   -0.4646   35.4809 C.ar    1  UNL1        0.0279
@<TRIPOS>BOND
     1     2     1    1
     2     2     3    1
     3     3     4    1
     4     4    10    1
     5    10    11    2
     6    10    12   am
     7    12    13    1
     8    13    14    1
     9    14    15    1
    10    15    16   ar
    11    16    17   ar
    12    17    18   ar
    13    18    19   ar
    14    19    21    1
    15    21    22    1
    16    21    23    1
    17    21    24    1
    18    16    20    1
    19     4     5    2
    20     5     6    1
    21     6     7    1
    22     7    25    1
    23    25    26   ar
    24    26    27   ar
    25    27    28    1
    26    27    29   ar
    27    29    30    1
    28    29    31   ar
    29    31    32    1
    30    31    33   ar
    31     7     2    1
    32    33    25   ar
    33    20    12    1
    34    19    15   ar
    35     1     8    1
    36     1     9    1
@<TRIPOS>MOLECULE
*****
 33 36 0 0 0
SMALL
GASTEIGER

@<TRIPOS>ATOM
      1 N          -0.2722   -0.5390   29.4820 N.3     1  UNL1       -0.3217
      2 C           0.1037    0.6844   28.6997 C.3     1  UNL1        0.0597
      3 C          -0.5651    0.9705   27.3878 C.3     1  UNL1        0.0464
      4 C          -0.1892    2.1939   26.6054 C.2     1  UNL1        0.0285
      5 C           0.8553    3.1312   27.1351 C.2     1  UNL1       -0.0255
      6 C           1.5240    2.8451   28.4469 C.3     1  UNL1        0.0315
      7 C           1.1481    1.6217   29.2292 C.3     1  UNL1        0.0413
      8 H          -0.9915   -1.0574   28.9777 H       1  UNL1        0.1188
      9 H          -0.6306   -0.2615   30.3957 H       1  UNL1        0.1188
     10 C          -0.8579    2.4800   25.2936 C.2     1  UNL1        0.2451
     11 O          -0.2140    2.0406   24.0120 O.2     1  UNL1       -0.2703
     12 N          -2.1704    3.2055   25.2632 N.am    1  UNL1       -0.2673
     13 C          -2.8391    3.4916   23.9514 C.3     1  UNL1        0.1186
     14 C          -4.1516    4.2171   23.9211 C.3     1  UNL1        0.1301
     15 N          -4.7954    4.6565   25.2027 N.ar    1  UNL1       -0.2924
     16 C          -4.1268    4.3704   26.5145 C.ar    1  UNL1        0.1636
     17 N          -4.9944    4.9217   27.6069 N.ar    1  UNL1       -0.1316
     18 N          -6.1993    5.5485   26.9702 N.ar    1  UNL1       -0.1249
     19 C          -6.0763    5.3846   25.4843 C.ar    1  UNL1        0.2383
     20 C          -2.8143    3.6449   26.5448 C.3     1  UNL1        0.1599
     21 C          -7.0613    5.8646   24.4598 C.3     1  UNL1        0.4524
     22 F          -8.0462    6.3446   23.4354 F       1  UNL1       -0.1632
     23 F          -6.5938    7.2741   24.6709 F       1  UNL1       -0.1632
     24 F          -7.5287    4.4550   24.2489 F       1  UNL1       -0.1632
     25 C           1.8168    1.3356   30.5411 C.ar    1  UNL1       -0.0163
     26 C           1.4169    2.0988   31.7689 C.ar    1  UNL1        0.0279
     27 C           2.0856    1.8126   33.0808 C.ar    1  UNL1        0.1693
     28 F           1.6856    2.5758   34.3087 F       1  UNL1       -0.2017
     29 C           3.1542    0.7634   33.1648 C.ar    1  UNL1        0.1946
     30 F           3.8228    0.4773   34.4767 F       1  UNL1       -0.1994
     31 C           3.5541    0.0002   31.9370 C.ar    1  UNL1        0.1693
     32 F           4.6227   -1.0491   32.0210 F       1  UNL1       -0.2017
     33 C           2.8854    0.2863   30.6251 C.ar    1  UNL1        0.0279
@<TRIPOS>BOND
     1     2     1    1
     2     2     3    1
     3     3     4    1
     4     4    10    1
     5    10    11    2
     6    10    12   am
     7    12    13    1
     8    13    14    1
     9    14    15    1
    10    15    16   ar
    11    16    17   ar
    12    17    18   ar
    13    18    19   ar
    14    19    21    1
    15    21    22    1
    16    21    23    1
    17    21    24    1
    18    16    20    1
    19     4     5    2
    20     5     6    1
    21     6     7    1
    22     7    25    1
    23    25    26   ar
    24    26    27   ar
    25    27    28    1
    26    27    29   ar
    27    29    30    1
    28    29    31   ar
    29    31    32    1
    30    31    33   ar
    31     7     2    1
    32    33    25   ar
    33    20    12    1
    34    19    15   ar
    35     1     8    1
    36     1     9    1
@<TRIPOS>MOLECULE
*****
 33 36 0 0 0
SMALL
GASTEIGER

@<TRIPOS>ATOM
      1 N          -0.9408    0.6956   28.1414 N.3     1  UNL1       -0.3217
      2 C           0.2079    1.1966   27.3171 C.3     1  UNL1        0.0597
      3 C           0.1471    1.1189   25.8203 C.3     1  UNL1        0.0464
      4 C           1.2958    1.6199   24.9960 C.2     1  UNL1        0.0285
      5 C           2.5053    2.1986   25.6685 C.2     1  UNL1       -0.0255
      6 C           2.5661    2.2762   27.1653 C.3     1  UNL1        0.0315
      7 C           1.4174    1.7752   27.9895 C.3     1  UNL1        0.0413
      8 H          -1.6714    0.3390   27.5253 H       1  UNL1        0.1188
      9 H          -1.3140    1.4597   28.7046 H       1  UNL1        0.1188
     10 C           1.2350    1.5422   23.4993 C.2     1  UNL1        0.2451
     11 O           0.4245    2.5418   22.7287 O.2     1  UNL1       -0.2703
     12 N           1.9848    0.4649   22.7731 N.am    1  UNL1       -0.2673
     13 C           1.9240    0.3872   21.2764 C.3     1  UNL1        0.1186
     14 C           2.6737   -0.6901   20.5503 C.3     1  UNL1        0.1301
     15 N           3.4843   -1.6897   21.3209 N.ar    1  UNL1       -0.2924
     16 C           3.5450   -1.6120   22.8176 C.ar    1  UNL1        0.1636
     17 N           4.4205   -2.7285   23.3045 N.ar    1  UNL1       -0.1316
     18 N           4.9009   -3.4961   22.1086 N.ar    1  UNL1       -0.1249
     19 C           4.3222   -2.8542   20.8827 C.ar    1  UNL1        0.2383
     20 C           2.7953   -0.5347   23.5437 C.3     1  UNL1        0.1599
     21 C           4.5428   -3.2986   19.4671 C.3     1  UNL1        0.4524
     22 F           4.7634   -3.7429   18.0516 F       1  UNL1       -0.1632
     23 F           5.9673   -2.8350   19.5436 F       1  UNL1       -0.1632
     24 F           3.1183   -3.7621   19.3907 F       1  UNL1       -0.1632
     25 C           1.4782    1.8529   29.4863 C.ar    1  UNL1       -0.0163
     26 C           0.6800    2.8921   30.2164 C.ar    1  UNL1        0.0279
     27 C           0.7408    2.9697   31.7132 C.ar    1  UNL1        0.1693
     28 F          -0.0573    4.0089   32.4433 F       1  UNL1       -0.2017
     29 C           1.5998    2.0082   32.4798 C.ar    1  UNL1        0.1946
     30 F           1.6605    2.0859   33.9765 F       1  UNL1       -0.1994
     31 C           2.3979    0.9690   31.7497 C.ar    1  UNL1        0.1693
     32 F           3.2568    0.0075   32.5163 F       1  UNL1       -0.2017
     33 C           2.3371    0.8914   30.2529 C.ar    1  UNL1        0.0279
@<TRIPOS>BOND
     1     2     1    1
     2     2     3    1
     3     3     4    1
     4     4    10    1
     5    10    11    2
     6    10    12   am
     7    12    13    1
     8    13    14    1
     9    14    15    1
    10    15    16   ar
    11    16    17   ar
    12    17    18   ar
    13    18    19   ar
    14    19    21    1
    15    21    22    1
    16    21    23    1
    17    21    24    1
    18    16    20    1
    19     4     5    2
    20     5     6    1
    21     6     7    1
    22     7    25    1
    23    25    26   ar
    24    26    27   ar
    25    27    28    1
    26    27    29   ar
    27    29    30    1
    28    29    31   ar
    29    31    32    1
    30    31    33   ar
    31     7     2    1
    32    33    25   ar
    33    20    12    1
    34    19    15   ar
    35     1     8    1
    36     1     9    1
@<TRIPOS>MOLECULE
*****
 33 36 0 0 0
SMALL
GASTEIGER

@<TRIPOS>ATOM
      1 N          -0.1950   -0.6272   28.8945 N.3     1  UNL1       -0.3217
      2 C           1.1161    0.0655   29.1207 C.3     1  UNL1        0.0597
      3 C           2.0389   -0.4106   30.2033 C.3     1  UNL1        0.0464
      4 C           3.3501    0.2820   30.4295 C.2     1  UNL1        0.0285
      5 C           3.7384    1.4508   29.5731 C.2     1  UNL1       -0.0255
      6 C           2.8156    1.9269   28.4906 C.3     1  UNL1        0.0315
      7 C           1.5045    1.2342   28.2644 C.3     1  UNL1        0.0413
      8 H          -0.2944   -1.3930   29.5609 H       1  UNL1        0.1188
      9 H          -0.2246   -0.9972   27.9445 H       1  UNL1        0.1188
     10 C           4.2728   -0.1940   31.5120 C.2     1  UNL1        0.2451
     11 O           5.3401   -1.2005   31.1988 O.2     1  UNL1       -0.2703
     12 N           4.1284    0.3364   32.9077 N.am    1  UNL1       -0.2673
     13 C           5.0512   -0.1396   33.9901 C.3     1  UNL1        0.1186
     14 C           4.9067    0.3908   35.3857 C.3     1  UNL1        0.1301
     15 N           3.8395    1.3972   35.6988 N.ar    1  UNL1       -0.2924
     16 C           2.9167    1.8733   34.6164 C.ar    1  UNL1        0.1636
     17 N           1.9663    2.8643   35.2201 N.ar    1  UNL1       -0.1316
     18 N           2.3016    3.0007   36.6758 N.ar    1  UNL1       -0.1249
     19 C           3.4594    2.0940   36.9717 C.ar    1  UNL1        0.2383
     20 C           3.0612    1.3429   33.2208 C.3     1  UNL1        0.1599
     21 C           4.1208    1.9155   38.3061 C.3     1  UNL1        0.4524
     22 F           4.7823    1.7369   39.6404 F       1  UNL1       -0.1632
     23 F           5.1674    2.9187   37.9214 F       1  UNL1       -0.1632
     24 F           3.0741    0.9122   38.6907 F       1  UNL1       -0.1632
     25 C           0.5817    1.7103   27.1820 C.ar    1  UNL1       -0.0163
     26 C           0.8687    1.3717   25.7491 C.ar    1  UNL1        0.0279
     27 C          -0.0541    1.8478   24.6666 C.ar    1  UNL1        0.1693
     28 F           0.2329    1.5092   23.2338 F       1  UNL1       -0.2017
     29 C          -1.2639    2.6624   25.0170 C.ar    1  UNL1        0.1946
     30 F          -2.1867    3.1385   23.9345 F       1  UNL1       -0.1994
     31 C          -1.5509    3.0010   26.4498 C.ar    1  UNL1        0.1693
     32 F          -2.7607    3.8156   26.8002 F       1  UNL1       -0.2017
     33 C          -0.6281    2.5249   27.5323 C.ar    1  UNL1        0.0279
@<TRIPOS>BOND
     1     2     1    1
     2     2     3    1
     3     3     4    1
     4     4    10    1
     5    10    11    2
     6    10    12   am
     7    12    13    1
     8    13    14    1
     9    14    15    1
    10    15    16   ar
    11    16    17   ar
    12    17    18   ar
    13    18    19   ar
    14    19    21    1
    15    21    22    1
    16    21    23    1
    17    21    24    1
    18    16    20    1
    19     4     5    2
    20     5     6    1
    21     6     7    1
    22     7    25    1
    23    25    26   ar
    24    26    27   ar
    25    27    28    1
    26    27    29   ar
    27    29    30    1
    28    29    31   ar
    29    31    32    1
    30    31    33   ar
    31     7     2    1
    32    33    25   ar
    33    20    12    1
    34    19    15   ar
    35     1     8    1
    36     1     9    1
@<TRIPOS>MOLECULE
*****
 33 36 0 0 0
SMALL
GASTEIGER

@<TRIPOS>ATOM
      1 N           4.5133    1.4049   21.1895 N.3     1  UNL1       -0.3217
      2 C           3.0850    1.0237   20.9353 C.3     1  UNL1        0.0597
      3 C           2.0037    2.0588   21.0328 C.3     1  UNL1        0.0464
      4 C           0.5754    1.6776   20.7785 C.2     1  UNL1        0.0285
      5 C           0.2284    0.2612   20.4268 C.2     1  UNL1       -0.0255
      6 C           1.3097   -0.7738   20.3294 C.3     1  UNL1        0.0315
      7 C           2.7380   -0.3925   20.5836 C.3     1  UNL1        0.0413
      8 H           4.5652    2.3987   21.4134 H       1  UNL1        0.1188
      9 H           5.0695    1.2147   20.3560 H       1  UNL1        0.1188
     10 C          -0.5059    2.7126   20.8760 C.2     1  UNL1        0.2451
     11 O          -1.0086    3.3910   19.6362 O.2     1  UNL1       -0.2703
     12 N          -1.0844    3.0693   22.2132 N.am    1  UNL1       -0.2673
     13 C          -2.1657    4.1043   22.3107 C.3     1  UNL1        0.1186
     14 C          -2.7442    4.4609   23.6479 C.3     1  UNL1        0.1301
     15 N          -2.2414    3.7825   24.8876 N.ar    1  UNL1       -0.2924
     16 C          -1.1601    2.7475   24.7902 C.ar    1  UNL1        0.1636
     17 N          -0.8676    2.2509   26.1750 N.ar    1  UNL1       -0.1316
     18 N          -1.7681    2.9791   27.1284 N.ar    1  UNL1       -0.1249
     19 C          -2.6172    3.9257   26.3328 C.ar    1  UNL1        0.2383
     20 C          -0.5816    2.3908   23.4530 C.3     1  UNL1        0.1599
     21 C          -3.6591    4.8526   26.8852 C.3     1  UNL1        0.4524
     22 F          -4.7010    5.7795   27.4376 F       1  UNL1       -0.1632
     23 F          -4.7339    3.8937   26.4669 F       1  UNL1       -0.1632
     24 F          -2.5841    5.8116   27.3034 F       1  UNL1       -0.1632
     25 C           3.8192   -1.4276   20.4862 C.ar    1  UNL1       -0.0163
     26 C           4.1503   -2.2805   21.6748 C.ar    1  UNL1        0.0279
     27 C           5.2317   -3.3156   21.5773 C.ar    1  UNL1        0.1693
     28 F           5.5628   -4.1685   22.7659 F       1  UNL1       -0.2017
     29 C           5.9818   -3.4977   20.2912 C.ar    1  UNL1        0.1946
     30 F           7.0631   -4.5327   20.1938 F       1  UNL1       -0.1994
     31 C           5.6507   -2.6447   19.1026 C.ar    1  UNL1        0.1693
     32 F           6.4008   -2.8268   17.8165 F       1  UNL1       -0.2017
     33 C           4.5694   -1.6097   19.2000 C.ar    1  UNL1        0.0279
@<TRIPOS>BOND
     1     2     1    1
     2     2     3    1
     3     3     4    1
     4     4    10    1
     5    10    11    2
     6    10    12   am
     7    12    13    1
     8    13    14    1
     9    14    15    1
    10    15    16   ar
    11    16    17   ar
    12    17    18   ar
    13    18    19   ar
    14    19    21    1
    15    21    22    1
    16    21    23    1
    17    21    24    1
    18    16    20    1
    19     4     5    2
    20     5     6    1
    21     6     7    1
    22     7    25    1
    23    25    26   ar
    24    26    27   ar
    25    27    28    1
    26    27    29   ar
    27    29    30    1
    28    29    31   ar
    29    31    32    1
    30    31    33   ar
    31     7     2    1
    32    33    25   ar
    33    20    12    1
    34    19    15   ar
    35     1     8    1
    36     1     9    1
@<TRIPOS>MOLECULE
*****
 33 36 0 0 0
SMALL
GASTEIGER

@<TRIPOS>ATOM
      1 N          -0.7189    0.3061   29.4434 N.3     1  UNL1       -0.3217
      2 C           0.0079    1.2314   28.5130 C.3     1  UNL1        0.0597
      3 C          -0.3016    1.2147   27.0454 C.3     1  UNL1        0.0464
      4 C           0.4252    2.1400   26.1150 C.2     1  UNL1        0.0285
      5 C           1.4615    3.0820   26.6523 C.2     1  UNL1       -0.0255
      6 C           1.7710    3.0987   28.1199 C.3     1  UNL1        0.0315
      7 C           1.0442    2.1734   29.0503 C.3     1  UNL1        0.0413
      8 H          -1.3818   -0.2585   28.9122 H       1  UNL1        0.1188
      9 H          -1.2217    0.8528   30.1425 H       1  UNL1        0.1188
     10 C           0.1157    2.1232   24.6474 C.2     1  UNL1        0.2451
     11 O          -1.0244    2.9378   24.1120 O.2     1  UNL1       -0.2703
     12 N           0.9464    1.2919   23.7151 N.am    1  UNL1       -0.2673
     13 C           0.6369    1.2752   22.2475 C.3     1  UNL1        0.1186
     14 C           1.4675    0.4439   21.3154 C.3     1  UNL1        0.1301
     15 N           2.6076   -0.3706   21.8508 N.ar    1  UNL1       -0.2924
     16 C           2.9171   -0.3539   23.3184 C.ar    1  UNL1        0.1636
     17 N           4.0948   -1.2524   23.5540 N.ar    1  UNL1       -0.1316
     18 N           4.5133   -1.8245   22.2320 N.ar    1  UNL1       -0.1249
     19 C           3.5941   -1.2795   21.1793 C.ar    1  UNL1        0.2383
     20 C           2.0865    0.4774   24.2506 C.3     1  UNL1        0.1599
     21 C           3.6514   -1.5890   19.7127 C.3     1  UNL1        0.4524
     22 F           3.7087   -1.8985   18.2462 F       1  UNL1       -0.1632
     23 F           4.9308   -0.8143   19.5993 F       1  UNL1       -0.1632
     24 F           2.3720   -2.3638   19.8263 F       1  UNL1       -0.1632
     25 C           1.3536    2.1902   30.5179 C.ar    1  UNL1       -0.0163
     26 C           2.2415    1.1357   31.1092 C.ar    1  UNL1        0.0279
     27 C           2.5510    1.1525   32.5769 C.ar    1  UNL1        0.1693
     28 F           3.4389    0.0980   33.1683 F       1  UNL1       -0.2017
     29 C           1.9726    2.2237   33.4532 C.ar    1  UNL1        0.1946
     30 F           2.2820    2.2404   34.9208 F       1  UNL1       -0.1994
     31 C           1.0847    3.2782   32.8618 C.ar    1  UNL1        0.1693
     32 F           0.5062    4.3494   33.7381 F       1  UNL1       -0.2017
     33 C           0.7752    3.2614   31.3942 C.ar    1  UNL1        0.0279
@<TRIPOS>BOND
     1     2     1    1
     2     2     3    1
     3     3     4    1
     4     4    10    1
     5    10    11    2
     6    10    12   am
     7    12    13    1
     8    13    14    1
     9    14    15    1
    10    15    16   ar
    11    16    17   ar
    12    17    18   ar
    13    18    19   ar
    14    19    21    1
    15    21    22    1
    16    21    23    1
    17    21    24    1
    18    16    20    1
    19     4     5    2
    20     5     6    1
    21     6     7    1
    22     7    25    1
    23    25    26   ar
    24    26    27   ar
    25    27    28    1
    26    27    29   ar
    27    29    30    1
    28    29    31   ar
    29    31    32    1
    30    31    33   ar
    31     7     2    1
    32    33    25   ar
    33    20    12    1
    34    19    15   ar
    35     1     8    1
    36     1     9    1
@<TRIPOS>MOLECULE
*****
 33 36 0 0 0
SMALL
GASTEIGER

@<TRIPOS>ATOM
      1 N           1.0131    4.0861   26.9042 N.3     1  UNL1       -0.3217
      2 C           0.6516    2.7857   27.5587 C.3     1  UNL1        0.0597
      3 C           1.6496    2.0813   28.4292 C.3     1  UNL1        0.0464
      4 C           1.2881    0.7809   29.0837 C.2     1  UNL1        0.0285
      5 C          -0.0714    0.1850   28.8676 C.2     1  UNL1       -0.0255
      6 C          -1.0694    0.8894   27.9971 C.3     1  UNL1        0.0315
      7 C          -0.7078    2.1898   27.3426 C.3     1  UNL1        0.0413
      8 H           1.9676    4.3407   27.1581 H       1  UNL1        0.1188
      9 H           0.3720    4.8146   27.2182 H       1  UNL1        0.1188
     10 C           2.2860    0.0764   29.9542 C.2     1  UNL1        0.2451
     11 O           3.0467   -1.1014   29.4214 O.2     1  UNL1       -0.2703
     12 N           2.5233    0.5499   31.3577 N.am    1  UNL1       -0.2673
     13 C           3.5212   -0.1546   32.2282 C.3     1  UNL1        0.1186
     14 C           3.7585    0.3189   33.6316 C.3     1  UNL1        0.1301
     15 N           2.9978    1.4968   34.1644 N.ar    1  UNL1       -0.2924
     16 C           1.9998    2.2012   33.2939 C.ar    1  UNL1        0.1636
     17 N           1.4041    3.3256   34.0881 N.ar    1  UNL1       -0.1316
     18 N           2.0338    3.3161   35.4495 N.ar    1  UNL1       -0.1249
     19 C           3.0188    2.1858   35.4967 C.ar    1  UNL1        0.2383
     20 C           1.7626    1.7278   31.8905 C.3     1  UNL1        0.1599
     21 C           3.8745    1.8104   36.6701 C.3     1  UNL1        0.4524
     22 F           4.7301    1.4350   37.8435 F       1  UNL1       -0.1632
     23 F           2.6491    1.4032   37.4333 F       1  UNL1       -0.1632
     24 F           5.0998    2.2177   35.9068 F       1  UNL1       -0.1632
     25 C          -1.7058    2.8942   26.4721 C.ar    1  UNL1       -0.0163
     26 C          -1.5058    2.9382   24.9861 C.ar    1  UNL1        0.0279
     27 C          -2.5038    3.6427   24.1156 C.ar    1  UNL1        0.1693
     28 F          -2.3039    3.6866   22.6296 F       1  UNL1       -0.2017
     29 C          -3.7017    4.3031   24.7310 C.ar    1  UNL1        0.1946
     30 F          -4.6996    5.0076   23.8605 F       1  UNL1       -0.1994
     31 C          -3.9017    4.2592   26.2170 C.ar    1  UNL1        0.1693
     32 F          -5.0995    4.9197   26.8324 F       1  UNL1       -0.2017
     33 C          -2.9037    3.5547   27.0875 C.ar    1  UNL1        0.0279
@<TRIPOS>BOND
     1     2     1    1
     2     2     3    1
     3     3     4    1
     4     4    10    1
     5    10    11    2
     6    10    12   am
     7    12    13    1
     8    13    14    1
     9    14    15    1
    10    15    16   ar
    11    16    17   ar
    12    17    18   ar
    13    18    19   ar
    14    19    21    1
    15    21    22    1
    16    21    23    1
    17    21    24    1
    18    16    20    1
    19     4     5    2
    20     5     6    1
    21     6     7    1
    22     7    25    1
    23    25    26   ar
    24    26    27   ar
    25    27    28    1
    26    27    29   ar
    27    29    30    1
    28    29    31   ar
    29    31    32    1
    30    31    33   ar
    31     7     2    1
    32    33    25   ar
    33    20    12    1
    34    19    15   ar
    35     1     8    1
    36     1     9    1
@<TRIPOS>MOLECULE
*****
 33 36 0 0 0
SMALL
GASTEIGER

@<TRIPOS>ATOM
      1 N          -0.9836    0.8875   28.0484 N.3     1  UNL1       -0.3217
      2 C           0.2096    1.2839   27.2304 C.3     1  UNL1        0.0597
      3 C           0.1667    1.1666   25.7356 C.3     1  UNL1        0.0464
      4 C           1.3599    1.5630   24.9176 C.2     1  UNL1        0.0285
      5 C           2.5960    2.0769   25.5945 C.2     1  UNL1       -0.0255
      6 C           2.6389    2.1942   27.0893 C.3     1  UNL1        0.0315
      7 C           1.4456    1.7978   27.9072 C.3     1  UNL1        0.0413
      8 H          -1.7275    0.5640   27.4300 H       1  UNL1        0.1188
      9 H          -1.3117    1.6917   28.5831 H       1  UNL1        0.1188
     10 C           1.3171    1.4457   23.4229 C.2     1  UNL1        0.2451
     11 O           0.4998    2.4121   22.6178 O.2     1  UNL1       -0.2703
     12 N           2.0915    0.3619   22.7331 N.am    1  UNL1       -0.2673
     13 C           2.0487    0.2445   21.2384 C.3     1  UNL1        0.1186
     14 C           2.8231   -0.8393   20.5487 C.3     1  UNL1        0.1301
     15 N           3.6403   -1.8057   21.3538 N.ar    1  UNL1       -0.2924
     16 C           3.6831   -1.6883   22.8485 C.ar    1  UNL1        0.1636
     17 N           4.5703   -2.7778   23.3738 N.ar    1  UNL1       -0.1316
     18 N           5.0758   -3.5686   22.2036 N.ar    1  UNL1       -0.1249
     19 C           4.5010   -2.9678   20.9551 C.ar    1  UNL1        0.2383
     20 C           2.9087   -0.6046   23.5382 C.3     1  UNL1        0.1599
     21 C           4.7442   -3.4451   19.5541 C.3     1  UNL1        0.4524
     22 F           4.9874   -3.9226   18.1531 F       1  UNL1       -0.1632
     23 F           3.3557   -4.0104   19.5057 F       1  UNL1       -0.1632
     24 F           6.1328   -2.8799   19.6025 F       1  UNL1       -0.1632
     25 C           1.4885    1.9151   29.4020 C.ar    1  UNL1       -0.0163
     26 C           2.2548    0.9114   30.2114 C.ar    1  UNL1        0.0279
     27 C           2.2977    1.0288   31.7063 C.ar    1  UNL1        0.1693
     28 F           3.0640    0.0251   32.5157 F       1  UNL1       -0.2017
     29 C           1.5741    2.1499   32.3916 C.ar    1  UNL1        0.1946
     30 F           1.6170    2.2672   33.8863 F       1  UNL1       -0.1994
     31 C           0.8078    3.1536   31.5821 C.ar    1  UNL1        0.1693
     32 F           0.0842    4.2746   32.2674 F       1  UNL1       -0.2017
     33 C           0.7649    3.0362   30.0873 C.ar    1  UNL1        0.0279
@<TRIPOS>BOND
     1     2     1    1
     2     2     3    1
     3     3     4    1
     4     4    10    1
     5    10    11    2
     6    10    12   am
     7    12    13    1
     8    13    14    1
     9    14    15    1
    10    15    16   ar
    11    16    17   ar
    12    17    18   ar
    13    18    19   ar
    14    19    21    1
    15    21    22    1
    16    21    23    1
    17    21    24    1
    18    16    20    1
    19     4     5    2
    20     5     6    1
    21     6     7    1
    22     7    25    1
    23    25    26   ar
    24    26    27   ar
    25    27    28    1
    26    27    29   ar
    27    29    30    1
    28    29    31   ar
    29    31    32    1
    30    31    33   ar
    31     7     2    1
    32    33    25   ar
    33    20    12    1
    34    19    15   ar
    35     1     8    1
    36     1     9    1
@<TRIPOS>MOLECULE
*****
 33 36 0 0 0
SMALL
GASTEIGER

@<TRIPOS>ATOM
      1 N           0.9142   -0.5235   29.8527 N.3     1  UNL1       -0.3217
      2 C           1.9859    0.1038   29.0113 C.3     1  UNL1        0.0597
      3 C           1.6981    0.4801   27.5880 C.3     1  UNL1        0.0464
      4 C           2.7698    1.1074   26.7466 C.2     1  UNL1        0.0285
      5 C           4.1294    1.3584   27.3286 C.2     1  UNL1       -0.0255
      6 C           4.4172    0.9822   28.7518 C.3     1  UNL1        0.0315
      7 C           3.3455    0.3549   29.5931 C.3     1  UNL1        0.0413
      8 H           0.0615   -0.6193   29.3012 H       1  UNL1        0.1188
      9 H           0.7299    0.0666   30.6640 H       1  UNL1        0.1188
     10 C           2.4820    1.4836   25.3234 C.2     1  UNL1        0.2451
     11 O           1.8178    2.7923   25.0132 O.2     1  UNL1       -0.2703
     12 N           2.8584    0.5511   24.2103 N.am    1  UNL1       -0.2673
     13 C           2.5706    0.9273   22.7871 C.3     1  UNL1        0.1186
     14 C           2.9469   -0.0051   21.6741 C.3     1  UNL1        0.1301
     15 N           3.6111   -1.3138   21.9843 N.ar    1  UNL1       -0.2924
     16 C           3.8989   -1.6900   23.4075 C.ar    1  UNL1        0.1636
     17 N           4.5592   -3.0369   23.4065 N.ar    1  UNL1       -0.1316
     18 N           4.6795   -3.4931   21.9826 N.ar    1  UNL1       -0.1249
     19 C           4.0935   -2.4282   21.1036 C.ar    1  UNL1        0.2383
     20 C           3.5225   -0.7576   24.5205 C.3     1  UNL1        0.1599
     21 C           4.0054   -2.4702   19.6068 C.3     1  UNL1        0.4524
     22 F           3.9174   -2.5121   18.1100 F       1  UNL1       -0.1632
     23 F           4.9843   -1.3372   19.5175 F       1  UNL1       -0.1632
     24 F           3.0265   -3.6032   19.6962 F       1  UNL1       -0.1632
     25 C           3.6333   -0.0213   31.0163 C.ar    1  UNL1       -0.0163
     26 C           4.2815   -1.3377   31.3277 C.ar    1  UNL1        0.0279
     27 C           4.5693   -1.7139   32.7510 C.ar    1  UNL1        0.1693
     28 F           5.2176   -3.0302   33.0624 F       1  UNL1       -0.2017
     29 C           4.2089   -0.7737   33.8629 C.ar    1  UNL1        0.1946
     30 F           4.4967   -1.1500   35.2861 F       1  UNL1       -0.1994
     31 C           3.5606    0.5426   33.5515 C.ar    1  UNL1        0.1693
     32 F           3.2002    1.4827   34.6633 F       1  UNL1       -0.2017
     33 C           3.2728    0.9188   32.1283 C.ar    1  UNL1        0.0279
@<TRIPOS>BOND
     1     2     1    1
     2     2     3    1
     3     3     4    1
     4     4    10    1
     5    10    11    2
     6    10    12   am
     7    12    13    1
     8    13    14    1
     9    14    15    1
    10    15    16   ar
    11    16    17   ar
    12    17    18   ar
    13    18    19   ar
    14    19    21    1
    15    21    22    1
    16    21    23    1
    17    21    24    1
    18    16    20    1
    19     4     5    2
    20     5     6    1
    21     6     7    1
    22     7    25    1
    23    25    26   ar
    24    26    27   ar
    25    27    28    1
    26    27    29   ar
    27    29    30    1
    28    29    31   ar
    29    31    32    1
    30    31    33   ar
    31     7     2    1
    32    33    25   ar
    33    20    12    1
    34    19    15   ar
    35     1     8    1
    36     1     9    1
