@<TRIPOS>MOLECULE
*****
 23 27 0 0 0
SMALL
GASTEIGER

@<TRIPOS>ATOM
      1 C         -10.4259  -19.0176   20.5314 C.3     1  UNL1        0.0221
      2 C         -10.4143  -17.9073   21.5399 C.3     1  UNL1        0.0809
      3 C         -11.7716  -18.2038   20.9744 C.3     1  UNL1        0.0218
      4 C         -12.7538  -17.2651   21.6102 C.3     1  UNL1        0.0191
      5 C         -12.0035  -16.3884   22.5686 C.3     1  UNL1        0.0727
      6 N         -10.5576  -16.7853   22.5251 N.3     1  UNL1       -0.2653
      7 C          -9.3529  -16.2700   23.2554 C.3     1  UNL1        0.1202
      8 C          -8.0050  -16.8767   23.0004 C.2     1  UNL1        0.0903
      9 N          -6.9421  -16.2184   23.8292 N.2     1  UNL1       -0.1822
     10 N          -5.4734  -16.5195   23.8776 N.am    1  UNL1       -0.2029
     11 C          -4.7049  -17.5533   23.1090 C.2     1  UNL1        0.2612
     12 O          -3.2312  -17.6061   23.3834 O.2     1  UNL1       -0.2687
     13 C          -5.2152  -18.5413   22.1022 C.2     1  UNL1        0.0444
     14 C          -4.1078  -19.3996   21.5667 C.2     1  UNL1        0.0306
     15 C          -4.4053  -20.4562   20.5443 C.2     1  UNL1        0.1412
     16 F          -3.2979  -21.3146   20.0087 F       1  UNL1       -0.2041
     17 C          -5.8103  -20.6544   20.0576 C.2     1  UNL1        0.0449
     18 C          -6.9177  -19.7960   20.5931 C.2     1  UNL1        0.0689
     19 N          -8.3963  -19.6930   20.3632 N.2     1  UNL1       -0.2522
     20 C          -9.0664  -18.5140   21.2849 C.2     1  UNL1        0.0693
     21 C          -7.8617  -17.9986   22.0152 C.2     1  UNL1        0.0185
     22 C          -6.6202  -18.7395   21.6155 C.3     1  UNL1        0.0916
     23 H          -4.9439  -15.9654   24.4954 H       1  UNL1        0.1776
@<TRIPOS>BOND
     1     2     1    1
     2     2     3    1
     3     3     4    1
     4     4     5    1
     5     5     6    1
     6     6     7    1
     7     7     8    1
     8     8     9    2
     9     9    10    1
    10    10    11   am
    11    11    12    2
    12    11    13    1
    13    13    14    2
    14    14    15    1
    15    15    16    1
    16    15    17    2
    17    17    18    1
    18    18    19    2
    19    19    20    1
    20    20    21    2
    21    21    22    1
    22     6     2    1
    23    21     8    1
    24    20     2    1
    25    22    13    1
    26    22    18    1
    27    10    23    1
@<TRIPOS>MOLECULE
*****
 23 27 0 0 0
SMALL
GASTEIGER

@<TRIPOS>ATOM
      1 C          -9.2393  -19.3440   21.0588 C.3     1  UNL1        0.0221
      2 C         -10.0727  -18.3580   21.8224 C.3     1  UNL1        0.0809
      3 C         -10.8664  -19.2671   20.9315 C.3     1  UNL1        0.0218
      4 C         -12.3154  -18.9065   21.0740 C.3     1  UNL1        0.0191
      5 C         -12.4173  -17.7745   22.0529 C.3     1  UNL1        0.0727
      6 N         -11.0312  -17.4355   22.5154 N.3     1  UNL1       -0.2653
      7 C         -10.5180  -16.4061   23.4781 C.3     1  UNL1        0.1202
      8 C          -9.0464  -16.2991   23.7478 C.2     1  UNL1        0.0903
      9 N          -8.7480  -15.2109   24.7362 N.2     1  UNL1       -0.1822
     10 N          -7.4175  -14.7765   25.2757 N.am    1  UNL1       -0.2029
     11 C          -6.0568  -15.3229   24.9600 C.2     1  UNL1        0.2612
     12 O          -4.9108  -14.6668   25.6715 O.2     1  UNL1       -0.2687
     13 C          -5.6903  -16.4388   24.0268 C.2     1  UNL1        0.0444
     14 C          -4.2083  -16.6687   24.0028 C.2     1  UNL1        0.0306
     15 C          -3.6302  -17.7436   23.1308 C.2     1  UNL1        0.1412
     16 F          -2.1481  -17.9736   23.1067 F       1  UNL1       -0.2041
     17 C          -4.5341  -18.5886   22.2829 C.2     1  UNL1        0.0449
     18 C          -6.0162  -18.3586   22.3070 C.2     1  UNL1        0.0689
     19 N          -7.2040  -18.9727   21.6273 N.2     1  UNL1       -0.2522
     20 C          -8.6011  -18.2511   22.0920 C.2     1  UNL1        0.0693
     21 C          -8.0879  -17.2215   23.0548 C.2     1  UNL1        0.0185
     22 C          -6.5943  -17.2837   23.1789 C.3     1  UNL1        0.0916
     23 H          -7.4405  -14.0346   25.9225 H       1  UNL1        0.1776
@<TRIPOS>BOND
     1     2     1    1
     2     2     3    1
     3     3     4    1
     4     4     5    1
     5     5     6    1
     6     6     7    1
     7     7     8    1
     8     8     9    2
     9     9    10    1
    10    10    11   am
    11    11    12    2
    12    11    13    1
    13    13    14    2
    14    14    15    1
    15    15    16    1
    16    15    17    2
    17    17    18    1
    18    18    19    2
    19    19    20    1
    20    20    21    2
    21    21    22    1
    22     6     2    1
    23    21     8    1
    24    20     2    1
    25    22    13    1
    26    22    18    1
    27    10    23    1
@<TRIPOS>MOLECULE
*****
 23 27 0 0 0
SMALL
GASTEIGER

@<TRIPOS>ATOM
      1 C          -5.3878  -20.0908   20.6754 C.3     1  UNL1        0.0221
      2 C          -4.4557  -19.1885   21.4284 C.3     1  UNL1        0.0809
      3 C          -3.7630  -20.1562   20.5153 C.3     1  UNL1        0.0218
      4 C          -2.2854  -19.9255   20.6305 C.3     1  UNL1        0.0191
      5 C          -2.0648  -18.8153   21.6148 C.3     1  UNL1        0.0727
      6 N          -3.4061  -18.3598   22.1080 N.3     1  UNL1       -0.2653
      7 C          -3.8075  -17.2975   23.0880 C.3     1  UNL1        0.1202
      8 C          -5.2584  -17.0639   23.3885 C.2     1  UNL1        0.0903
      9 N          -5.4401  -15.9622   24.3902 N.2     1  UNL1       -0.1822
     10 N          -6.7161  -15.4171   24.9598 N.am    1  UNL1       -0.2029
     11 C          -8.1258  -15.8391   24.6683 C.2     1  UNL1        0.2612
     12 O          -9.1952  -15.0909   25.4076 O.2     1  UNL1       -0.2687
     13 C          -8.6075  -16.9104   23.7353 C.2     1  UNL1        0.0444
     14 C         -10.1042  -17.0088   23.7401 C.2     1  UNL1        0.0306
     15 C         -10.7919  -18.0213   22.8728 C.2     1  UNL1        0.1412
     16 F         -12.2887  -18.1198   22.8776 F       1  UNL1       -0.2041
     17 C          -9.9829  -18.9351   22.0009 C.2     1  UNL1        0.0449
     18 C          -8.4861  -18.8366   21.9961 C.2     1  UNL1        0.0689
     19 N          -7.3708  -19.5469   21.2880 N.2     1  UNL1       -0.2522
     20 C          -5.9066  -18.9549   21.7289 C.2     1  UNL1        0.0693
     21 C          -6.3079  -17.8925   22.7090 C.2     1  UNL1        0.0185
     22 C          -7.7984  -17.8242   22.8634 C.3     1  UNL1        0.0916
     23 H          -6.6151  -14.6857   25.6110 H       1  UNL1        0.1776
@<TRIPOS>BOND
     1     2     1    1
     2     2     3    1
     3     3     4    1
     4     4     5    1
     5     5     6    1
     6     6     7    1
     7     7     8    1
     8     8     9    2
     9     9    10    1
    10    10    11   am
    11    11    12    2
    12    11    13    1
    13    13    14    2
    14    14    15    1
    15    15    16    1
    16    15    17    2
    17    17    18    1
    18    18    19    2
    19    19    20    1
    20    20    21    2
    21    21    22    1
    22     6     2    1
    23    21     8    1
    24    20     2    1
    25    22    13    1
    26    22    18    1
    27    10    23    1
@<TRIPOS>MOLECULE
*****
 23 27 0 0 0
SMALL
GASTEIGER

@<TRIPOS>ATOM
      1 C          -9.4744  -16.2914   23.3602 C.3     1  UNL1        0.0221
      2 C         -10.0303  -17.2305   22.3311 C.3     1  UNL1        0.0809
      3 C         -11.0591  -16.3419   22.9651 C.3     1  UNL1        0.0218
      4 C         -12.3912  -16.6688   22.3581 C.3     1  UNL1        0.0191
      5 C         -12.1858  -17.7595   21.3489 C.3     1  UNL1        0.0727
      6 N         -10.7266  -18.1066   21.3323 N.3     1  UNL1       -0.2653
      7 C          -9.9420  -19.1073   20.5367 C.3     1  UNL1        0.1202
      8 C          -8.4611  -19.2319   20.7399 C.2     1  UNL1        0.0903
      9 N          -7.8725  -20.2861   19.8497 N.2     1  UNL1       -0.1822
     10 N          -6.4424  -20.7246   19.7384 N.am    1  UNL1       -0.2029
     11 C          -5.2475  -20.2172   20.4899 C.2     1  UNL1        0.2612
     12 O          -3.9395  -20.8669   20.1478 O.2     1  UNL1       -0.2687
     13 C          -5.1876  -19.1459   21.5382 C.2     1  UNL1        0.0444
     14 C          -3.7875  -18.9457   22.0377 C.2     1  UNL1        0.0306
     15 C          -3.5077  -17.9170   23.0930 C.2     1  UNL1        0.1412
     16 F          -2.1075  -17.7167   23.5925 F       1  UNL1       -0.2041
     17 C          -4.6280  -17.0886   23.6487 C.2     1  UNL1        0.0449
     18 C          -6.0281  -17.2890   23.1492 C.2     1  UNL1        0.0689
     19 N          -7.3660  -16.6792   23.4461 N.2     1  UNL1       -0.2522
     20 C          -8.5493  -17.3551   22.5343 C.2     1  UNL1        0.0693
     21 C          -7.7648  -18.3559   21.7386 C.2     1  UNL1        0.0185
     22 C          -6.3079  -18.3176   22.0939 C.3     1  UNL1        0.0916
     23 H          -6.2645  -21.4400   19.0859 H       1  UNL1        0.1776
@<TRIPOS>BOND
     1     2     1    1
     2     2     3    1
     3     3     4    1
     4     4     5    1
     5     5     6    1
     6     6     7    1
     7     7     8    1
     8     8     9    2
     9     9    10    1
    10    10    11   am
    11    11    12    2
    12    11    13    1
    13    13    14    2
    14    14    15    1
    15    15    16    1
    16    15    17    2
    17    17    18    1
    18    18    19    2
    19    19    20    1
    20    20    21    2
    21    21    22    1
    22     6     2    1
    23    21     8    1
    24    20     2    1
    25    22    13    1
    26    22    18    1
    27    10    23    1
@<TRIPOS>MOLECULE
*****
 23 27 0 0 0
SMALL
GASTEIGER

@<TRIPOS>ATOM
      1 C          -5.2725  -17.0348   23.4145 C.3     1  UNL1        0.0221
      2 C          -6.3291  -16.3308   24.2132 C.3     1  UNL1        0.0809
      3 C          -4.9340  -16.1090   24.7175 C.3     1  UNL1        0.0218
      4 C          -5.0122  -15.2136   25.9184 C.3     1  UNL1        0.0191
      5 C          -6.4556  -14.8820   26.1563 C.3     1  UNL1        0.0727
      6 N          -7.2695  -15.5725   25.1024 N.3     1  UNL1       -0.2653
      7 C          -8.7455  -15.6088   24.8375 C.3     1  UNL1        0.1202
      8 C          -9.2810  -16.4034   23.6834 C.2     1  UNL1        0.0903
      9 N         -10.7754  -16.3056   23.5973 N.2     1  UNL1       -0.1822
     10 N         -11.6984  -16.9420   22.6008 N.am    1  UNL1       -0.2029
     11 C         -11.3550  -17.8333   21.4442 C.2     1  UNL1        0.2612
     12 O         -12.5164  -18.3130   20.6250 O.2     1  UNL1       -0.2687
     13 C         -10.0038  -18.3084   20.9985 C.2     1  UNL1        0.0444
     14 C         -10.1045  -19.1905   19.7895 C.2     1  UNL1        0.0306
     15 C          -8.8634  -19.7738   19.1814 C.2     1  UNL1        0.1412
     16 F          -8.9640  -20.6559   17.9723 F       1  UNL1       -0.2041
     17 C          -7.5219  -19.4748   19.7822 C.2     1  UNL1        0.0449
     18 C          -7.4214  -18.5927   20.9912 C.2     1  UNL1        0.0689
     19 N          -6.3034  -18.0795   21.8495 N.2     1  UNL1       -0.2522
     20 C          -6.8646  -17.1254   23.0592 C.2     1  UNL1        0.0693
     21 C          -8.3407  -17.1616   22.7943 C.2     1  UNL1        0.0185
     22 C          -8.6623  -18.0095   21.5994 C.3     1  UNL1        0.0916
     23 H         -12.6562  -16.7491   22.7218 H       1  UNL1        0.1776
@<TRIPOS>BOND
     1     2     1    1
     2     2     3    1
     3     3     4    1
     4     4     5    1
     5     5     6    1
     6     6     7    1
     7     7     8    1
     8     8     9    2
     9     9    10    1
    10    10    11   am
    11    11    12    2
    12    11    13    1
    13    13    14    2
    14    14    15    1
    15    15    16    1
    16    15    17    2
    17    17    18    1
    18    18    19    2
    19    19    20    1
    20    20    21    2
    21    21    22    1
    22     6     2    1
    23    21     8    1
    24    20     2    1
    25    22    13    1
    26    22    18    1
    27    10    23    1
@<TRIPOS>MOLECULE
*****
 23 27 0 0 0
SMALL
GASTEIGER

@<TRIPOS>ATOM
      1 C          -8.3619  -15.5162   25.3476 C.3     1  UNL1        0.0221
      2 C          -7.1435  -16.0164   24.6297 C.3     1  UNL1        0.0809
      3 C          -6.8400  -15.2027   25.8527 C.3     1  UNL1        0.0218
      4 C          -5.3493  -15.1275   26.0011 C.3     1  UNL1        0.0191
      5 C          -4.7315  -15.8946   24.8698 C.3     1  UNL1        0.0727
      6 N          -5.8404  -16.4440   24.0222 N.3     1  UNL1       -0.2653
      7 C          -5.8320  -17.2784   22.7757 C.3     1  UNL1        0.1202
      8 C          -7.1266  -17.6851   22.1367 C.2     1  UNL1        0.0903
      9 N          -6.8947  -18.5120   20.9068 N.2     1  UNL1       -0.1822
     10 N          -7.9086  -19.1155   19.9807 N.am    1  UNL1       -0.2029
     11 C          -9.4049  -19.0411   20.0557 C.2     1  UNL1        0.2612
     12 O         -10.1475  -19.7577   18.9671 O.2     1  UNL1       -0.2687
     13 C         -10.2569  -18.3450   21.0753 C.2     1  UNL1        0.0444
     14 C         -11.7172  -18.5189   20.7801 C.2     1  UNL1        0.0306
     15 C         -12.7435  -17.8991   21.6815 C.2     1  UNL1        0.1412
     16 F         -14.2039  -18.0730   21.3864 F       1  UNL1       -0.2041
     17 C         -12.3095  -17.1053   22.8780 C.2     1  UNL1        0.0449
     18 C         -10.8491  -16.9314   23.1731 C.2     1  UNL1        0.0689
     19 N         -10.0489  -16.2347   24.2334 N.2     1  UNL1       -0.2522
     20 C          -8.4382  -16.4231   23.9907 C.2     1  UNL1        0.0693
     21 C          -8.4297  -17.2576   22.7441 C.2     1  UNL1        0.0185
     22 C          -9.8228  -17.5512   22.2718 C.3     1  UNL1        0.0916
     23 H          -7.5438  -19.6281   19.2235 H       1  UNL1        0.1776
@<TRIPOS>BOND
     1     2     1    1
     2     2     3    1
     3     3     4    1
     4     4     5    1
     5     5     6    1
     6     6     7    1
     7     7     8    1
     8     8     9    2
     9     9    10    1
    10    10    11   am
    11    11    12    2
    12    11    13    1
    13    13    14    2
    14    14    15    1
    15    15    16    1
    16    15    17    2
    17    17    18    1
    18    18    19    2
    19    19    20    1
    20    20    21    2
    21    21    22    1
    22     6     2    1
    23    21     8    1
    24    20     2    1
    25    22    13    1
    26    22    18    1
    27    10    23    1
@<TRIPOS>MOLECULE
*****
 23 27 0 0 0
SMALL
GASTEIGER

@<TRIPOS>ATOM
      1 C          -9.1462  -16.3632   24.8500 C.3     1  UNL1        0.0221
      2 C          -7.6819  -16.1614   25.1050 C.3     1  UNL1        0.0809
      3 C          -8.5724  -15.5495   26.1455 C.3     1  UNL1        0.0218
      4 C          -7.7001  -14.8913   27.1731 C.3     1  UNL1        0.0191
      5 C          -6.2706  -15.0964   26.7677 C.3     1  UNL1        0.0727
      6 N          -6.2593  -15.8814   25.4895 N.3     1  UNL1       -0.2653
      7 C          -5.1375  -16.3774   24.6261 C.3     1  UNL1        0.1202
      8 C          -5.4382  -17.1534   23.3782 C.2     1  UNL1        0.0903
      9 N          -4.1806  -17.5530   22.6649 N.2     1  UNL1       -0.1822
     10 N          -4.0349  -18.3313   21.3909 N.am    1  UNL1       -0.2029
     11 C          -5.1110  -18.9022   20.5156 C.2     1  UNL1        0.2612
     12 O          -4.6369  -19.6367   19.2966 O.2     1  UNL1       -0.2687
     13 C          -6.5984  -18.8359   20.6980 C.2     1  UNL1        0.0444
     14 C          -7.3187  -19.5407   19.5870 C.2     1  UNL1        0.0306
     15 C          -8.8179  -19.5918   19.5789 C.2     1  UNL1        0.1412
     16 F          -9.5383  -20.2966   18.4679 F       1  UNL1       -0.2041
     17 C          -9.5966  -18.9381   20.6818 C.2     1  UNL1        0.0449
     18 C          -8.8762  -18.2333   21.7928 C.2     1  UNL1        0.0689
     19 N          -9.2860  -17.4871   23.0277 N.2     1  UNL1       -0.2522
     20 C          -7.9827  -16.9374   23.8571 C.2     1  UNL1        0.0693
     21 C          -6.8607  -17.4334   22.9937 C.2     1  UNL1        0.0185
     22 C          -7.3771  -18.1822   21.8009 C.3     1  UNL1        0.0916
     23 H          -3.1110  -18.4881   21.0894 H       1  UNL1        0.1776
@<TRIPOS>BOND
     1     2     1    1
     2     2     3    1
     3     3     4    1
     4     4     5    1
     5     5     6    1
     6     6     7    1
     7     7     8    1
     8     8     9    2
     9     9    10    1
    10    10    11   am
    11    11    12    2
    12    11    13    1
    13    13    14    2
    14    14    15    1
    15    15    16    1
    16    15    17    2
    17    17    18    1
    18    18    19    2
    19    19    20    1
    20    20    21    2
    21    21    22    1
    22     6     2    1
    23    21     8    1
    24    20     2    1
    25    22    13    1
    26    22    18    1
    27    10    23    1
@<TRIPOS>MOLECULE
*****
 23 27 0 0 0
SMALL
GASTEIGER

@<TRIPOS>ATOM
      1 C         -10.2894  -17.1401   21.8963 C.3     1  UNL1        0.0221
      2 C          -9.6018  -18.1350   21.0091 C.3     1  UNL1        0.0809
      3 C         -11.0694  -17.9868   20.7369 C.3     1  UNL1        0.0218
      4 C         -11.4284  -18.9141   19.6139 C.3     1  UNL1        0.0191
      5 C         -10.1827  -19.6353   19.1919 C.3     1  UNL1        0.0727
      6 N          -9.0537  -19.1538   20.0543 N.3     1  UNL1       -0.2653
      7 C          -7.5975  -19.5115   20.0934 C.3     1  UNL1        0.1202
      8 C          -6.6893  -18.8503   21.0874 C.2     1  UNL1        0.0903
      9 N          -5.2803  -19.3485   20.9584 N.2     1  UNL1       -0.1822
     10 N          -4.0714  -18.9510   21.7523 N.am    1  UNL1       -0.2029
     11 C          -3.9728  -17.9570   22.8714 C.2     1  UNL1        0.2612
     12 O          -2.6077  -17.7817   23.4678 O.2     1  UNL1       -0.2687
     13 C          -5.0588  -17.1150   23.4729 C.2     1  UNL1        0.0444
     14 C          -4.5320  -16.2490   24.5785 C.2     1  UNL1        0.0306
     15 C          -5.4581  -15.3271   25.3151 C.2     1  UNL1        0.1412
     16 F          -4.9313  -14.4610   26.4207 F       1  UNL1       -0.2041
     17 C          -6.9109  -15.2713   24.9460 C.2     1  UNL1        0.0449
     18 C          -7.4377  -16.1373   23.8404 C.2     1  UNL1        0.0689
     19 N          -8.7768  -16.3581   23.2018 N.2     1  UNL1       -0.2522
     20 C          -8.6936  -17.4738   22.0030 C.2     1  UNL1        0.0693
     21 C          -7.2373  -17.8315   22.0421 C.2     1  UNL1        0.0185
     22 C          -6.5117  -17.0592   23.1038 C.3     1  UNL1        0.0916
     23 H          -3.2316  -19.4021   21.5064 H       1  UNL1        0.1776
@<TRIPOS>BOND
     1     2     1    1
     2     2     3    1
     3     3     4    1
     4     4     5    1
     5     5     6    1
     6     6     7    1
     7     7     8    1
     8     8     9    2
     9     9    10    1
    10    10    11   am
    11    11    12    2
    12    11    13    1
    13    13    14    2
    14    14    15    1
    15    15    16    1
    16    15    17    2
    17    17    18    1
    18    18    19    2
    19    19    20    1
    20    20    21    2
    21    21    22    1
    22     6     2    1
    23    21     8    1
    24    20     2    1
    25    22    13    1
    26    22    18    1
    27    10    23    1
@<TRIPOS>MOLECULE
*****
 23 27 0 0 0
SMALL
GASTEIGER

@<TRIPOS>ATOM
      1 C         -15.3130   -9.6556   18.1781 C.3     1  UNL1        0.0221
      2 C         -16.5188   -8.8619   18.5854 C.3     1  UNL1        0.0809
      3 C         -16.8251  -10.2744   18.1840 C.3     1  UNL1        0.0218
      4 C         -18.3049  -10.4826   18.3142 C.3     1  UNL1        0.0191
      5 C         -18.9131   -9.1989   18.7960 C.3     1  UNL1        0.0727
      6 N         -17.8092   -8.1972   18.9637 N.3     1  UNL1       -0.2653
      7 C         -17.8124   -6.7658   19.4119 C.3     1  UNL1        0.1202
      8 C         -16.5251   -5.9990   19.4818 C.2     1  UNL1        0.0903
      9 N         -16.7500   -4.5922   19.9516 N.2     1  UNL1       -0.1822
     10 N         -15.7401   -3.5028   20.1591 N.am    1  UNL1       -0.2029
     11 C         -14.2558   -3.5510   19.9482 C.2     1  UNL1        0.2612
     12 O         -13.5144   -2.2818   20.2474 O.2     1  UNL1       -0.2687
     13 C         -13.4147   -4.7005   19.4776 C.2     1  UNL1        0.0444
     14 C         -11.9646   -4.3244   19.4039 C.2     1  UNL1        0.0306
     15 C         -10.9500   -5.3337   18.9543 C.2     1  UNL1        0.1412
     16 F          -9.4998   -4.9577   18.8805 F       1  UNL1       -0.2041
     17 C         -11.3857   -6.7189   18.5784 C.2     1  UNL1        0.0449
     18 C         -12.8359   -7.0950   18.6522 C.2     1  UNL1        0.0689
     19 N         -13.6344   -8.3330   18.3703 N.2     1  UNL1       -0.2522
     20 C         -15.2315   -8.0951   18.6554 C.2     1  UNL1        0.0693
     21 C         -15.2347   -6.6636   19.1037 C.2     1  UNL1        0.0185
     22 C         -13.8505   -6.0857   19.1018 C.3     1  UNL1        0.0916
     23 H         -16.0989   -2.6424   20.4756 H       1  UNL1        0.1776
@<TRIPOS>BOND
     1     2     1    1
     2     2     3    1
     3     3     4    1
     4     4     5    1
     5     5     6    1
     6     6     7    1
     7     7     8    1
     8     8     9    2
     9     9    10    1
    10    10    11   am
    11    11    12    2
    12    11    13    1
    13    13    14    2
    14    14    15    1
    15    15    16    1
    16    15    17    2
    17    17    18    1
    18    18    19    2
    19    19    20    1
    20    20    21    2
    21    21    22    1
    22     6     2    1
    23    21     8    1
    24    20     2    1
    25    22    13    1
    26    22    18    1
    27    10    23    1
