@<TRIPOS>MOLECULE
*****
 31 34 0 0 0
SMALL
GASTEIGER

@<TRIPOS>ATOM
      1 N           0.6887    2.9662   22.2694 N.pl3   1  UNL1       -0.2145
      2 H           0.8541    3.7603   21.7115 H       1  UNL1        0.1737
      3 C          -2.1834    3.2027   25.7255 C.ar    1  UNL1        0.1520
      4 C          -2.5918    3.7113   24.3747 C.ar    1  UNL1        0.0395
      5 C          -1.6345    3.6325   23.2227 C.ar    1  UNL1        0.0190
      6 C          -0.2686    3.0450   23.4214 C.ar    1  UNL1        0.0662
      7 C           0.1398    2.5364   24.7721 C.ar    1  UNL1        0.0334
      8 C          -0.8176    2.6153   25.9242 C.ar    1  UNL1        0.0836
      9 N          -0.4092    2.1067   27.2750 N.pl3   1  UNL1       -0.3023
     10 C           0.2413    3.0325   28.2597 C.3     1  UNL1        0.1080
     11 C           0.6497    2.5239   29.6105 C.3     1  UNL1        0.0903
     12 N           0.4077    1.0896   29.9765 N.3     1  UNL1       -0.2946
     13 C          -0.2428    0.1637   28.9917 C.3     1  UNL1        0.0903
     14 C          -0.6512    0.6723   27.6409 C.3     1  UNL1        0.1080
     15 H          -0.1805    1.0936   30.8098 H       1  UNL1        0.1233
     16 C          -4.2769    4.2603   26.8429 C.3     1  UNL1        0.2525
     17 O          -3.1408    3.2816   26.8776 O.3     1  UNL1       -0.4702
     18 S           1.3941    1.6773   21.9672 S.O2    1  UNL1        0.0790
     19 O           2.7178    2.3604   22.1437 O.2     1  UNL1       -0.1495
     20 O           0.0704    0.9942   21.7907 O.2     1  UNL1       -0.1495
     21 C           2.0994    0.3884   21.6650 C.ar    1  UNL1        0.1506
     22 S           2.8862   -0.4358   22.6405 S.2     1  UNL1       -0.0673
     23 C           3.4149   -1.6362   21.9127 C.ar    1  UNL1        0.0305
     24 C           4.2557   -2.7935   22.3637 C.ar    1  UNL1        0.0074
     25 C           4.6366   -3.8685   21.3894 C.ar    1  UNL1        0.0119
     26 C           4.1766   -3.7860   19.9640 C.ar    1  UNL1        0.0577
     27 CL          4.5575   -4.8611   18.9897 Cl      1  UNL1       -0.0822
     28 C           3.3358   -2.6287   19.5130 C.ar    1  UNL1        0.0116
     29 C           2.9549   -1.5537   20.4874 C.ar    1  UNL1        0.0047
     30 C           2.1419   -0.3025   20.3343 C.ar    1  UNL1        0.0037
     31 C           1.4865    0.1742   19.0721 C.3     1  UNL1        0.0330
@<TRIPOS>BOND
     1    16    17    1
     2    17     3    1
     3     3     4   ar
     4     4     5   ar
     5     5     6   ar
     6     6     1    1
     7     1    18    1
     8    18    19    2
     9    18    20    2
    10    18    21    1
    11    21    22   ar
    12    22    23   ar
    13    23    24   ar
    14    24    25   ar
    15    25    26   ar
    16    26    27    1
    17    26    28   ar
    18    28    29   ar
    19    29    30   ar
    20    30    31    1
    21     6     7   ar
    22     7     8   ar
    23     8     9    1
    24     9    10    1
    25    10    11    1
    26    11    12    1
    27    12    13    1
    28    13    14    1
    29     8     3   ar
    30    14     9    1
    31    30    21   ar
    32    29    23   ar
    33     1     2    1
    34    12    15    1
@<TRIPOS>MOLECULE
*****
 31 34 0 0 0
SMALL
GASTEIGER

@<TRIPOS>ATOM
      1 N           1.1633    2.3931   19.7408 N.pl3   1  UNL1       -0.2145
      2 H           0.6807    2.9358   19.0761 H       1  UNL1        0.1737
      3 C           4.7601   -0.0098   18.5003 C.ar    1  UNL1        0.1520
      4 C           4.5837    1.3915   17.9951 C.ar    1  UNL1        0.0395
      5 C           3.3848    2.1925   18.4086 C.ar    1  UNL1        0.0190
      6 C           2.3622    1.5921   19.3273 C.ar    1  UNL1        0.0662
      7 C           2.5386    0.1908   19.8325 C.ar    1  UNL1        0.0334
      8 C           3.7376   -0.6101   19.4189 C.ar    1  UNL1        0.0836
      9 N           3.9140   -2.0114   19.9241 N.pl3   1  UNL1       -0.3023
     10 C           3.5708   -3.1753   19.0424 C.3     1  UNL1        0.1080
     11 C           3.7472   -4.5767   19.5475 C.3     1  UNL1        0.0903
     12 N           4.2668   -4.8141   20.9345 N.3     1  UNL1       -0.2946
     13 C           4.6100   -3.6501   21.8163 C.3     1  UNL1        0.0903
     14 C           4.4336   -2.2488   21.3111 C.3     1  UNL1        0.1080
     15 H           5.1155   -5.3718   20.8395 H       1  UNL1        0.1233
     16 C           7.2287   -0.7249   18.8809 C.3     1  UNL1        0.2525
     17 O           5.9591   -0.8107   18.0867 O.3     1  UNL1       -0.4702
     18 S           0.6995    2.3672   21.1671 S.O2    1  UNL1        0.0790
     19 O          -0.4634    1.5055   20.7734 O.2     1  UNL1       -0.1495
     20 O           1.8624    3.2290   21.5608 O.2     1  UNL1       -0.1495
     21 C           0.2358    2.3413   22.5934 C.ar    1  UNL1        0.1506
     22 S          -0.8251    3.2169   23.1916 S.2     1  UNL1       -0.0673
     23 C          -0.9650    2.8520   24.6398 C.ar    1  UNL1        0.0305
     24 C          -1.8538    3.3802   25.7266 C.ar    1  UNL1        0.0074
     25 C          -1.7682    2.8072   27.1101 C.ar    1  UNL1        0.0119
     26 C          -0.7938    1.7061   27.4070 C.ar    1  UNL1        0.0577
     27 CL         -0.7082    1.1332   28.7906 Cl      1  UNL1       -0.0822
     28 C           0.0950    1.1780   26.3202 C.ar    1  UNL1        0.0116
     29 C           0.0094    1.7510   24.9367 C.ar    1  UNL1        0.0047
     30 C           0.7515    1.4353   23.6719 C.ar    1  UNL1        0.0037
     31 C           1.8216    0.3961   23.5135 C.3     1  UNL1        0.0330
@<TRIPOS>BOND
     1    16    17    1
     2    17     3    1
     3     3     4   ar
     4     4     5   ar
     5     5     6   ar
     6     6     1    1
     7     1    18    1
     8    18    19    2
     9    18    20    2
    10    18    21    1
    11    21    22   ar
    12    22    23   ar
    13    23    24   ar
    14    24    25   ar
    15    25    26   ar
    16    26    27    1
    17    26    28   ar
    18    28    29   ar
    19    29    30   ar
    20    30    31    1
    21     6     7   ar
    22     7     8   ar
    23     8     9    1
    24     9    10    1
    25    10    11    1
    26    11    12    1
    27    12    13    1
    28    13    14    1
    29     8     3   ar
    30    14     9    1
    31    30    21   ar
    32    29    23   ar
    33     1     2    1
    34    12    15    1
@<TRIPOS>MOLECULE
*****
 31 34 0 0 0
SMALL
GASTEIGER

@<TRIPOS>ATOM
      1 N           0.6870    2.8391   22.3397 N.pl3   1  UNL1       -0.2145
      2 H           0.3081    3.4053   21.6290 H       1  UNL1        0.1737
      3 C           0.2597    4.0534   26.6516 C.ar    1  UNL1        0.1520
      4 C           0.3733    5.1018   25.5849 C.ar    1  UNL1        0.0395
      5 C           0.5158    4.6971   24.1476 C.ar    1  UNL1        0.0190
      6 C           0.5445    3.2438   23.7770 C.ar    1  UNL1        0.0662
      7 C           0.4309    2.1954   24.8437 C.ar    1  UNL1        0.0334
      8 C           0.2885    2.6002   26.2810 C.ar    1  UNL1        0.0836
      9 N           0.1748    1.5518   27.3478 N.pl3   1  UNL1       -0.3023
     10 C           1.4049    0.8535   27.8471 C.3     1  UNL1        0.1080
     11 C           1.2912   -0.1949   28.9138 C.3     1  UNL1        0.0903
     12 N          -0.0524   -0.5451   29.4812 N.3     1  UNL1       -0.2946
     13 C          -1.2825    0.1533   28.9819 C.3     1  UNL1        0.0903
     14 C          -1.1689    1.2017   27.9151 C.3     1  UNL1        0.1080
     15 H          -0.0024   -0.3716   30.4851 H       1  UNL1        0.1233
     16 C           1.0467    5.4785   28.6764 C.3     1  UNL1        0.2525
     17 O           0.1173    4.4582   28.0890 O.3     1  UNL1       -0.4702
     18 S           1.4067    1.5716   21.9852 S.O2    1  UNL1        0.0790
     19 O           0.0907    0.8731   21.8109 O.2     1  UNL1       -0.1495
     20 O           2.7226    2.2702   22.1595 O.2     1  UNL1       -0.1495
     21 C           2.1264    0.3042   21.6307 C.ar    1  UNL1        0.1506
     22 S           2.9329   -0.5437   22.5691 S.2     1  UNL1       -0.0673
     23 C           3.4709   -1.7098   21.7939 C.ar    1  UNL1        0.0305
     24 C           4.3312   -2.8710   22.1957 C.ar    1  UNL1        0.0074
     25 C           4.7174   -3.9050   21.1799 C.ar    1  UNL1        0.0119
     26 C           4.2434   -3.7777   19.7625 C.ar    1  UNL1        0.0577
     27 CL          4.6298   -4.8117   18.7468 Cl      1  UNL1       -0.0822
     28 C           3.3832   -2.6165   19.3608 C.ar    1  UNL1        0.0116
     29 C           2.9969   -1.5825   20.3765 C.ar    1  UNL1        0.0047
     30 C           2.1660   -0.3378   20.2756 C.ar    1  UNL1        0.0037
     31 C           1.4928    0.1749   19.0371 C.3     1  UNL1        0.0330
@<TRIPOS>BOND
     1    16    17    1
     2    17     3    1
     3     3     4   ar
     4     4     5   ar
     5     5     6   ar
     6     6     1    1
     7     1    18    1
     8    18    19    2
     9    18    20    2
    10    18    21    1
    11    21    22   ar
    12    22    23   ar
    13    23    24   ar
    14    24    25   ar
    15    25    26   ar
    16    26    27    1
    17    26    28   ar
    18    28    29   ar
    19    29    30   ar
    20    30    31    1
    21     6     7   ar
    22     7     8   ar
    23     8     9    1
    24     9    10    1
    25    10    11    1
    26    11    12    1
    27    12    13    1
    28    13    14    1
    29     8     3   ar
    30    14     9    1
    31    30    21   ar
    32    29    23   ar
    33     1     2    1
    34    12    15    1
@<TRIPOS>MOLECULE
*****
 31 34 0 0 0
SMALL
GASTEIGER

@<TRIPOS>ATOM
      1 N           3.5381   -0.8335   18.4116 N.pl3   1  UNL1       -0.2145
      2 H           3.7289   -0.7852   17.4470 H       1  UNL1        0.1737
      3 C           0.0368    1.4125   20.1279 C.ar    1  UNL1        0.1520
      4 C           0.3885    0.0537   20.6571 C.ar    1  UNL1        0.0395
      5 C           1.5556   -0.6950   20.0850 C.ar    1  UNL1        0.0190
      6 C           2.3710   -0.0848   18.9837 C.ar    1  UNL1        0.0662
      7 C           2.0193    1.2739   18.4545 C.ar    1  UNL1        0.0334
      8 C           0.8522    2.0226   19.0267 C.ar    1  UNL1        0.0836
      9 N           0.5005    3.3814   18.4975 N.pl3   1  UNL1       -0.3023
     10 C           1.2348    4.5921   18.9923 C.3     1  UNL1        0.1080
     11 C           0.8831    5.9509   18.4631 C.3     1  UNL1        0.0903
     12 N          -0.2029    6.0990   17.4392 N.3     1  UNL1       -0.2946
     13 C          -0.9374    4.8882   16.9444 C.3     1  UNL1        0.0903
     14 C          -0.5857    3.5294   17.4735 C.3     1  UNL1        0.1080
     15 H           0.2202    6.5407   16.6229 H       1  UNL1        0.1233
     16 C          -0.9245    3.1132   21.8407 C.3     1  UNL1        0.2525
     17 O          -1.1304    2.1612   20.7001 O.3     1  UNL1       -0.4702
     18 S           4.4146   -1.6558   19.3092 S.O2    1  UNL1        0.0790
     19 O           5.0874   -0.4068   19.7964 O.2     1  UNL1       -0.1495
     20 O           3.7418   -2.9048   18.8220 O.2     1  UNL1       -0.1495
     21 C           5.2911   -2.4780   20.2068 C.ar    1  UNL1        0.1506
     22 S           6.5333   -3.2113   19.7955 S.2     1  UNL1       -0.0673
     23 C           7.0892   -3.8979   21.0078 C.ar    1  UNL1        0.0305
     24 C           8.2975   -4.7644   21.2049 C.ar    1  UNL1        0.0074
     25 C           8.6072   -5.3220   22.5625 C.ar    1  UNL1        0.0119
     26 C           7.7085   -5.0130   23.7230 C.ar    1  UNL1        0.0577
     27 CL          8.0183   -5.5706   25.0807 Cl      1  UNL1       -0.0822
     28 C           6.5002   -4.1464   23.5260 C.ar    1  UNL1        0.0116
     29 C           6.1905   -3.5889   22.1684 C.ar    1  UNL1        0.0047
     30 C           5.0792   -2.7114   21.6733 C.ar    1  UNL1        0.0037
     31 C           3.9537   -2.1634   22.4997 C.3     1  UNL1        0.0330
@<TRIPOS>BOND
     1    16    17    1
     2    17     3    1
     3     3     4   ar
     4     4     5   ar
     5     5     6   ar
     6     6     1    1
     7     1    18    1
     8    18    19    2
     9    18    20    2
    10    18    21    1
    11    21    22   ar
    12    22    23   ar
    13    23    24   ar
    14    24    25   ar
    15    25    26   ar
    16    26    27    1
    17    26    28   ar
    18    28    29   ar
    19    29    30   ar
    20    30    31    1
    21     6     7   ar
    22     7     8   ar
    23     8     9    1
    24     9    10    1
    25    10    11    1
    26    11    12    1
    27    12    13    1
    28    13    14    1
    29     8     3   ar
    30    14     9    1
    31    30    21   ar
    32    29    23   ar
    33     1     2    1
    34    12    15    1
@<TRIPOS>MOLECULE
*****
 31 34 0 0 0
SMALL
GASTEIGER

@<TRIPOS>ATOM
      1 N           5.1150   -0.4603   26.8670 N.pl3   1  UNL1       -0.2145
      2 H           4.9915    0.4948   27.0713 H       1  UNL1        0.1737
      3 C           6.5367   -3.2812   30.0719 C.ar    1  UNL1        0.1520
      4 C           6.7130   -3.6388   28.6258 C.ar    1  UNL1        0.0395
      5 C           6.2391   -2.6985   27.5576 C.ar    1  UNL1        0.0190
      6 C           5.5889   -1.4006   27.9353 C.ar    1  UNL1        0.0662
      7 C           5.4126   -1.0430   29.3813 C.ar    1  UNL1        0.0334
      8 C           5.8865   -1.9834   30.4496 C.ar    1  UNL1        0.0836
      9 N           5.7102   -1.6258   31.8957 N.pl3   1  UNL1       -0.3023
     10 C           4.4650   -2.0373   32.6236 C.3     1  UNL1        0.1080
     11 C           4.2887   -1.6797   34.0697 C.3     1  UNL1        0.0903
     12 N           5.3577   -0.9106   34.7878 N.3     1  UNL1       -0.2946
     13 C           6.6030   -0.4990   34.0598 C.3     1  UNL1        0.0903
     14 C           6.7793   -0.8565   32.6138 C.3     1  UNL1        0.1080
     15 H           5.6541   -1.4850   35.5768 H       1  UNL1        0.1233
     16 C           7.0295   -5.6994   30.8841 C.3     1  UNL1        0.2525
     17 O           7.0107   -4.2215   31.1402 O.3     1  UNL1       -0.4702
     18 S           4.8292   -0.9753   25.4875 S.O2    1  UNL1        0.0790
     19 O           3.5657   -1.6113   25.9866 O.2     1  UNL1       -0.1495
     20 O           6.0926   -0.3392   24.9883 O.2     1  UNL1       -0.1495
     21 C           4.5434   -1.4902   24.1079 C.ar    1  UNL1        0.1506
     22 S           3.6539   -0.8393   23.0905 S.2     1  UNL1       -0.0673
     23 C           3.6577   -1.6933   21.8574 C.ar    1  UNL1        0.0305
     24 C           2.9642   -1.5499   20.5351 C.ar    1  UNL1        0.0074
     25 C           3.1627   -2.5852   19.4680 C.ar    1  UNL1        0.0119
     26 C           4.0546   -3.7639   19.7232 C.ar    1  UNL1        0.0577
     27 CL          4.2531   -4.7992   18.6560 Cl      1  UNL1       -0.0822
     28 C           4.7481   -3.9073   21.0455 C.ar    1  UNL1        0.0116
     29 C           4.5496   -2.8720   22.1126 C.ar    1  UNL1        0.0047
     30 C           5.0970   -2.7465   23.5035 C.ar    1  UNL1        0.0037
     31 C           6.0336   -3.7084   24.1725 C.3     1  UNL1        0.0330
@<TRIPOS>BOND
     1    16    17    1
     2    17     3    1
     3     3     4   ar
     4     4     5   ar
     5     5     6   ar
     6     6     1    1
     7     1    18    1
     8    18    19    2
     9    18    20    2
    10    18    21    1
    11    21    22   ar
    12    22    23   ar
    13    23    24   ar
    14    24    25   ar
    15    25    26   ar
    16    26    27    1
    17    26    28   ar
    18    28    29   ar
    19    29    30   ar
    20    30    31    1
    21     6     7   ar
    22     7     8   ar
    23     8     9    1
    24     9    10    1
    25    10    11    1
    26    11    12    1
    27    12    13    1
    28    13    14    1
    29     8     3   ar
    30    14     9    1
    31    30    21   ar
    32    29    23   ar
    33     1     2    1
    34    12    15    1
@<TRIPOS>MOLECULE
*****
 31 34 0 0 0
SMALL
GASTEIGER

@<TRIPOS>ATOM
      1 N           0.2987    3.2044   21.7054 N.pl3   1  UNL1       -0.2145
      2 H           0.4631    3.9770   21.1179 H       1  UNL1        0.1737
      3 C          -2.7557    3.4907   24.9976 C.ar    1  UNL1        0.1520
      4 C          -1.3935    2.9323   25.2848 C.ar    1  UNL1        0.0395
      5 C          -0.3754    2.8368   24.1875 C.ar    1  UNL1        0.0190
      6 C          -0.7195    3.2998   22.8028 C.ar    1  UNL1        0.0662
      7 C          -2.0817    3.8582   22.5155 C.ar    1  UNL1        0.0334
      8 C          -3.0998    3.9536   23.6130 C.ar    1  UNL1        0.0836
      9 N          -4.4621    4.5120   23.3257 N.pl3   1  UNL1       -0.3023
     10 C          -4.6846    5.9952   23.3480 C.3     1  UNL1        0.1080
     11 C          -6.0469    6.5536   23.0608 C.3     1  UNL1        0.0903
     12 N          -7.1865    5.6288   22.7513 N.3     1  UNL1       -0.2946
     13 C          -6.9640    4.1455   22.7290 C.3     1  UNL1        0.0903
     14 C          -5.6018    3.5871   23.0162 C.3     1  UNL1        0.1080
     15 H          -7.5339    5.8883   21.8280 H       1  UNL1        0.1233
     16 C          -3.9370    4.8675   26.8575 C.3     1  UNL1        0.2525
     17 O          -3.7739    3.5861   26.0951 O.3     1  UNL1       -0.4702
     18 S           1.0664    1.9317   21.5031 S.O2    1  UNL1        0.0790
     19 O          -0.2148    1.2033   21.2236 O.2     1  UNL1       -0.1495
     20 O           2.3475    2.6600   21.7827 O.2     1  UNL1       -0.1495
     21 C           1.8340    0.6590   21.3009 C.ar    1  UNL1        0.1506
     22 S           2.5684   -0.1059   22.3619 S.2     1  UNL1       -0.0673
     23 C           3.1904   -1.3099   21.7189 C.ar    1  UNL1        0.0305
     24 C           4.0301   -2.4224   22.2730 C.ar    1  UNL1        0.0074
     25 C           4.5200   -3.5142   21.3686 C.ar    1  UNL1        0.0119
     26 C           4.1701   -3.4935   19.9101 C.ar    1  UNL1        0.0577
     27 CL          4.6600   -4.5854   19.0057 Cl      1  UNL1       -0.0822
     28 C           3.3303   -2.3810   19.3560 C.ar    1  UNL1        0.0116
     29 C           2.8405   -1.2892   20.2604 C.ar    1  UNL1        0.0047
     30 C           2.0022   -0.0724   20.0021 C.ar    1  UNL1        0.0037
     31 C           1.4322    0.3406   18.6775 C.3     1  UNL1        0.0330
@<TRIPOS>BOND
     1    16    17    1
     2    17     3    1
     3     3     4   ar
     4     4     5   ar
     5     5     6   ar
     6     6     1    1
     7     1    18    1
     8    18    19    2
     9    18    20    2
    10    18    21    1
    11    21    22   ar
    12    22    23   ar
    13    23    24   ar
    14    24    25   ar
    15    25    26   ar
    16    26    27    1
    17    26    28   ar
    18    28    29   ar
    19    29    30   ar
    20    30    31    1
    21     6     7   ar
    22     7     8   ar
    23     8     9    1
    24     9    10    1
    25    10    11    1
    26    11    12    1
    27    12    13    1
    28    13    14    1
    29     8     3   ar
    30    14     9    1
    31    30    21   ar
    32    29    23   ar
    33     1     2    1
    34    12    15    1
@<TRIPOS>MOLECULE
*****
 31 34 0 0 0
SMALL
GASTEIGER

@<TRIPOS>ATOM
      1 N           0.6288    0.2741   27.5687 N.pl3   1  UNL1       -0.2145
      2 H           0.7528   -0.6596   27.2821 H       1  UNL1        0.1737
      3 C          -1.2002    3.2685   24.7512 C.ar    1  UNL1        0.1520
      4 C          -0.1888    2.2831   24.2453 C.ar    1  UNL1        0.0395
      5 C           0.4209    1.2849   25.1844 C.ar    1  UNL1        0.0190
      6 C           0.0191    1.2722   26.6296 C.ar    1  UNL1        0.0662
      7 C          -0.9923    2.2576   27.1356 C.ar    1  UNL1        0.0334
      8 C          -1.6020    3.2558   26.1963 C.ar    1  UNL1        0.0836
      9 N          -2.6134    4.2412   26.7023 N.pl3   1  UNL1       -0.3023
     10 C          -2.1605    5.4908   27.3973 C.3     1  UNL1        0.1080
     11 C          -3.1719    6.4762   27.9033 C.3     1  UNL1        0.0903
     12 N          -4.6362    6.2120   27.7142 N.3     1  UNL1       -0.2946
     13 C          -5.0892    4.9622   27.0191 C.3     1  UNL1        0.0903
     14 C          -4.0778    3.9768   26.5132 C.3     1  UNL1        0.1080
     15 H          -5.0108    6.9973   27.1819 H       1  UNL1        0.1233
     16 C          -2.7054    3.8022   22.7019 C.3     1  UNL1        0.2525
     17 O          -1.8099    4.2666   23.8120 O.3     1  UNL1       -0.4702
     18 S           1.0495    0.6985   28.9445 S.O2    1  UNL1        0.0790
     19 O          -0.0348   -0.1511   29.5382 O.2     1  UNL1       -0.1495
     20 O           2.1339    1.5481   28.3509 O.2     1  UNL1       -0.1495
     21 C           1.4703    1.1229   30.3204 C.ar    1  UNL1        0.1506
     22 S           0.9357    2.2991   31.0823 S.2     1  UNL1       -0.0673
     23 C           1.6345    2.3488   32.4086 C.ar    1  UNL1        0.0305
     24 C           1.5156    3.2891   33.5712 C.ar    1  UNL1        0.0074
     25 C           2.3632    3.0838   34.7915 C.ar    1  UNL1        0.0119
     26 C           3.3298    1.9382   34.8493 C.ar    1  UNL1        0.0577
     27 CL          4.1775    1.7330   36.0698 Cl      1  UNL1       -0.0822
     28 C           3.4487    0.9979   33.6868 C.ar    1  UNL1        0.0116
     29 C           2.6011    1.2032   32.4664 C.ar    1  UNL1        0.0047
     30 C           2.4996    0.4455   31.1758 C.ar    1  UNL1        0.0037
     31 C           3.2888   -0.7751   30.8056 C.3     1  UNL1        0.0330
@<TRIPOS>BOND
     1    16    17    1
     2    17     3    1
     3     3     4   ar
     4     4     5   ar
     5     5     6   ar
     6     6     1    1
     7     1    18    1
     8    18    19    2
     9    18    20    2
    10    18    21    1
    11    21    22   ar
    12    22    23   ar
    13    23    24   ar
    14    24    25   ar
    15    25    26   ar
    16    26    27    1
    17    26    28   ar
    18    28    29   ar
    19    29    30   ar
    20    30    31    1
    21     6     7   ar
    22     7     8   ar
    23     8     9    1
    24     9    10    1
    25    10    11    1
    26    11    12    1
    27    12    13    1
    28    13    14    1
    29     8     3   ar
    30    14     9    1
    31    30    21   ar
    32    29    23   ar
    33     1     2    1
    34    12    15    1
@<TRIPOS>MOLECULE
*****
 31 34 0 0 0
SMALL
GASTEIGER

@<TRIPOS>ATOM
      1 N          -7.6282  -20.1799   20.5733 N.pl3   1  UNL1       -0.2145
      2 H          -7.9025  -21.0639   20.2378 H       1  UNL1        0.1737
      3 C         -10.6009  -17.5624   22.7093 C.ar    1  UNL1        0.1520
      4 C         -10.9790  -18.2292   21.4199 C.ar    1  UNL1        0.0395
      5 C          -9.9882  -19.1017   20.7079 C.ar    1  UNL1        0.0190
      6 C          -8.6191  -19.3074   21.2853 C.ar    1  UNL1        0.0662
      7 C          -8.2409  -18.6407   22.5747 C.ar    1  UNL1        0.0334
      8 C          -9.2318  -17.7682   23.2866 C.ar    1  UNL1        0.0836
      9 N          -8.8537  -17.1014   24.5760 N.pl3   1  UNL1       -0.3023
     10 C          -8.0655  -15.8254   24.5575 C.3     1  UNL1        0.1080
     11 C          -7.6873  -15.1586   25.8468 C.3     1  UNL1        0.0903
     12 N          -8.0974  -15.7679   27.1547 N.3     1  UNL1       -0.2946
     13 C          -8.8856  -17.0440   27.1733 C.3     1  UNL1        0.0903
     14 C          -9.2637  -17.7108   25.8839 C.3     1  UNL1        0.1080
     15 H          -8.6574  -15.0688   27.6425 H       1  UNL1        0.1233
     16 C         -12.5921  -15.8952   22.6353 C.3     1  UNL1        0.2525
     17 O         -11.5918  -16.6899   23.4212 O.3     1  UNL1       -0.4702
     18 S          -6.2194  -19.7056   20.3726 S.O2    1  UNL1        0.0790
     19 O          -5.7320  -21.1223   20.4458 O.2     1  UNL1       -0.1495
     20 O          -6.7068  -18.2889   20.2993 O.2     1  UNL1       -0.1495
     21 C          -4.8106  -19.2312   20.1718 C.ar    1  UNL1        0.1506
     22 S          -4.2062  -18.7879   18.8725 S.2     1  UNL1       -0.0673
     23 C          -2.7809  -18.3996   19.1328 C.ar    1  UNL1        0.0305
     24 C          -1.6992  -17.8872   18.2289 C.ar    1  UNL1        0.0074
     25 C          -0.3409  -17.5781   18.7851 C.ar    1  UNL1        0.0119
     26 C          -0.0644  -17.7814   20.2453 C.ar    1  UNL1        0.0577
     27 CL          1.2940  -17.4723   20.8015 Cl      1  UNL1       -0.0822
     28 C          -1.1461  -18.2938   21.1493 C.ar    1  UNL1        0.0116
     29 C          -2.5044  -18.6029   20.5930 C.ar    1  UNL1        0.0047
     30 C          -3.7588  -19.1169   21.2351 C.ar    1  UNL1        0.0037
     31 C          -3.9311  -19.4569   22.6859 C.3     1  UNL1        0.0330
@<TRIPOS>BOND
     1    16    17    1
     2    17     3    1
     3     3     4   ar
     4     4     5   ar
     5     5     6   ar
     6     6     1    1
     7     1    18    1
     8    18    19    2
     9    18    20    2
    10    18    21    1
    11    21    22   ar
    12    22    23   ar
    13    23    24   ar
    14    24    25   ar
    15    25    26   ar
    16    26    27    1
    17    26    28   ar
    18    28    29   ar
    19    29    30   ar
    20    30    31    1
    21     6     7   ar
    22     7     8   ar
    23     8     9    1
    24     9    10    1
    25    10    11    1
    26    11    12    1
    27    12    13    1
    28    13    14    1
    29     8     3   ar
    30    14     9    1
    31    30    21   ar
    32    29    23   ar
    33     1     2    1
    34    12    15    1
@<TRIPOS>MOLECULE
*****
 31 34 0 0 0
SMALL
GASTEIGER

@<TRIPOS>ATOM
      1 N          -0.2436    2.3248   20.1801 N.pl3   1  UNL1       -0.2145
      2 H          -0.3901    2.6051   19.2479 H       1  UNL1        0.1737
      3 C          -2.5275    4.3082   23.5117 C.ar    1  UNL1        0.1520
      4 C          -1.0854    3.9434   23.7045 C.ar    1  UNL1        0.0395
      5 C          -0.3241    3.2823   22.5940 C.ar    1  UNL1        0.0190
      6 C          -1.0049    2.9859   21.2906 C.ar    1  UNL1        0.0662
      7 C          -2.4470    3.3507   21.0978 C.ar    1  UNL1        0.0334
      8 C          -3.2083    4.0119   22.2084 C.ar    1  UNL1        0.0836
      9 N          -4.6505    4.3767   22.0156 N.pl3   1  UNL1       -0.3023
     10 C          -5.0426    5.3381   20.9331 C.3     1  UNL1        0.1080
     11 C          -6.4848    5.7029   20.7403 C.3     1  UNL1        0.0903
     12 N          -7.5347    5.1063   21.6300 N.3     1  UNL1       -0.2946
     13 C          -7.1426    4.1448   22.7126 C.3     1  UNL1        0.0903
     14 C          -5.7005    3.7800   22.9054 C.3     1  UNL1        0.1080
     15 H          -8.1905    4.6146   21.0228 H       1  UNL1        0.1233
     16 C          -3.3158    6.4655   24.7261 C.3     1  UNL1        0.2525
     17 O          -3.2889    4.9694   24.6223 O.3     1  UNL1       -0.4702
     18 S           0.7411    1.2365   20.4901 S.O2    1  UNL1        0.0790
     19 O           1.8727    2.1845   20.2240 O.2     1  UNL1       -0.1495
     20 O          -0.3905    0.2884   20.7561 O.2     1  UNL1       -0.1495
     21 C           1.7257    0.1482   20.8000 C.ar    1  UNL1        0.1506
     22 S           2.2789   -0.8452   19.8216 S.2     1  UNL1       -0.0673
     23 C           3.2252   -1.7452   20.5596 C.ar    1  UNL1        0.0305
     24 C           4.0620   -2.9062   20.1107 C.ar    1  UNL1        0.0074
     25 C           4.9306   -3.6301   21.0964 C.ar    1  UNL1        0.0119
     26 C           4.9622   -3.1930   22.5309 C.ar    1  UNL1        0.0577
     27 CL          5.8308   -3.9170   23.5166 Cl      1  UNL1       -0.0822
     28 C           4.1254   -2.0319   22.9798 C.ar    1  UNL1        0.0116
     29 C           3.2568   -1.3080   21.9942 C.ar    1  UNL1        0.0047
     30 C           2.3301   -0.1379   22.1427 C.ar    1  UNL1        0.0037
     31 C           2.0560    0.6142   23.4113 C.3     1  UNL1        0.0330
@<TRIPOS>BOND
     1    16    17    1
     2    17     3    1
     3     3     4   ar
     4     4     5   ar
     5     5     6   ar
     6     6     1    1
     7     1    18    1
     8    18    19    2
     9    18    20    2
    10    18    21    1
    11    21    22   ar
    12    22    23   ar
    13    23    24   ar
    14    24    25   ar
    15    25    26   ar
    16    26    27    1
    17    26    28   ar
    18    28    29   ar
    19    29    30   ar
    20    30    31    1
    21     6     7   ar
    22     7     8   ar
    23     8     9    1
    24     9    10    1
    25    10    11    1
    26    11    12    1
    27    12    13    1
    28    13    14    1
    29     8     3   ar
    30    14     9    1
    31    30    21   ar
    32    29    23   ar
    33     1     2    1
    34    12    15    1
