@<TRIPOS>MOLECULE
*****
 43 46 0 0 0
SMALL
GASTEIGER

@<TRIPOS>ATOM
      1 C           2.2955    2.7539   19.3406 C.3     1  UNL1        0.0038
      2 C           2.8998    3.3720   20.5664 C.3     1  UNL1        0.0474
      3 C           2.0348    3.6912   21.7496 C.3     1  UNL1        0.2071
      4 O           0.5429    3.5809   21.6396 O.3     1  UNL1       -0.4602
      5 C          -0.2794    3.2878   22.8593 C.ar    1  UNL1        0.2248
      6 C           0.3352    2.5681   24.0231 C.ar    1  UNL1        0.0577
      7 C          -0.4872    2.2750   25.2428 C.ar    1  UNL1        0.0061
      8 C          -1.9241    2.7015   25.2988 C.ar    1  UNL1        0.0194
      9 C          -2.5388    3.4212   24.1351 C.ar    1  UNL1        0.0844
     10 N          -1.7165    3.7143   22.9153 N.ar    1  UNL1       -0.2117
     11 C          -3.9758    3.8477   24.1911 C.ar    1  UNL1        0.0178
     12 C          -4.5193    4.4914   25.4321 C.ar    1  UNL1        0.0015
     13 C          -5.9563    4.9178   25.4881 C.ar    1  UNL1        0.0000
     14 C          -6.8498    4.7006   24.3030 C.ar    1  UNL1        0.0000
     15 C          -6.3063    4.0569   23.0620 C.ar    1  UNL1        0.0000
     16 C          -4.8694    3.6304   23.0060 C.ar    1  UNL1        0.0015
     17 C           0.1274    1.5554   26.4066 C.ar    1  UNL1        0.0002
     18 C          -0.6972    1.2550   27.6231 C.ar    1  UNL1        0.0000
     19 C          -0.0826    0.5353   28.7868 C.ar    1  UNL1        0.0000
     20 C           1.3567    0.1161   28.7341 C.ar    1  UNL1        0.0000
     21 C           2.1813    0.4165   27.5177 C.ar    1  UNL1        0.0000
     22 C           1.5667    1.1361   26.3539 C.ar    1  UNL1        0.0000
     23 C           3.0119    1.6447   18.6290 C.3     1  UNL1        0.0005
     24 C           2.2972    0.3601   18.3307 C.3     1  UNL1        0.0047
     25 C           1.6258   -0.3989   19.4366 C.3     1  UNL1        0.0261
     26 C           4.1831   -2.1581   21.9095 C.ar    1  UNL1        0.1342
     27 C           3.9087   -1.4101   23.1803 C.ar    1  UNL1        0.0365
     28 C           2.8733   -0.3249   23.2033 C.ar    1  UNL1        0.0028
     29 C           2.1123    0.0121   21.9554 C.ar    1  UNL1       -0.0044
     30 C           2.3867   -0.7360   20.6846 C.ar    1  UNL1       -0.0232
     31 C           3.4221   -1.8211   20.6616 C.ar    1  UNL1        0.0082
     32 C           3.6965   -2.5691   19.3907 C.3     1  UNL1        0.0350
     33 C           3.0708   -3.9130   19.1614 C.3     1  UNL1        0.0465
     34 C           3.8148   -5.1604   19.5360 C.2     1  UNL1        0.0507
     35 O           5.1991   -5.3952   19.0080 O.co2   1  UNL1       -0.5492
     36 O           3.1746   -6.1731   20.4386 O.co2   1  UNL1       -0.5492
     37 O           5.2185   -3.2432   21.8866 O.3     1  UNL1       -0.4758
     38 C           6.6063   -2.9455   21.4016 C.3     1  UNL1        0.2058
     39 C           7.0282   -1.5264   21.1604 C.3     1  UNL1        0.0532
     40 C           7.2901   -1.0491   19.7627 C.3     1  UNL1        0.0455
     41 O           6.7999   -2.2315   17.5018 O.co2   1  UNL1       -0.5492
     42 C           7.6834   -2.0287   18.6970 C.2     1  UNL1        0.0505
     43 O           8.9600   -2.8055   18.8264 O.co2   1  UNL1       -0.5492
@<TRIPOS>UNITY_ATOM_ATTR
35 1
charge -1
41 1
charge -1
@<TRIPOS>BOND
     1    41    42   ar
     2    42    43   ar
     3    42    40    1
     4    40    39    1
     5    39    38    1
     6    38    37    1
     7    37    26    1
     8    26    27   ar
     9    27    28   ar
    10    28    29   ar
    11    29    30   ar
    12    30    25    1
    13    25    24    1
    14    24    23    1
    15    23     1    1
    16     1     2    1
    17     2     3    1
    18     3     4    1
    19     4     5    1
    20     5     6   ar
    21     6     7   ar
    22     7    17    1
    23    17    18   ar
    24    18    19   ar
    25    19    20   ar
    26    20    21   ar
    27    21    22   ar
    28     7     8   ar
    29     8     9   ar
    30     9    11    1
    31    11    12   ar
    32    12    13   ar
    33    13    14   ar
    34    14    15   ar
    35    15    16   ar
    36     9    10   ar
    37    30    31   ar
    38    31    32    1
    39    32    33    1
    40    33    34    1
    41    34    35   ar
    42    34    36   ar
    43    31    26   ar
    44    10     5   ar
    45    22    17   ar
    46    16    11   ar
@<TRIPOS>MOLECULE
*****
 43 46 0 0 0
SMALL
GASTEIGER

@<TRIPOS>ATOM
      1 C          -1.7110    3.6515   23.9603 C.3     1  UNL1        0.0038
      2 C          -1.7394    3.6007   22.4615 C.3     1  UNL1        0.0474
      3 C          -0.5219    3.1624   21.7027 C.3     1  UNL1        0.2071
      4 O          -0.2988    1.7065   21.4189 O.3     1  UNL1       -0.4602
      5 C           0.8563    0.9877   22.0505 C.ar    1  UNL1        0.2248
      6 C           1.3124    1.3663   23.4285 C.ar    1  UNL1        0.0577
      7 C           2.4675    0.6474   24.0601 C.ar    1  UNL1        0.0061
      8 C           3.1666   -0.4500   23.3137 C.ar    1  UNL1        0.0194
      9 C           2.7105   -0.8285   21.9358 C.ar    1  UNL1        0.0844
     10 N           1.5554   -0.1097   21.3042 N.ar    1  UNL1       -0.2117
     11 C           3.4097   -1.9260   21.1894 C.ar    1  UNL1        0.0178
     12 C           4.4207   -2.7839   21.8906 C.ar    1  UNL1        0.0015
     13 C           5.1198   -3.8813   21.1443 C.ar    1  UNL1        0.0000
     14 C           4.8078   -4.1207   19.6968 C.ar    1  UNL1        0.0000
     15 C           3.7968   -3.2628   18.9956 C.ar    1  UNL1        0.0000
     16 C           3.0977   -2.1654   19.7419 C.ar    1  UNL1        0.0015
     17 C           2.9236    1.0259   25.4380 C.ar    1  UNL1        0.0002
     18 C           2.9387   -0.0008   26.5315 C.ar    1  UNL1        0.0000
     19 C           3.3948    0.3778   27.9094 C.ar    1  UNL1        0.0000
     20 C           3.8357    1.7830   28.1939 C.ar    1  UNL1        0.0000
     21 C           3.8206    2.8097   27.1004 C.ar    1  UNL1        0.0000
     22 C           3.3645    2.4311   25.7224 C.ar    1  UNL1        0.0000
     23 C          -0.9252    4.7207   24.6598 C.3     1  UNL1        0.0005
     24 C           0.3176    4.3625   25.4195 C.3     1  UNL1        0.0047
     25 C           0.2931    4.3158   26.9185 C.3     1  UNL1        0.0261
     26 C           0.4474    1.5582   29.7683 C.ar    1  UNL1        0.1342
     27 C          -0.1028    0.3675   29.0406 C.ar    1  UNL1        0.0365
     28 C          -0.5210    0.4929   27.6056 C.ar    1  UNL1        0.0028
     29 C          -0.3891    1.8090   26.8982 C.ar    1  UNL1       -0.0044
     30 C           0.1611    2.9997   27.6259 C.ar    1  UNL1       -0.0232
     31 C           0.5793    2.8742   29.0609 C.ar    1  UNL1        0.0082
     32 C           1.1295    4.0650   29.7886 C.3     1  UNL1        0.0350
     33 C           0.2221    4.9185   30.6241 C.3     1  UNL1        0.0465
     34 C           0.2657    4.8184   32.1201 C.2     1  UNL1        0.0507
     35 O           1.5505    4.4697   32.8114 O.co2   1  UNL1       -0.5492
     36 O          -0.9755    5.0671   32.9249 O.co2   1  UNL1       -0.5492
     37 O           0.8656    1.4327   31.2034 O.3     1  UNL1       -0.4758
     38 C           2.2317    0.9154   31.5440 C.3     1  UNL1        0.2058
     39 C           2.8215    1.1884   32.8958 C.3     1  UNL1        0.0532
     40 C           4.1738    0.6431   33.2481 C.3     1  UNL1        0.0455
     41 O           4.9313   -0.8692   35.2202 O.co2   1  UNL1       -0.5492
     42 C           4.2955   -0.7164   33.8702 C.2     1  UNL1        0.0505
     43 O           3.7815   -1.9230   33.1423 O.co2   1  UNL1       -0.5492
@<TRIPOS>UNITY_ATOM_ATTR
35 1
charge -1
41 1
charge -1
@<TRIPOS>BOND
     1    41    42   ar
     2    42    43   ar
     3    42    40    1
     4    40    39    1
     5    39    38    1
     6    38    37    1
     7    37    26    1
     8    26    27   ar
     9    27    28   ar
    10    28    29   ar
    11    29    30   ar
    12    30    25    1
    13    25    24    1
    14    24    23    1
    15    23     1    1
    16     1     2    1
    17     2     3    1
    18     3     4    1
    19     4     5    1
    20     5     6   ar
    21     6     7   ar
    22     7    17    1
    23    17    18   ar
    24    18    19   ar
    25    19    20   ar
    26    20    21   ar
    27    21    22   ar
    28     7     8   ar
    29     8     9   ar
    30     9    11    1
    31    11    12   ar
    32    12    13   ar
    33    13    14   ar
    34    14    15   ar
    35    15    16   ar
    36     9    10   ar
    37    30    31   ar
    38    31    32    1
    39    32    33    1
    40    33    34    1
    41    34    35   ar
    42    34    36   ar
    43    31    26   ar
    44    10     5   ar
    45    22    17   ar
    46    16    11   ar
@<TRIPOS>MOLECULE
*****
 43 46 0 0 0
SMALL
GASTEIGER

@<TRIPOS>ATOM
      1 C          -5.9231  -15.1340   26.7290 C.3     1  UNL1        0.0038
      2 C          -5.1335  -15.2482   25.4589 C.3     1  UNL1        0.0474
      3 C          -4.8404  -16.5993   24.8768 C.3     1  UNL1        0.2071
      4 O          -5.8948  -17.3229   24.0928 O.3     1  UNL1       -0.4602
      5 C          -5.5722  -17.8791   22.7376 C.ar    1  UNL1        0.2248
      6 C          -6.6324  -18.5842   21.9445 C.ar    1  UNL1        0.0577
      7 C          -6.3098  -19.1403   20.5892 C.ar    1  UNL1        0.0061
      8 C          -4.9271  -18.9914   20.0271 C.ar    1  UNL1        0.0194
      9 C          -3.8670  -18.2863   20.8202 C.ar    1  UNL1        0.0844
     10 N          -4.1895  -17.7301   22.1754 N.ar    1  UNL1       -0.2117
     11 C          -2.4843  -18.1374   20.2580 C.ar    1  UNL1        0.0178
     12 C          -1.2985  -18.1255   21.1765 C.ar    1  UNL1        0.0015
     13 C           0.0841  -17.9766   20.6142 C.ar    1  UNL1        0.0000
     14 C           0.2810  -17.8395   19.1335 C.ar    1  UNL1        0.0000
     15 C          -0.9048  -17.8514   18.2150 C.ar    1  UNL1        0.0000
     16 C          -2.2875  -18.0003   18.7773 C.ar    1  UNL1        0.0015
     17 C          -7.3699  -19.8454   19.7961 C.ar    1  UNL1        0.0002
     18 C          -7.0422  -21.1159   19.0690 C.ar    1  UNL1        0.0000
     19 C          -8.1023  -21.8210   18.2760 C.ar    1  UNL1        0.0000
     20 C          -9.4902  -21.2556   18.2100 C.ar    1  UNL1        0.0000
     21 C          -9.8178  -19.9852   18.9370 C.ar    1  UNL1        0.0000
     22 C          -8.7577  -19.2801   19.7301 C.ar    1  UNL1        0.0000
     23 C          -6.6042  -16.3424   27.2999 C.3     1  UNL1        0.0005
     24 C          -7.9966  -16.6936   26.8660 C.3     1  UNL1        0.0047
     25 C          -8.8163  -15.6991   26.0986 C.3     1  UNL1        0.0261
     26 C          -9.8920  -16.9036   22.4734 C.ar    1  UNL1        0.1342
     27 C          -9.0783  -15.9810   21.6151 C.ar    1  UNL1        0.0365
     28 C          -8.1773  -14.9644   22.2513 C.ar    1  UNL1        0.0028
     29 C          -8.0900  -14.8704   23.7458 C.ar    1  UNL1       -0.0044
     30 C          -8.9036  -15.7930   24.6041 C.ar    1  UNL1       -0.0232
     31 C          -9.8046  -16.8096   23.9679 C.ar    1  UNL1        0.0082
     32 C         -10.6183  -17.7323   24.8263 C.3     1  UNL1        0.0350
     33 C         -10.0820  -19.0846   25.1917 C.3     1  UNL1        0.0465
     34 C          -9.9900  -20.1612   24.1514 C.2     1  UNL1        0.0507
     35 O          -8.6665  -20.7975   23.8455 O.co2   1  UNL1       -0.5492
     36 O         -11.2215  -20.6015   23.4168 O.co2   1  UNL1       -0.5492
     37 O         -10.7930  -17.9202   21.8372 O.3     1  UNL1       -0.4758
     38 C         -12.2251  -17.5783   21.5507 C.3     1  UNL1        0.2058
     39 C         -13.3207  -18.1849   22.3764 C.3     1  UNL1        0.0532
     40 C         -13.5585  -17.7036   23.7771 C.3     1  UNL1        0.0455
     41 O         -14.2067  -18.6694   26.1002 O.co2   1  UNL1       -0.5492
     42 C         -14.5390  -18.4179   24.6592 C.2     1  UNL1        0.0505
     43 O         -15.8519  -18.8807   24.1005 O.co2   1  UNL1       -0.5492
@<TRIPOS>UNITY_ATOM_ATTR
35 1
charge -1
41 1
charge -1
@<TRIPOS>BOND
     1    41    42   ar
     2    42    43   ar
     3    42    40    1
     4    40    39    1
     5    39    38    1
     6    38    37    1
     7    37    26    1
     8    26    27   ar
     9    27    28   ar
    10    28    29   ar
    11    29    30   ar
    12    30    25    1
    13    25    24    1
    14    24    23    1
    15    23     1    1
    16     1     2    1
    17     2     3    1
    18     3     4    1
    19     4     5    1
    20     5     6   ar
    21     6     7   ar
    22     7    17    1
    23    17    18   ar
    24    18    19   ar
    25    19    20   ar
    26    20    21   ar
    27    21    22   ar
    28     7     8   ar
    29     8     9   ar
    30     9    11    1
    31    11    12   ar
    32    12    13   ar
    33    13    14   ar
    34    14    15   ar
    35    15    16   ar
    36     9    10   ar
    37    30    31   ar
    38    31    32    1
    39    32    33    1
    40    33    34    1
    41    34    35   ar
    42    34    36   ar
    43    31    26   ar
    44    10     5   ar
    45    22    17   ar
    46    16    11   ar
@<TRIPOS>MOLECULE
*****
 43 46 0 0 0
SMALL
GASTEIGER

@<TRIPOS>ATOM
      1 C          -5.8898  -15.2805   26.7069 C.3     1  UNL1        0.0038
      2 C          -5.1501  -15.5333   25.4267 C.3     1  UNL1        0.0474
      3 C          -5.9071  -15.8803   24.1790 C.3     1  UNL1        0.2071
      4 O          -6.2130  -17.3140   23.8616 O.3     1  UNL1       -0.4602
      5 C          -5.7562  -17.9084   22.5624 C.ar    1  UNL1        0.2248
      6 C          -6.7127  -18.7036   21.7240 C.ar    1  UNL1        0.0577
      7 C          -6.2558  -19.2979   20.4247 C.ar    1  UNL1        0.0061
      8 C          -4.8426  -19.0971   19.9639 C.ar    1  UNL1        0.0194
      9 C          -3.8861  -18.3020   20.8023 C.ar    1  UNL1        0.0844
     10 N          -4.3429  -17.7076   22.1015 N.ar    1  UNL1       -0.2117
     11 C          -2.4728  -18.1012   20.3414 C.ar    1  UNL1        0.0178
     12 C          -1.3806  -17.8807   21.3456 C.ar    1  UNL1        0.0015
     13 C           0.0326  -17.6799   20.8847 C.ar    1  UNL1        0.0000
     14 C           0.3536  -17.6996   19.4195 C.ar    1  UNL1        0.0000
     15 C          -0.7386  -17.9202   18.4153 C.ar    1  UNL1        0.0000
     16 C          -2.1518  -18.1209   18.8763 C.ar    1  UNL1        0.0015
     17 C          -7.2122  -20.0931   19.5863 C.ar    1  UNL1        0.0002
     18 C          -6.8599  -21.4896   19.1670 C.ar    1  UNL1        0.0000
     19 C          -7.8164  -22.2848   18.3287 C.ar    1  UNL1        0.0000
     20 C          -9.1251  -21.6835   17.9095 C.ar    1  UNL1        0.0000
     21 C          -9.4774  -20.2870   18.3287 C.ar    1  UNL1        0.0000
     22 C          -8.5209  -19.4919   19.1671 C.ar    1  UNL1        0.0000
     23 C          -7.0325  -16.1687   27.1008 C.3     1  UNL1        0.0005
     24 C          -8.4444  -15.7361   26.8368 C.3     1  UNL1        0.0047
     25 C          -8.9912  -15.7719   25.4406 C.3     1  UNL1        0.0261
     26 C         -10.1810  -18.4547   22.7690 C.ar    1  UNL1        0.1342
     27 C         -10.2582  -19.6874   23.6202 C.ar    1  UNL1        0.0365
     28 C          -9.9132  -19.6149   25.0781 C.ar    1  UNL1        0.0028
     29 C          -9.4908  -18.3098   25.6849 C.ar    1  UNL1       -0.0044
     30 C          -9.4136  -17.0771   24.8338 C.ar    1  UNL1       -0.0232
     31 C          -9.7586  -17.1496   23.3758 C.ar    1  UNL1        0.0082
     32 C          -9.6814  -15.9168   22.5246 C.3     1  UNL1        0.0350
     33 C         -10.5752  -15.7741   21.3285 C.3     1  UNL1        0.0465
     34 C         -10.1243  -14.9671   20.1473 C.2     1  UNL1        0.0507
     35 O          -8.8745  -14.1423   20.2355 O.co2   1  UNL1       -0.5492
     36 O         -10.9231  -14.9849   18.8778 O.co2   1  UNL1       -0.5492
     37 O         -10.5261  -18.5271   21.3110 O.3     1  UNL1       -0.4758
     38 C         -11.9020  -18.1517   20.8464 C.3     1  UNL1        0.2058
     39 C         -13.1002  -18.5356   21.6631 C.3     1  UNL1        0.0532
     40 C         -13.5543  -17.6542   22.7886 C.3     1  UNL1        0.0455
     41 O         -12.9647  -18.5303   25.1624 O.co2   1  UNL1       -0.5492
     42 C         -13.9808  -18.2619   24.0920 C.2     1  UNL1        0.0505
     43 O         -15.4231  -18.6014   24.3250 O.co2   1  UNL1       -0.5492
@<TRIPOS>UNITY_ATOM_ATTR
35 1
charge -1
41 1
charge -1
@<TRIPOS>BOND
     1    41    42   ar
     2    42    43   ar
     3    42    40    1
     4    40    39    1
     5    39    38    1
     6    38    37    1
     7    37    26    1
     8    26    27   ar
     9    27    28   ar
    10    28    29   ar
    11    29    30   ar
    12    30    25    1
    13    25    24    1
    14    24    23    1
    15    23     1    1
    16     1     2    1
    17     2     3    1
    18     3     4    1
    19     4     5    1
    20     5     6   ar
    21     6     7   ar
    22     7    17    1
    23    17    18   ar
    24    18    19   ar
    25    19    20   ar
    26    20    21   ar
    27    21    22   ar
    28     7     8   ar
    29     8     9   ar
    30     9    11    1
    31    11    12   ar
    32    12    13   ar
    33    13    14   ar
    34    14    15   ar
    35    15    16   ar
    36     9    10   ar
    37    30    31   ar
    38    31    32    1
    39    32    33    1
    40    33    34    1
    41    34    35   ar
    42    34    36   ar
    43    31    26   ar
    44    10     5   ar
    45    22    17   ar
    46    16    11   ar
@<TRIPOS>MOLECULE
*****
 43 46 0 0 0
SMALL
GASTEIGER

@<TRIPOS>ATOM
      1 C           2.0332    3.1060   18.7735 C.3     1  UNL1        0.0038
      2 C           2.0677    3.9371   20.0217 C.3     1  UNL1        0.0474
      3 C           1.0695    3.6915   21.1141 C.3     1  UNL1        0.2071
      4 O           1.5400    3.3672   22.5009 O.3     1  UNL1       -0.4602
      5 C           0.5418    3.1084   23.5902 C.ar    1  UNL1        0.2248
      6 C          -0.8995    3.4719   23.3886 C.ar    1  UNL1        0.0577
      7 C          -1.8977    3.2131   24.4780 C.ar    1  UNL1        0.0061
      8 C          -1.4547    2.5908   25.7689 C.ar    1  UNL1        0.0194
      9 C          -0.0134    2.2273   25.9705 C.ar    1  UNL1        0.0844
     10 N           0.9848    2.4861   24.8812 N.ar    1  UNL1       -0.2117
     11 C           0.4296    1.6050   27.2615 C.ar    1  UNL1        0.0178
     12 C          -0.5145    0.7356   28.0378 C.ar    1  UNL1        0.0015
     13 C          -0.0714    0.1134   29.3287 C.ar    1  UNL1        0.0000
     14 C           1.3157    0.3606   29.8433 C.ar    1  UNL1        0.0000
     15 C           2.2598    1.2299   29.0669 C.ar    1  UNL1        0.0000
     16 C           1.8168    1.8522   27.7760 C.ar    1  UNL1        0.0015
     17 C          -3.3390    3.5765   24.2763 C.ar    1  UNL1        0.0002
     18 C          -3.9268    3.5752   22.8963 C.ar    1  UNL1        0.0000
     19 C          -5.3681    3.9387   22.6946 C.ar    1  UNL1        0.0000
     20 C          -6.2215    4.3035   23.8731 C.ar    1  UNL1        0.0000
     21 C          -5.6336    4.3049   25.2531 C.ar    1  UNL1        0.0000
     22 C          -4.1924    3.9414   25.4547 C.ar    1  UNL1        0.0000
     23 C           1.1092    1.9280   18.6821 C.3     1  UNL1        0.0005
     24 C           1.6692    0.5469   18.5120 C.3     1  UNL1        0.0047
     25 C           1.3355   -0.5255   19.5063 C.3     1  UNL1        0.0261
     26 C           4.2282   -1.9006   21.8497 C.ar    1  UNL1        0.1342
     27 C           3.9533   -1.1421   23.1142 C.ar    1  UNL1        0.0365
     28 C           2.8057   -0.1781   23.1761 C.ar    1  UNL1        0.0028
     29 C           1.9332    0.0274   21.9735 C.ar    1  UNL1       -0.0044
     30 C           2.2081   -0.7310   20.7090 C.ar    1  UNL1       -0.0232
     31 C           3.3557   -1.6951   20.6470 C.ar    1  UNL1        0.0082
     32 C           3.6306   -2.4536   19.3824 C.3     1  UNL1        0.0350
     33 C           3.0575   -3.8266   19.1918 C.3     1  UNL1        0.0465
     34 C           3.8389   -5.0320   19.6234 C.2     1  UNL1        0.0507
     35 O           3.1580   -6.1377   20.3745 O.co2   1  UNL1       -0.5492
     36 O           5.3011   -5.1319   19.3041 O.co2   1  UNL1       -0.5492
     37 O           5.3758   -2.8646   21.7877 O.3     1  UNL1       -0.4758
     38 C           6.7858   -2.3530   21.7842 C.3     1  UNL1        0.2058
     39 C           7.1141   -1.0638   21.0912 C.3     1  UNL1        0.0532
     40 C           6.8699   -0.9209   19.6180 C.3     1  UNL1        0.0455
     41 O           6.7992   -2.2941   17.4136 O.co2   1  UNL1       -0.5492
     42 C           7.5252   -1.8650   18.6541 C.2     1  UNL1        0.0505
     43 O           8.9066   -2.3801   18.9307 O.co2   1  UNL1       -0.5492
@<TRIPOS>UNITY_ATOM_ATTR
35 1
charge -1
41 1
charge -1
@<TRIPOS>BOND
     1    41    42   ar
     2    42    43   ar
     3    42    40    1
     4    40    39    1
     5    39    38    1
     6    38    37    1
     7    37    26    1
     8    26    27   ar
     9    27    28   ar
    10    28    29   ar
    11    29    30   ar
    12    30    25    1
    13    25    24    1
    14    24    23    1
    15    23     1    1
    16     1     2    1
    17     2     3    1
    18     3     4    1
    19     4     5    1
    20     5     6   ar
    21     6     7   ar
    22     7    17    1
    23    17    18   ar
    24    18    19   ar
    25    19    20   ar
    26    20    21   ar
    27    21    22   ar
    28     7     8   ar
    29     8     9   ar
    30     9    11    1
    31    11    12   ar
    32    12    13   ar
    33    13    14   ar
    34    14    15   ar
    35    15    16   ar
    36     9    10   ar
    37    30    31   ar
    38    31    32    1
    39    32    33    1
    40    33    34    1
    41    34    35   ar
    42    34    36   ar
    43    31    26   ar
    44    10     5   ar
    45    22    17   ar
    46    16    11   ar
@<TRIPOS>MOLECULE
*****
 43 46 0 0 0
SMALL
GASTEIGER

@<TRIPOS>ATOM
      1 C          -1.5549    5.2894   17.9141 C.3     1  UNL1        0.0038
      2 C          -2.9076    5.2236   18.5589 C.3     1  UNL1        0.0474
      3 C          -3.7724    4.0132   18.3659 C.3     1  UNL1        0.2071
      4 O          -4.2164    3.2116   19.5535 O.3     1  UNL1       -0.4602
      5 C          -3.5166    3.3717   20.8705 C.ar    1  UNL1        0.2248
      6 C          -4.2684    3.8876   22.0615 C.ar    1  UNL1        0.0577
      7 C          -3.5685    4.0477   23.3786 C.ar    1  UNL1        0.0061
      8 C          -2.1168    3.6919   23.5045 C.ar    1  UNL1        0.0194
      9 C          -1.3649    3.1760   22.3135 C.ar    1  UNL1        0.0844
     10 N          -2.0648    3.0159   20.9965 N.ar    1  UNL1       -0.2117
     11 C           0.0869    2.8202   22.4395 C.ar    1  UNL1        0.0178
     12 C           0.4885    1.5224   23.0752 C.ar    1  UNL1        0.0015
     13 C           1.9402    1.1666   23.2012 C.ar    1  UNL1        0.0000
     14 C           2.9903    2.1087   22.6915 C.ar    1  UNL1        0.0000
     15 C           2.5886    3.4066   22.0557 C.ar    1  UNL1        0.0000
     16 C           1.1369    3.7623   21.9297 C.ar    1  UNL1        0.0015
     17 C          -4.3203    4.5636   24.5696 C.ar    1  UNL1        0.0002
     18 C          -3.8424    4.2428   25.9548 C.ar    1  UNL1        0.0000
     19 C          -4.5943    4.7587   27.1458 C.ar    1  UNL1        0.0000
     20 C          -5.8240    5.5954   26.9517 C.ar    1  UNL1        0.0000
     21 C          -6.3019    5.9162   25.5665 C.ar    1  UNL1        0.0000
     22 C          -5.5500    5.4003   24.3755 C.ar    1  UNL1        0.0000
     23 C          -0.3768    4.6367   18.5743 C.3     1  UNL1        0.0005
     24 C           0.1391    3.3250   18.0610 C.3     1  UNL1        0.0047
     25 C           1.5509    2.9092   18.3506 C.3     1  UNL1        0.0261
     26 C           3.5125   -0.2337   19.7733 C.ar    1  UNL1        0.1342
     27 C           2.3748   -1.0816   20.2596 C.ar    1  UNL1        0.0365
     28 C           0.9624   -0.5992   20.1096 C.ar    1  UNL1        0.0028
     29 C           0.6878    0.7310   19.4733 C.ar    1  UNL1       -0.0044
     30 C           1.8255    1.5789   18.9870 C.ar    1  UNL1       -0.0232
     31 C           3.2379    1.0966   19.1370 C.ar    1  UNL1        0.0082
     32 C           4.3757    1.9445   18.6506 C.3     1  UNL1        0.0350
     33 C           5.3035    2.5914   19.6359 C.3     1  UNL1        0.0465
     34 C           6.7879    2.4941   19.4437 C.2     1  UNL1        0.0507
     35 O           7.3491    1.6023   18.3760 O.co2   1  UNL1       -0.5492
     36 O           7.7112    3.2886   20.3190 O.co2   1  UNL1       -0.5492
     37 O           4.9249   -0.7160   19.9233 O.3     1  UNL1       -0.4758
     38 C           5.6060   -1.4095   18.7809 C.3     1  UNL1        0.2058
     39 C           4.9455   -2.5784   18.1120 C.3     1  UNL1        0.0532
     40 C           4.6652   -3.8288   18.8919 C.3     1  UNL1        0.0455
     41 O           6.5875   -4.5652   20.4770 O.co2   1  UNL1       -0.5492
     42 C           5.2173   -3.9881   20.2774 C.2     1  UNL1        0.0505
     43 O           4.3994   -3.5704   21.4634 O.co2   1  UNL1       -0.5492
@<TRIPOS>UNITY_ATOM_ATTR
35 1
charge -1
41 1
charge -1
@<TRIPOS>BOND
     1    41    42   ar
     2    42    43   ar
     3    42    40    1
     4    40    39    1
     5    39    38    1
     6    38    37    1
     7    37    26    1
     8    26    27   ar
     9    27    28   ar
    10    28    29   ar
    11    29    30   ar
    12    30    25    1
    13    25    24    1
    14    24    23    1
    15    23     1    1
    16     1     2    1
    17     2     3    1
    18     3     4    1
    19     4     5    1
    20     5     6   ar
    21     6     7   ar
    22     7    17    1
    23    17    18   ar
    24    18    19   ar
    25    19    20   ar
    26    20    21   ar
    27    21    22   ar
    28     7     8   ar
    29     8     9   ar
    30     9    11    1
    31    11    12   ar
    32    12    13   ar
    33    13    14   ar
    34    14    15   ar
    35    15    16   ar
    36     9    10   ar
    37    30    31   ar
    38    31    32    1
    39    32    33    1
    40    33    34    1
    41    34    35   ar
    42    34    36   ar
    43    31    26   ar
    44    10     5   ar
    45    22    17   ar
    46    16    11   ar
@<TRIPOS>MOLECULE
*****
 43 46 0 0 0
SMALL
GASTEIGER

@<TRIPOS>ATOM
      1 C           4.5828   -1.5486   17.8436 C.3     1  UNL1        0.0038
      2 C           5.4300   -2.7574   18.1098 C.3     1  UNL1        0.0474
      3 C           4.7961   -4.0231   18.6061 C.3     1  UNL1        0.2071
      4 O           5.2620   -4.6416   19.8907 O.3     1  UNL1       -0.4602
      5 C           5.1194   -3.8890   21.1804 C.ar    1  UNL1        0.2248
      6 C           4.1097   -2.7859   21.2974 C.ar    1  UNL1        0.0577
      7 C           3.9671   -2.0334   22.5871 C.ar    1  UNL1        0.0061
      8 C           4.8342   -2.3839   23.7598 C.ar    1  UNL1        0.0194
      9 C           5.8439   -3.4870   23.6428 C.ar    1  UNL1        0.0844
     10 N           5.9865   -4.2395   22.3532 N.ar    1  UNL1       -0.2117
     11 C           6.7110   -3.8375   24.8156 C.ar    1  UNL1        0.0178
     12 C           7.8685   -4.7750   24.6389 C.ar    1  UNL1        0.0015
     13 C           8.7355   -5.1254   25.8116 C.ar    1  UNL1        0.0000
     14 C           8.4451   -4.5384   27.1611 C.ar    1  UNL1        0.0000
     15 C           7.2876   -3.6009   27.3378 C.ar    1  UNL1        0.0000
     16 C           6.4206   -3.2505   26.1650 C.ar    1  UNL1        0.0015
     17 C           2.9573   -0.9303   22.7041 C.ar    1  UNL1        0.0002
     18 C           2.1800   -0.4941   21.4976 C.ar    1  UNL1        0.0000
     19 C           1.1702    0.6090   21.6146 C.ar    1  UNL1        0.0000
     20 C           0.9379    1.2758   22.9381 C.ar    1  UNL1        0.0000
     21 C           1.7152    0.8396   24.1444 C.ar    1  UNL1        0.0000
     22 C           2.7250   -0.2635   24.0274 C.ar    1  UNL1        0.0000
     23 C           5.2105   -0.2958   17.3084 C.3     1  UNL1        0.0005
     24 C           5.4574    0.8686   18.2213 C.3     1  UNL1        0.0047
     25 C           4.8348    0.8970   19.5857 C.3     1  UNL1        0.0261
     26 C           6.3024    1.3048   23.2504 C.ar    1  UNL1        0.1342
     27 C           7.3881    0.2699   23.2377 C.ar    1  UNL1        0.0365
     28 C           7.6227   -0.5560   22.0077 C.ar    1  UNL1        0.0028
     29 C           6.7716   -0.3469   20.7904 C.ar    1  UNL1       -0.0044
     30 C           5.6859    0.6880   20.8030 C.ar    1  UNL1       -0.0232
     31 C           5.4513    1.5138   22.0331 C.ar    1  UNL1        0.0082
     32 C           4.3655    2.5487   22.0457 C.3     1  UNL1        0.0350
     33 C           4.7174    4.0057   21.9880 C.3     1  UNL1        0.0465
     34 C           5.9826    4.4455   21.3128 C.2     1  UNL1        0.0507
     35 O           7.0105    5.2237   22.0796 O.co2   1  UNL1       -0.5492
     36 O           6.2199    4.1071   19.8709 O.co2   1  UNL1       -0.5492
     37 O           6.0677    2.1306   24.4804 O.3     1  UNL1       -0.4758
     38 C           6.2234    1.5139   25.8388 C.3     1  UNL1        0.2058
     39 C           5.2884    0.4274   26.2808 C.3     1  UNL1        0.0532
     40 C           5.4692   -0.2176   27.6230 C.3     1  UNL1        0.0455
     41 O           3.3280   -1.6844   27.5056 O.co2   1  UNL1       -0.5492
     42 C           4.3035   -0.8714   28.3040 C.2     1  UNL1        0.0505
     43 O           4.1134   -0.7122   29.7834 O.co2   1  UNL1       -0.5492
@<TRIPOS>UNITY_ATOM_ATTR
35 1
charge -1
41 1
charge -1
@<TRIPOS>BOND
     1    41    42   ar
     2    42    43   ar
     3    42    40    1
     4    40    39    1
     5    39    38    1
     6    38    37    1
     7    37    26    1
     8    26    27   ar
     9    27    28   ar
    10    28    29   ar
    11    29    30   ar
    12    30    25    1
    13    25    24    1
    14    24    23    1
    15    23     1    1
    16     1     2    1
    17     2     3    1
    18     3     4    1
    19     4     5    1
    20     5     6   ar
    21     6     7   ar
    22     7    17    1
    23    17    18   ar
    24    18    19   ar
    25    19    20   ar
    26    20    21   ar
    27    21    22   ar
    28     7     8   ar
    29     8     9   ar
    30     9    11    1
    31    11    12   ar
    32    12    13   ar
    33    13    14   ar
    34    14    15   ar
    35    15    16   ar
    36     9    10   ar
    37    30    31   ar
    38    31    32    1
    39    32    33    1
    40    33    34    1
    41    34    35   ar
    42    34    36   ar
    43    31    26   ar
    44    10     5   ar
    45    22    17   ar
    46    16    11   ar
@<TRIPOS>MOLECULE
*****
 43 46 0 0 0
SMALL
GASTEIGER

@<TRIPOS>ATOM
      1 C           4.6267    1.3195   18.4975 C.3     1  UNL1        0.0038
      2 C           3.7918    0.3070   17.7711 C.3     1  UNL1        0.0474
      3 C           3.7580   -1.1160   18.2446 C.3     1  UNL1        0.2071
      4 O           2.8028   -1.5238   19.3268 O.3     1  UNL1       -0.4602
      5 C           3.2594   -1.5614   20.7551 C.ar    1  UNL1        0.2248
      6 C           2.5840   -0.7008   21.7813 C.ar    1  UNL1        0.0577
      7 C           3.0407   -0.7384   23.2097 C.ar    1  UNL1        0.0061
      8 C           4.1728   -1.6366   23.6117 C.ar    1  UNL1        0.0194
      9 C           4.8482   -2.4972   22.5855 C.ar    1  UNL1        0.0844
     10 N           4.3916   -2.4596   21.1572 N.ar    1  UNL1       -0.2117
     11 C           5.9803   -3.3954   22.9876 C.ar    1  UNL1        0.0178
     12 C           6.9541   -3.8824   21.9559 C.ar    1  UNL1        0.0015
     13 C           8.0861   -4.7805   22.3580 C.ar    1  UNL1        0.0000
     14 C           8.2444   -5.1916   23.7919 C.ar    1  UNL1        0.0000
     15 C           7.2706   -4.7046   24.8236 C.ar    1  UNL1        0.0000
     16 C           6.1386   -3.8065   24.4215 C.ar    1  UNL1        0.0015
     17 C           2.3653    0.1222   24.2359 C.ar    1  UNL1        0.0002
     18 C           1.0399    0.7545   23.9296 C.ar    1  UNL1        0.0000
     19 C           0.3645    1.6151   24.9559 C.ar    1  UNL1        0.0000
     20 C           1.0144    1.8434   26.2884 C.ar    1  UNL1        0.0000
     21 C           2.3397    1.2111   26.5947 C.ar    1  UNL1        0.0000
     22 C           3.0151    0.3505   25.5684 C.ar    1  UNL1        0.0000
     23 C           4.2691    2.7746   18.4290 C.3     1  UNL1        0.0005
     24 C           3.8375    3.5001   19.6690 C.3     1  UNL1        0.0047
     25 C           3.1868    2.7464   20.7908 C.3     1  UNL1        0.0261
     26 C          -0.7224    3.1004   21.3759 C.ar    1  UNL1        0.1342
     27 C          -0.7546    4.1444   22.4524 C.ar    1  UNL1        0.0365
     28 C           0.5271    4.7225   22.9750 C.ar    1  UNL1        0.0028
     29 C           1.8409    4.2565   22.4212 C.ar    1  UNL1       -0.0044
     30 C           1.8730    3.2125   21.3447 C.ar    1  UNL1       -0.0232
     31 C           0.5913    2.6344   20.8221 C.ar    1  UNL1        0.0082
     32 C           0.6235    1.5903   19.7455 C.3     1  UNL1        0.0350
     33 C           0.6232    2.0004   18.3027 C.3     1  UNL1        0.0465
     34 C           0.1518    3.3699   17.9124 C.2     1  UNL1        0.0507
     35 O           1.1457    4.4735   17.7020 O.co2   1  UNL1       -0.5492
     36 O          -1.3134    3.6357   17.7324 O.co2   1  UNL1       -0.5492
     37 O          -2.0041    2.5223   20.8533 O.3     1  UNL1       -0.4758
     38 C          -3.2180    3.3925   20.7151 C.3     1  UNL1        0.2058
     39 C          -4.3829    3.2075   21.6418 C.3     1  UNL1        0.0532
     40 C          -4.2295    3.4956   23.1060 C.3     1  UNL1        0.0455
     41 O          -6.7152    4.2207   23.3196 O.co2   1  UNL1       -0.5492
     42 C          -5.4428    3.7414   23.9531 C.2     1  UNL1        0.0505
     43 O          -5.3836    3.5079   25.4336 O.co2   1  UNL1       -0.5492
@<TRIPOS>UNITY_ATOM_ATTR
35 1
charge -1
41 1
charge -1
@<TRIPOS>BOND
     1    41    42   ar
     2    42    43   ar
     3    42    40    1
     4    40    39    1
     5    39    38    1
     6    38    37    1
     7    37    26    1
     8    26    27   ar
     9    27    28   ar
    10    28    29   ar
    11    29    30   ar
    12    30    25    1
    13    25    24    1
    14    24    23    1
    15    23     1    1
    16     1     2    1
    17     2     3    1
    18     3     4    1
    19     4     5    1
    20     5     6   ar
    21     6     7   ar
    22     7    17    1
    23    17    18   ar
    24    18    19   ar
    25    19    20   ar
    26    20    21   ar
    27    21    22   ar
    28     7     8   ar
    29     8     9   ar
    30     9    11    1
    31    11    12   ar
    32    12    13   ar
    33    13    14   ar
    34    14    15   ar
    35    15    16   ar
    36     9    10   ar
    37    30    31   ar
    38    31    32    1
    39    32    33    1
    40    33    34    1
    41    34    35   ar
    42    34    36   ar
    43    31    26   ar
    44    10     5   ar
    45    22    17   ar
    46    16    11   ar
@<TRIPOS>MOLECULE
*****
 43 46 0 0 0
SMALL
GASTEIGER

@<TRIPOS>ATOM
      1 C           4.4890    1.3105   18.6452 C.3     1  UNL1        0.0038
      2 C           3.6190    0.2394   18.0573 C.3     1  UNL1        0.0474
      3 C           3.5917   -1.1275   18.6744 C.3     1  UNL1        0.2071
      4 O           2.5953   -1.4452   19.7497 O.3     1  UNL1       -0.4602
      5 C           2.9692   -1.2759   21.1924 C.ar    1  UNL1        0.2248
      6 C           4.0385   -2.1374   21.7961 C.ar    1  UNL1        0.0577
      7 C           4.4124   -1.9681   23.2389 C.ar    1  UNL1        0.0061
      8 C           3.7171   -0.9373   24.0779 C.ar    1  UNL1        0.0194
      9 C           2.6478   -0.0758   23.4742 C.ar    1  UNL1        0.0844
     10 N           2.2739   -0.2450   22.0315 N.ar    1  UNL1       -0.2117
     11 C           1.9525    0.9551   24.3132 C.ar    1  UNL1        0.0178
     12 C           0.4550    0.9673   24.3980 C.ar    1  UNL1        0.0015
     13 C          -0.2403    1.9981   25.2370 C.ar    1  UNL1        0.0000
     14 C           0.5620    3.0167   25.9913 C.ar    1  UNL1        0.0000
     15 C           2.0595    3.0045   25.9065 C.ar    1  UNL1        0.0000
     16 C           2.7548    1.9736   25.0675 C.ar    1  UNL1        0.0015
     17 C           5.4817   -2.8296   23.8426 C.ar    1  UNL1        0.0002
     18 C           6.1452   -3.8911   23.0162 C.ar    1  UNL1        0.0000
     19 C           7.2144   -4.7526   23.6199 C.ar    1  UNL1        0.0000
     20 C           7.6202   -4.5526   25.0501 C.ar    1  UNL1        0.0000
     21 C           6.9567   -3.4911   25.8765 C.ar    1  UNL1        0.0000
     22 C           5.8875   -2.6296   25.2728 C.ar    1  UNL1        0.0000
     23 C           4.1128    2.7538   18.4858 C.3     1  UNL1        0.0005
     24 C           3.6766    3.5514   19.6789 C.3     1  UNL1        0.0047
     25 C           3.0421    2.8624   20.8504 C.3     1  UNL1        0.0261
     26 C          -0.8799    3.1985   21.3559 C.ar    1  UNL1        0.1342
     27 C          -0.9399    4.2708   22.4030 C.ar    1  UNL1        0.0365
     28 C           0.3274    4.8736   22.9326 C.ar    1  UNL1        0.0028
     29 C           1.6547    4.4042   22.4151 C.ar    1  UNL1       -0.0044
     30 C           1.7147    3.3319   21.3680 C.ar    1  UNL1       -0.0232
     31 C           0.4474    2.7290   20.8384 C.ar    1  UNL1        0.0082
     32 C           0.5075    1.6566   19.7912 C.3     1  UNL1        0.0350
     33 C           0.5238    2.0276   18.3379 C.3     1  UNL1        0.0465
     34 C           0.0404    3.3795   17.9035 C.2     1  UNL1        0.0507
     35 O           1.0256    4.4803   17.6431 O.co2   1  UNL1       -0.5492
     36 O          -1.4281    3.6306   17.7293 O.co2   1  UNL1       -0.5492
     37 O          -2.1472    2.5956   20.8262 O.3     1  UNL1       -0.4758
     38 C          -3.3688    3.4487   20.6541 C.3     1  UNL1        0.2058
     39 C          -4.5199    3.3113   21.6060 C.3     1  UNL1        0.0532
     40 C          -4.3215    3.5855   23.0673 C.3     1  UNL1        0.0455
     41 O          -6.8011    4.2885   23.3952 O.co2   1  UNL1       -0.5492
     42 C          -5.5097    3.7778   23.9624 C.2     1  UNL1        0.0505
     43 O          -5.4066    3.4595   25.4245 O.co2   1  UNL1       -0.5492
@<TRIPOS>UNITY_ATOM_ATTR
35 1
charge -1
41 1
charge -1
@<TRIPOS>BOND
     1    41    42   ar
     2    42    43   ar
     3    42    40    1
     4    40    39    1
     5    39    38    1
     6    38    37    1
     7    37    26    1
     8    26    27   ar
     9    27    28   ar
    10    28    29   ar
    11    29    30   ar
    12    30    25    1
    13    25    24    1
    14    24    23    1
    15    23     1    1
    16     1     2    1
    17     2     3    1
    18     3     4    1
    19     4     5    1
    20     5     6   ar
    21     6     7   ar
    22     7    17    1
    23    17    18   ar
    24    18    19   ar
    25    19    20   ar
    26    20    21   ar
    27    21    22   ar
    28     7     8   ar
    29     8     9   ar
    30     9    11    1
    31    11    12   ar
    32    12    13   ar
    33    13    14   ar
    34    14    15   ar
    35    15    16   ar
    36     9    10   ar
    37    30    31   ar
    38    31    32    1
    39    32    33    1
    40    33    34    1
    41    34    35   ar
    42    34    36   ar
    43    31    26   ar
    44    10     5   ar
    45    22    17   ar
    46    16    11   ar
