@<TRIPOS>MOLECULE
*****
 27 29 0 0 0
SMALL
GASTEIGER

@<TRIPOS>ATOM
      1 C          -7.2548  -15.4102   24.3169 C.ar    1  UNL1        0.0186
      2 C          -8.2885  -15.1778   25.3787 C.ar    1  UNL1        0.0105
      3 C          -7.8930  -15.1892   26.8257 C.ar    1  UNL1        0.0576
      4 CL         -8.9267  -14.9568   27.8875 Cl      1  UNL1       -0.0823
      5 C          -6.4640  -15.4331   27.2107 C.ar    1  UNL1        0.0145
      6 C          -5.4303  -15.6655   26.1489 C.ar    1  UNL1        0.0375
      7 C          -5.8257  -15.6540   24.7020 C.ar    1  UNL1        0.1354
      8 C          -7.6502  -15.3987   22.8700 C.3     1  UNL1        0.0751
      9 CA        -10.6544  -17.3838   21.2014 C.ar    1  UNL1        0.0948
     10 C         -10.0965  -18.7759   21.1791 C.ar    1  UNL1        0.0203
     11 C          -8.7232  -19.0424   21.7203 C.ar    1  UNL1        0.0028
     12 C          -7.9078  -17.9167   22.2840 C.ar    1  UNL1        0.0151
     13 C          -8.4656  -16.5245   22.3063 C.ar    1  UNL1        0.0635
     14 N          -9.8389  -16.2580   21.7651 N.ar    1  UNL1       -0.2482
     15 O         -12.2086  -16.1834   19.5004 O.co2   1  UNL1       -0.5430
     16 C         -12.0277  -17.1173   20.6601 C.2     1  UNL1        0.0905
     17 OXT       -13.2202  -17.7847   21.2786 O.co2   1  UNL1       -0.5430
     18 O          -4.7920  -15.8864   23.6401 O.3     1  UNL1       -0.4709
     19 C          -4.1826  -17.2467   23.4716 C.3     1  UNL1        0.2342
     20 C          -3.1166  -17.4683   22.4399 C.ar    1  UNL1        0.0487
     21 C          -2.2844  -16.3156   21.9617 C.ar    1  UNL1        0.0024
     22 C          -1.2183  -16.5372   20.9300 C.ar    1  UNL1        0.0113
     23 C          -0.9845  -17.9115   20.3765 C.ar    1  UNL1        0.0599
     24 CL          0.0816  -18.1332   19.3448 Cl      1  UNL1       -0.0822
     25 C          -1.8167  -19.0642   20.8546 C.ar    1  UNL1        0.0408
     26 C          -2.8827  -18.8426   21.8863 C.ar    1  UNL1        0.1404
     27 F          -3.7150  -19.9954   22.3644 F       1  UNL1       -0.2044
@<TRIPOS>UNITY_ATOM_ATTR
17 1
charge -1
@<TRIPOS>BOND
     1    15    16   ar
     2    16    17   ar
     3    16     9    1
     4     9    10   ar
     5    10    11   ar
     6    11    12   ar
     7    12    13   ar
     8    13     8    1
     9     8     1    1
    10     1     2   ar
    11     2     3   ar
    12     3     4    1
    13     3     5   ar
    14     5     6   ar
    15     6     7   ar
    16     7    18    1
    17    18    19    1
    18    19    20    1
    19    20    21   ar
    20    21    22   ar
    21    22    23   ar
    22    23    24    1
    23    23    25   ar
    24    25    26   ar
    25    26    27    1
    26    13    14   ar
    27    14     9   ar
    28     7     1   ar
    29    26    20   ar
@<TRIPOS>MOLECULE
*****
 27 29 0 0 0
SMALL
GASTEIGER

@<TRIPOS>ATOM
      1 C          -8.6011  -17.3723   24.1988 C.ar    1  UNL1        0.0186
      2 C          -8.8652  -16.6770   25.5014 C.ar    1  UNL1        0.0105
      3 C          -7.9265  -15.6126   25.9873 C.ar    1  UNL1        0.0576
      4 CL         -8.1907  -14.9173   27.2899 Cl      1  UNL1       -0.0823
      5 C          -6.7238  -15.2435   25.1705 C.ar    1  UNL1        0.0145
      6 C          -6.4597  -15.9388   23.8679 C.ar    1  UNL1        0.0375
      7 C          -7.3983  -17.0031   23.3820 C.ar    1  UNL1        0.1354
      8 C          -9.5398  -18.4366   23.7129 C.3     1  UNL1        0.0751
      9 CA        -11.0181  -17.1840   20.2495 C.ar    1  UNL1        0.0948
     10 C         -10.9187  -18.4360   19.4294 C.ar    1  UNL1        0.0203
     11 C         -10.3597  -19.6883   20.0372 C.ar    1  UNL1        0.0028
     12 C          -9.9000  -19.6885   21.4650 C.ar    1  UNL1        0.0151
     13 C          -9.9994  -18.4364   22.2851 C.ar    1  UNL1        0.0635
     14 N         -10.5585  -17.1842   21.6773 N.ar    1  UNL1       -0.2482
     15 O         -13.0494  -15.6544   19.7163 O.co2   1  UNL1       -0.5430
     16 C         -11.5772  -15.9318   19.6417 C.2     1  UNL1        0.0905
     17 OXT       -10.6640  -14.9569   18.9594 O.co2   1  UNL1       -0.5430
     18 O          -7.1342  -17.6984   22.0794 O.3     1  UNL1       -0.4709
     19 C          -6.2566  -18.9143   22.0427 C.3     1  UNL1        0.2342
     20 C          -4.8641  -18.8180   21.4936 C.ar    1  UNL1        0.0487
     21 C          -4.6063  -19.1158   20.0463 C.ar    1  UNL1        0.0024
     22 C          -3.2138  -19.0195   19.4971 C.ar    1  UNL1        0.0113
     23 C          -2.0790  -18.6252   20.3953 C.ar    1  UNL1        0.0599
     24 CL         -0.6865  -18.5289   19.8462 Cl      1  UNL1       -0.0822
     25 C          -2.3368  -18.3274   21.8427 C.ar    1  UNL1        0.0408
     26 C          -3.7293  -18.4237   22.3918 C.ar    1  UNL1        0.1404
     27 F          -3.9871  -18.1258   23.8392 F       1  UNL1       -0.2044
@<TRIPOS>UNITY_ATOM_ATTR
17 1
charge -1
@<TRIPOS>BOND
     1    15    16   ar
     2    16    17   ar
     3    16     9    1
     4     9    10   ar
     5    10    11   ar
     6    11    12   ar
     7    12    13   ar
     8    13     8    1
     9     8     1    1
    10     1     2   ar
    11     2     3   ar
    12     3     4    1
    13     3     5   ar
    14     5     6   ar
    15     6     7   ar
    16     7    18    1
    17    18    19    1
    18    19    20    1
    19    20    21   ar
    20    21    22   ar
    21    22    23   ar
    22    23    24    1
    23    23    25   ar
    24    25    26   ar
    25    26    27    1
    26    13    14   ar
    27    14     9   ar
    28     7     1   ar
    29    26    20   ar
@<TRIPOS>MOLECULE
*****
 27 29 0 0 0
SMALL
GASTEIGER

@<TRIPOS>ATOM
      1 C          -3.2708  -18.1990   22.1651 C.ar    1  UNL1        0.0186
      2 C          -2.0507  -17.4081   21.7966 C.ar    1  UNL1        0.0105
      3 C          -1.4837  -17.5056   20.4113 C.ar    1  UNL1        0.0576
      4 CL         -0.2636  -16.7147   20.0428 Cl      1  UNL1       -0.0823
      5 C          -2.1369  -18.3941   19.3945 C.ar    1  UNL1        0.0145
      6 C          -3.3570  -19.1850   19.7629 C.ar    1  UNL1        0.0375
      7 C          -3.9240  -19.0875   21.1482 C.ar    1  UNL1        0.1354
      8 C          -3.8377  -18.1015   23.5503 C.3     1  UNL1        0.0751
      9 CA         -7.0676  -15.8145   23.2539 C.ar    1  UNL1        0.0948
     10 C          -6.9419  -14.9840   24.4966 C.ar    1  UNL1        0.0203
     11 C          -5.7815  -15.1927   25.4240 C.ar    1  UNL1        0.0028
     12 C          -4.7468  -16.2318   25.1086 C.ar    1  UNL1        0.0151
     13 C          -4.8725  -17.0623   23.8658 C.ar    1  UNL1        0.0635
     14 N          -6.0329  -16.8536   22.9385 N.ar    1  UNL1       -0.2482
     15 O          -9.5767  -16.1618   22.6760 O.co2   1  UNL1       -0.5430
     16 C          -8.2280  -15.6059   22.3266 C.2     1  UNL1        0.0905
     17 OXT        -8.0398  -14.8413   21.0499 O.co2   1  UNL1       -0.5430
     18 O          -5.1441  -19.8784   21.5166 O.3     1  UNL1       -0.4709
     19 C          -6.3102  -19.9404   20.5753 C.3     1  UNL1        0.2342
     20 C          -7.7017  -19.7174   21.0893 C.ar    1  UNL1        0.0487
     21 C          -7.9845  -19.8236   22.5585 C.ar    1  UNL1        0.0024
     22 C          -9.3759  -19.6006   23.0725 C.ar    1  UNL1        0.0113
     23 C         -10.4846  -19.2715   22.1173 C.ar    1  UNL1        0.0599
     24 CL        -11.8760  -19.0486   22.6312 Cl      1  UNL1       -0.0822
     25 C         -10.2018  -19.1654   20.6480 C.ar    1  UNL1        0.0408
     26 C          -8.8103  -19.3884   20.1340 C.ar    1  UNL1        0.1404
     27 F          -8.5276  -19.2822   18.6647 F       1  UNL1       -0.2044
@<TRIPOS>UNITY_ATOM_ATTR
17 1
charge -1
@<TRIPOS>BOND
     1    15    16   ar
     2    16    17   ar
     3    16     9    1
     4     9    10   ar
     5    10    11   ar
     6    11    12   ar
     7    12    13   ar
     8    13     8    1
     9     8     1    1
    10     1     2   ar
    11     2     3   ar
    12     3     4    1
    13     3     5   ar
    14     5     6   ar
    15     6     7   ar
    16     7    18    1
    17    18    19    1
    18    19    20    1
    19    20    21   ar
    20    21    22   ar
    21    22    23   ar
    22    23    24    1
    23    23    25   ar
    24    25    26   ar
    25    26    27    1
    26    13    14   ar
    27    14     9   ar
    28     7     1   ar
    29    26    20   ar
@<TRIPOS>MOLECULE
*****
 27 29 0 0 0
SMALL
GASTEIGER

@<TRIPOS>ATOM
      1 C          -9.1067  -17.0434   22.0088 C.ar    1  UNL1        0.0186
      2 C         -10.5078  -16.9952   22.5421 C.ar    1  UNL1        0.0105
      3 C         -11.4278  -18.1626   22.3399 C.ar    1  UNL1        0.0576
      4 CL        -12.8290  -18.1144   22.8732 Cl      1  UNL1       -0.0823
      5 C         -10.9467  -19.3780   21.6043 C.ar    1  UNL1        0.0145
      6 C          -9.5455  -19.4262   21.0709 C.ar    1  UNL1        0.0375
      7 C          -8.6255  -18.2589   21.2732 C.ar    1  UNL1        0.1354
      8 C          -8.1866  -15.8761   22.2110 C.3     1  UNL1        0.0751
      9 CA         -7.4994  -15.5541   26.1064 C.ar    1  UNL1        0.0948
     10 C          -6.0099  -15.3774   26.1178 C.ar    1  UNL1        0.0203
     11 C          -5.2460  -15.3669   24.8269 C.ar    1  UNL1        0.0028
     12 C          -5.9715  -15.5331   23.5247 C.ar    1  UNL1        0.0151
     13 C          -7.4610  -15.7098   23.5133 C.ar    1  UNL1        0.0635
     14 N          -8.2249  -15.7203   24.8042 N.ar    1  UNL1       -0.2482
     15 O          -8.7553  -16.8620   27.9670 O.co2   1  UNL1       -0.5430
     16 C          -8.2633  -15.5646   27.3973 C.2     1  UNL1        0.0905
     17 OXT        -8.5351  -14.2778   28.1184 O.co2   1  UNL1       -0.5430
     18 O          -7.2244  -18.3070   20.7398 O.3     1  UNL1       -0.4709
     19 C          -6.1613  -19.0526   21.4907 C.3     1  UNL1        0.2342
     20 C          -4.7180  -18.8732   21.1236 C.ar    1  UNL1        0.0487
     21 C          -4.2819  -19.0296   19.6970 C.ar    1  UNL1        0.0024
     22 C          -2.8386  -18.8502   19.3300 C.ar    1  UNL1        0.0113
     23 C          -1.8314  -18.5144   20.3895 C.ar    1  UNL1        0.0599
     24 CL         -0.3881  -18.3350   20.0225 Cl      1  UNL1       -0.0822
     25 C          -2.2675  -18.3580   21.8162 C.ar    1  UNL1        0.0408
     26 C          -3.7108  -18.5374   22.1832 C.ar    1  UNL1        0.1404
     27 F          -4.1469  -18.3810   23.6099 F       1  UNL1       -0.2044
@<TRIPOS>UNITY_ATOM_ATTR
17 1
charge -1
@<TRIPOS>BOND
     1    15    16   ar
     2    16    17   ar
     3    16     9    1
     4     9    10   ar
     5    10    11   ar
     6    11    12   ar
     7    12    13   ar
     8    13     8    1
     9     8     1    1
    10     1     2   ar
    11     2     3   ar
    12     3     4    1
    13     3     5   ar
    14     5     6   ar
    15     6     7   ar
    16     7    18    1
    17    18    19    1
    18    19    20    1
    19    20    21   ar
    20    21    22   ar
    21    22    23   ar
    22    23    24    1
    23    23    25   ar
    24    25    26   ar
    25    26    27    1
    26    13    14   ar
    27    14     9   ar
    28     7     1   ar
    29    26    20   ar
@<TRIPOS>MOLECULE
*****
 27 29 0 0 0
SMALL
GASTEIGER

@<TRIPOS>ATOM
      1 C          -7.9896  -18.4296   22.9114 C.ar    1  UNL1        0.0186
      2 C          -7.2420  -17.1401   23.0792 C.ar    1  UNL1        0.0105
      3 C          -7.6278  -16.1860   24.1705 C.ar    1  UNL1        0.0576
      4 CL         -6.8802  -14.8965   24.3383 Cl      1  UNL1       -0.0823
      5 C          -8.7613  -16.5214   25.0938 C.ar    1  UNL1        0.0145
      6 C          -9.5090  -17.8109   24.9260 C.ar    1  UNL1        0.0375
      7 C          -9.1231  -18.7650   23.8348 C.ar    1  UNL1        0.1354
      8 C          -7.6038  -19.3838   21.8202 C.3     1  UNL1        0.0751
      9 CA         -3.7254  -18.6194   21.4679 C.ar    1  UNL1        0.0948
     10 C          -3.3012  -19.7248   20.5469 C.ar    1  UNL1        0.0203
     11 C          -4.3111  -20.7164   20.0503 C.ar    1  UNL1        0.0028
     12 C          -5.7453  -20.6028   20.4747 C.ar    1  UNL1        0.0151
     13 C          -6.1695  -19.4975   21.3957 C.ar    1  UNL1        0.0635
     14 N          -5.1596  -18.5058   21.8923 N.ar    1  UNL1       -0.2482
     15 O          -2.4093  -16.4010   21.1574 O.co2   1  UNL1       -0.5430
     16 C          -2.7154  -17.6278   21.9645 C.2     1  UNL1        0.0905
     17 OXT        -2.0117  -17.8628   23.2681 O.co2   1  UNL1       -0.5430
     18 O          -9.8708  -20.0545   23.6670 O.3     1  UNL1       -0.4709
     19 C         -11.0215  -20.1350   22.7082 C.3     1  UNL1        0.2342
     20 C         -11.3208  -18.9815   21.7973 C.ar    1  UNL1        0.0487
     21 C         -10.7767  -18.9689   20.3995 C.ar    1  UNL1        0.0024
     22 C         -11.0760  -17.8154   19.4886 C.ar    1  UNL1        0.0113
     23 C         -11.9194  -16.6745   19.9753 C.ar    1  UNL1        0.0599
     24 CL        -12.2187  -15.5210   19.0644 Cl      1  UNL1       -0.0822
     25 C         -12.4635  -16.6871   21.3731 C.ar    1  UNL1        0.0408
     26 C         -12.1642  -17.8406   22.2840 C.ar    1  UNL1        0.1404
     27 F         -12.7084  -17.8532   23.6818 F       1  UNL1       -0.2044
@<TRIPOS>UNITY_ATOM_ATTR
17 1
charge -1
@<TRIPOS>BOND
     1    15    16   ar
     2    16    17   ar
     3    16     9    1
     4     9    10   ar
     5    10    11   ar
     6    11    12   ar
     7    12    13   ar
     8    13     8    1
     9     8     1    1
    10     1     2   ar
    11     2     3   ar
    12     3     4    1
    13     3     5   ar
    14     5     6   ar
    15     6     7   ar
    16     7    18    1
    17    18    19    1
    18    19    20    1
    19    20    21   ar
    20    21    22   ar
    21    22    23   ar
    22    23    24    1
    23    23    25   ar
    24    25    26   ar
    25    26    27    1
    26    13    14   ar
    27    14     9   ar
    28     7     1   ar
    29    26    20   ar
@<TRIPOS>MOLECULE
*****
 27 29 0 0 0
SMALL
GASTEIGER

@<TRIPOS>ATOM
      1 C          -7.2855  -18.1184   22.4109 C.ar    1  UNL1        0.0186
      2 C          -7.6503  -16.8656   23.1508 C.ar    1  UNL1        0.0105
      3 C          -6.5875  -16.0721   23.8516 C.ar    1  UNL1        0.0576
      4 CL         -6.9522  -14.8193   24.5915 Cl      1  UNL1       -0.0823
      5 C          -5.1601  -16.5314   23.8124 C.ar    1  UNL1        0.0145
      6 C          -4.7954  -17.7842   23.0725 C.ar    1  UNL1        0.0375
      7 C          -5.8581  -18.5777   22.3718 C.ar    1  UNL1        0.1354
      8 C          -8.3482  -18.9120   21.7102 C.3     1  UNL1        0.0751
      9 CA        -11.4298  -16.7418   20.4674 C.ar    1  UNL1        0.0948
     10 C         -12.5205  -17.2640   21.3549 C.ar    1  UNL1        0.0203
     11 C         -12.2204  -18.3354   22.3609 C.ar    1  UNL1        0.0028
     12 C         -10.8297  -18.8848   22.4793 C.ar    1  UNL1        0.0151
     13 C          -9.7390  -18.3626   21.5918 C.ar    1  UNL1        0.0635
     14 N         -10.0390  -17.2912   20.5858 N.ar    1  UNL1       -0.2482
     15 O         -10.6071  -14.9412   18.7849 O.co2   1  UNL1       -0.5430
     16 C         -11.7298  -15.6704   19.4614 C.2     1  UNL1        0.0905
     17 OXT       -13.1525  -15.3280   19.1321 O.co2   1  UNL1       -0.5430
     18 O          -5.4933  -19.8305   21.6319 O.3     1  UNL1       -0.4709
     19 C          -4.8403  -19.7426   20.2844 C.3     1  UNL1        0.2342
     20 C          -3.4847  -19.1151   20.1474 C.ar    1  UNL1        0.0487
     21 C          -3.1878  -18.2179   18.9826 C.ar    1  UNL1        0.0024
     22 C          -1.8323  -17.5904   18.8456 C.ar    1  UNL1        0.0113
     23 C          -0.7736  -17.8602   19.8734 C.ar    1  UNL1        0.0599
     24 CL          0.5819  -17.2327   19.7365 Cl      1  UNL1       -0.0822
     25 C          -1.0705  -18.7574   21.0382 C.ar    1  UNL1        0.0408
     26 C          -2.4261  -19.3848   21.1752 C.ar    1  UNL1        0.1404
     27 F          -2.7230  -20.2821   22.3401 F       1  UNL1       -0.2044
@<TRIPOS>UNITY_ATOM_ATTR
17 1
charge -1
@<TRIPOS>BOND
     1    15    16   ar
     2    16    17   ar
     3    16     9    1
     4     9    10   ar
     5    10    11   ar
     6    11    12   ar
     7    12    13   ar
     8    13     8    1
     9     8     1    1
    10     1     2   ar
    11     2     3   ar
    12     3     4    1
    13     3     5   ar
    14     5     6   ar
    15     6     7   ar
    16     7    18    1
    17    18    19    1
    18    19    20    1
    19    20    21   ar
    20    21    22   ar
    21    22    23   ar
    22    23    24    1
    23    23    25   ar
    24    25    26   ar
    25    26    27    1
    26    13    14   ar
    27    14     9   ar
    28     7     1   ar
    29    26    20   ar
@<TRIPOS>MOLECULE
*****
 27 29 0 0 0
SMALL
GASTEIGER

@<TRIPOS>ATOM
      1 C          -7.4980  -15.5487   24.2560 C.ar    1  UNL1        0.0186
      2 C          -8.4037  -15.1912   25.3969 C.ar    1  UNL1        0.0105
      3 C          -7.8569  -15.1094   26.7914 C.ar    1  UNL1        0.0576
      4 CL         -8.7626  -14.7519   27.9324 Cl      1  UNL1       -0.0823
      5 C          -6.4044  -15.3851   27.0448 C.ar    1  UNL1        0.0145
      6 C          -5.4987  -15.7427   25.9038 C.ar    1  UNL1        0.0375
      7 C          -6.0454  -15.8245   24.5094 C.ar    1  UNL1        0.1354
      8 C          -8.0447  -15.6306   22.8616 C.3     1  UNL1        0.0751
      9 CA        -11.3158  -17.8203   23.3666 C.ar    1  UNL1        0.0948
     10 C         -12.0925  -17.4577   22.1356 C.ar    1  UNL1        0.0203
     11 C         -11.5199  -16.4861   21.1466 C.ar    1  UNL1        0.0028
     12 C         -10.1706  -15.8771   21.3886 C.ar    1  UNL1        0.0151
     13 C          -9.3940  -16.2396   22.6196 C.ar    1  UNL1        0.0635
     14 N          -9.9666  -17.2112   23.6086 N.ar    1  UNL1       -0.2482
     15 O         -11.0610  -19.9462   24.8382 O.co2   1  UNL1       -0.5430
     16 C         -11.8884  -18.7919   24.3556 C.2     1  UNL1        0.0905
     17 OXT       -13.2884  -18.6092   24.8620 O.co2   1  UNL1       -0.5430
     18 O          -5.1397  -16.1820   23.3684 O.3     1  UNL1       -0.4709
     19 C          -4.0484  -17.1921   23.5652 C.3     1  UNL1        0.2342
     20 C          -3.0478  -17.4372   22.4750 C.ar    1  UNL1        0.0487
     21 C          -2.2242  -16.3017   21.9437 C.ar    1  UNL1        0.0024
     22 C          -1.2236  -16.5468   20.8534 C.ar    1  UNL1        0.0113
     23 C          -1.0465  -17.9274   20.2945 C.ar    1  UNL1        0.0599
     24 CL         -0.0459  -18.1725   19.2042 Cl      1  UNL1       -0.0822
     25 C          -1.8701  -19.0629   20.8258 C.ar    1  UNL1        0.0408
     26 C          -2.8707  -18.8178   21.9160 C.ar    1  UNL1        0.1404
     27 F          -3.6943  -19.9534   22.4473 F       1  UNL1       -0.2044
@<TRIPOS>UNITY_ATOM_ATTR
17 1
charge -1
@<TRIPOS>BOND
     1    15    16   ar
     2    16    17   ar
     3    16     9    1
     4     9    10   ar
     5    10    11   ar
     6    11    12   ar
     7    12    13   ar
     8    13     8    1
     9     8     1    1
    10     1     2   ar
    11     2     3   ar
    12     3     4    1
    13     3     5   ar
    14     5     6   ar
    15     6     7   ar
    16     7    18    1
    17    18    19    1
    18    19    20    1
    19    20    21   ar
    20    21    22   ar
    21    22    23   ar
    22    23    24    1
    23    23    25   ar
    24    25    26   ar
    25    26    27    1
    26    13    14   ar
    27    14     9   ar
    28     7     1   ar
    29    26    20   ar
@<TRIPOS>MOLECULE
*****
 27 29 0 0 0
SMALL
GASTEIGER

@<TRIPOS>ATOM
      1 C          -6.8097  -19.9581   21.0773 C.ar    1  UNL1        0.0186
      2 C          -6.9535  -20.8445   19.8758 C.ar    1  UNL1        0.0105
      3 C          -8.1474  -20.7039   18.9786 C.ar    1  UNL1        0.0576
      4 CL         -8.2912  -21.5902   17.7770 Cl      1  UNL1       -0.0823
      5 C          -9.1975  -19.6769   19.2829 C.ar    1  UNL1        0.0145
      6 C          -9.0537  -18.7905   20.4844 C.ar    1  UNL1        0.0375
      7 C          -7.8599  -18.9311   21.3816 C.ar    1  UNL1        0.1354
      8 C          -5.6159  -20.0986   21.9744 C.3     1  UNL1        0.0751
      9 CA         -2.3616  -18.2472   20.6584 C.ar    1  UNL1        0.0948
     10 C          -2.2219  -17.1584   21.6806 C.ar    1  UNL1        0.0203
     11 C          -3.2136  -17.0497   22.8008 C.ar    1  UNL1        0.0028
     12 C          -4.3449  -18.0297   22.8987 C.ar    1  UNL1        0.0151
     13 C          -4.4845  -19.1185   21.8765 C.ar    1  UNL1        0.0635
     14 N          -3.4929  -19.2273   20.7564 N.ar    1  UNL1       -0.2482
     15 O          -1.7784  -18.0054   18.1382 O.co2   1  UNL1       -0.5430
     16 C          -1.3699  -18.3560   19.5383 C.2     1  UNL1        0.0905
     17 OXT         0.0303  -18.8153   19.8181 O.co2   1  UNL1       -0.5430
     18 O          -7.7161  -18.0447   22.5831 O.3     1  UNL1       -0.4709
     19 C          -8.7059  -16.9441   22.8259 C.3     1  UNL1        0.2342
     20 C         -10.1312  -17.2763   23.1544 C.ar    1  UNL1        0.0487
     21 C         -10.4395  -18.3009   24.2056 C.ar    1  UNL1        0.0024
     22 C         -11.8649  -18.6331   24.5341 C.ar    1  UNL1        0.0113
     23 C         -12.9820  -17.9406   23.8114 C.ar    1  UNL1        0.0599
     24 CL        -14.4074  -18.2727   24.1399 Cl      1  UNL1       -0.0822
     25 C         -12.6738  -16.9159   22.7603 C.ar    1  UNL1        0.0408
     26 C         -11.2484  -16.5837   22.4318 C.ar    1  UNL1        0.1404
     27 F         -10.9402  -15.5590   21.3806 F       1  UNL1       -0.2044
@<TRIPOS>UNITY_ATOM_ATTR
17 1
charge -1
@<TRIPOS>BOND
     1    15    16   ar
     2    16    17   ar
     3    16     9    1
     4     9    10   ar
     5    10    11   ar
     6    11    12   ar
     7    12    13   ar
     8    13     8    1
     9     8     1    1
    10     1     2   ar
    11     2     3   ar
    12     3     4    1
    13     3     5   ar
    14     5     6   ar
    15     6     7   ar
    16     7    18    1
    17    18    19    1
    18    19    20    1
    19    20    21   ar
    20    21    22   ar
    21    22    23   ar
    22    23    24    1
    23    23    25   ar
    24    25    26   ar
    25    26    27    1
    26    13    14   ar
    27    14     9   ar
    28     7     1   ar
    29    26    20   ar
@<TRIPOS>MOLECULE
*****
 27 29 0 0 0
SMALL
GASTEIGER

@<TRIPOS>ATOM
      1 C          -9.8693  -17.2971   22.3141 C.ar    1  UNL1        0.0186
      2 C         -10.8559  -17.3766   23.4411 C.ar    1  UNL1        0.0105
      3 C         -11.7817  -18.5523   23.5459 C.ar    1  UNL1        0.0576
      4 CL        -12.7683  -18.6318   24.6729 Cl      1  UNL1       -0.0823
      5 C         -11.7208  -19.6482   22.5236 C.ar    1  UNL1        0.0145
      6 C         -10.7342  -19.5687   21.3966 C.ar    1  UNL1        0.0375
      7 C          -9.8085  -18.3931   21.2918 C.ar    1  UNL1        0.1354
      8 C          -8.9435  -16.1215   22.2093 C.3     1  UNL1        0.0751
      9 CA         -5.3476  -16.2934   23.8795 C.ar    1  UNL1        0.0948
     10 C          -5.6102  -15.6099   25.1887 C.ar    1  UNL1        0.0203
     11 C          -6.9839  -15.0970   25.5047 C.ar    1  UNL1        0.0028
     12 C          -8.0950  -15.2675   24.5116 C.ar    1  UNL1        0.0151
     13 C          -7.8324  -15.9510   23.2025 C.ar    1  UNL1        0.0635
     14 N          -6.4587  -16.4639   22.8864 N.ar    1  UNL1       -0.2482
     15 O          -3.2254  -16.2663   22.3811 O.co2   1  UNL1       -0.5430
     16 C          -3.9739  -16.8063   23.5635 C.2     1  UNL1        0.0905
     17 OXT        -3.3488  -17.8592   24.4298 O.co2   1  UNL1       -0.5430
     18 O          -8.8218  -18.3136   20.1647 O.3     1  UNL1       -0.4709
     19 C          -7.9580  -19.4959   19.8392 C.3     1  UNL1        0.2342
     20 C          -6.5393  -19.5443   20.3239 C.ar    1  UNL1        0.0487
     21 C          -5.4205  -19.1393   19.4105 C.ar    1  UNL1        0.0024
     22 C          -4.0018  -19.1877   19.8951 C.ar    1  UNL1        0.0113
     23 C          -3.7018  -19.6410   21.2931 C.ar    1  UNL1        0.0599
     24 CL         -2.2831  -19.6894   21.7778 Cl      1  UNL1       -0.0822
     25 C          -4.8206  -20.0460   22.2065 C.ar    1  UNL1        0.0408
     26 C          -6.2393  -19.9976   21.7219 C.ar    1  UNL1        0.1404
     27 F          -7.3581  -20.4027   22.6353 F       1  UNL1       -0.2044
@<TRIPOS>UNITY_ATOM_ATTR
17 1
charge -1
@<TRIPOS>BOND
     1    15    16   ar
     2    16    17   ar
     3    16     9    1
     4     9    10   ar
     5    10    11   ar
     6    11    12   ar
     7    12    13   ar
     8    13     8    1
     9     8     1    1
    10     1     2   ar
    11     2     3   ar
    12     3     4    1
    13     3     5   ar
    14     5     6   ar
    15     6     7   ar
    16     7    18    1
    17    18    19    1
    18    19    20    1
    19    20    21   ar
    20    21    22   ar
    21    22    23   ar
    22    23    24    1
    23    23    25   ar
    24    25    26   ar
    25    26    27    1
    26    13    14   ar
    27    14     9   ar
    28     7     1   ar
    29    26    20   ar
