@<TRIPOS>MOLECULE
*****
 29 32 0 0 0
SMALL
GASTEIGER

@<TRIPOS>ATOM
      1 C          -7.6334  -18.4819   22.2954 C.3     1  UNL1        0.2026
      2 C          -8.4327  -18.8877   21.0927 C.ar    1  UNL1        0.0163
      3 C          -8.2520  -19.9915   20.0933 C.ar    1  UNL1        0.0104
      4 C          -9.2339  -20.1555   18.9713 C.ar    1  UNL1        0.0583
      5 CL         -9.0533  -21.2594   17.9719 Cl      1  UNL1       -0.0822
      6 C         -10.3966  -19.2157   18.8488 C.ar    1  UNL1        0.0224
      7 C         -10.5772  -18.1118   19.8482 C.ar    1  UNL1        0.0544
      8 CL        -11.7399  -17.1720   19.7256 Cl      1  UNL1       -0.0826
      9 C          -9.5953  -17.9478   20.9701 C.ar    1  UNL1       -0.0106
     10 C          -9.5146  -16.9612   22.0971 C.3     1  UNL1        0.0470
     11 C          -8.3021  -17.2913   22.9162 C.3     1  UNL1        0.1066
     12 N          -7.8394  -16.5593   24.1410 N.3     1  UNL1       -0.2682
     13 C          -8.5497  -16.5129   25.4614 C.3     1  UNL1        0.0748
     14 C          -7.7346  -15.6701   26.3969 C.3     1  UNL1        0.0480
     15 C          -6.5205  -15.1955   25.6547 C.3     1  UNL1        0.1278
     16 O          -5.4326  -14.3244   26.2093 O.3     1  UNL1       -0.3830
     17 C          -6.5853  -15.7451   24.2605 C.3     1  UNL1        0.1018
     18 H          -4.7651  -14.1649   25.5239 H       1  UNL1        0.2104
     19 O          -6.3847  -19.1495   22.7905 O.3     1  UNL1       -0.4734
     20 C          -2.3925  -18.0400   21.0352 C.ar    1  UNL1        0.1059
     21 C          -2.7305  -17.6415   22.4412 C.ar    1  UNL1        0.0215
     22 C          -4.0612  -18.0114   23.0264 C.ar    1  UNL1        0.0382
     23 C          -5.0541  -18.7797   22.2054 C.ar    1  UNL1        0.1390
     24 C          -4.7161  -19.1781   20.7993 C.ar    1  UNL1        0.0382
     25 C          -3.3854  -18.8083   20.2142 C.ar    1  UNL1        0.0215
     26 C           0.2689  -17.3003   19.8649 C.3     1  UNL1        0.1816
     27 S          -1.0618  -17.6701   20.4501 S.O2    1  UNL1        0.0105
     28 O          -1.2146  -16.2764   20.9833 O.2     1  UNL1       -0.1686
     29 O          -0.9090  -19.0638   19.9168 O.2     1  UNL1       -0.1686
@<TRIPOS>BOND
     1    26    27    1
     2    27    28    2
     3    27    29    2
     4    27    20    1
     5    20    21   ar
     6    21    22   ar
     7    22    23   ar
     8    23    19    1
     9     1    19    1
    10     1     2    1
    11     2     3   ar
    12     3     4   ar
    13     4     5    1
    14     4     6   ar
    15     6     7   ar
    16     7     8    1
    17     7     9   ar
    18     9    10    1
    19    10    11    1
    20    11    12    1
    21    12    13    1
    22    13    14    1
    23    14    15    1
    24    15    16    1
    25    15    17    1
    26    23    24   ar
    27    24    25   ar
    28    25    20   ar
    29    11     1    1
    30    17    12    1
    31     9     2   ar
    32    16    18    1
@<TRIPOS>MOLECULE
*****
 29 32 0 0 0
SMALL
GASTEIGER

@<TRIPOS>ATOM
      1 C           2.8467    0.0595   31.5946 C.3     1  UNL1        0.2026
      2 C           2.3734    1.3501   32.1950 C.ar    1  UNL1        0.0163
      3 C           1.1513    2.1837   31.9472 C.ar    1  UNL1        0.0104
      4 C           0.9417    3.4544   32.7162 C.ar    1  UNL1        0.0583
      5 CL         -0.2804    4.2882   32.4684 Cl      1  UNL1       -0.0822
      6 C           1.9542    3.8915   33.7329 C.ar    1  UNL1        0.0224
      7 C           3.1763    3.0578   33.9807 C.ar    1  UNL1        0.0544
      8 CL          4.1889    3.4948   34.9975 Cl      1  UNL1       -0.0826
      9 C           3.3859    1.7871   33.2118 C.ar    1  UNL1       -0.0106
     10 C           4.4849    0.7666   33.2398 C.3     1  UNL1        0.0470
     11 C           4.1517   -0.3011   32.2403 C.3     1  UNL1        0.1066
     12 N           4.9783   -1.5161   31.9394 N.3     1  UNL1       -0.2682
     13 C           5.8000   -1.7398   30.7046 C.3     1  UNL1        0.0748
     14 C           6.4579   -3.0826   30.8225 C.3     1  UNL1        0.0480
     15 C           6.0427   -3.6889   32.1302 C.3     1  UNL1        0.1278
     16 O           6.4675   -5.0282   32.6555 O.3     1  UNL1       -0.3830
     17 C           5.1283   -2.7208   32.8205 C.3     1  UNL1        0.1018
     18 H           6.0580   -5.1806   33.5215 H       1  UNL1        0.2104
     19 O           2.1391   -0.7316   30.5346 O.3     1  UNL1       -0.4734
     20 C           0.1059    1.3883   27.1255 C.ar    1  UNL1        0.1059
     21 C          -0.6962    0.5370   28.0646 C.ar    1  UNL1        0.0215
     22 C          -0.0185   -0.1696   29.2010 C.ar    1  UNL1        0.0382
     23 C           1.4614   -0.0250   29.3983 C.ar    1  UNL1        0.1390
     24 C           2.2636    0.8263   28.4592 C.ar    1  UNL1        0.0382
     25 C           1.5859    1.5329   27.3228 C.ar    1  UNL1        0.0215
     26 C          -1.2495    2.8015   24.8527 C.3     1  UNL1        0.1816
     27 S          -0.5718    2.0949   25.9891 S.O2    1  UNL1        0.0105
     28 O          -1.5499    2.7028   26.9504 O.2     1  UNL1       -0.1686
     29 O           0.4062    1.4870   25.0279 O.2     1  UNL1       -0.1686
@<TRIPOS>BOND
     1    26    27    1
     2    27    28    2
     3    27    29    2
     4    27    20    1
     5    20    21   ar
     6    21    22   ar
     7    22    23   ar
     8    23    19    1
     9     1    19    1
    10     1     2    1
    11     2     3   ar
    12     3     4   ar
    13     4     5    1
    14     4     6   ar
    15     6     7   ar
    16     7     8    1
    17     7     9   ar
    18     9    10    1
    19    10    11    1
    20    11    12    1
    21    12    13    1
    22    13    14    1
    23    14    15    1
    24    15    16    1
    25    15    17    1
    26    23    24   ar
    27    24    25   ar
    28    25    20   ar
    29    11     1    1
    30    17    12    1
    31     9     2   ar
    32    16    18    1
