@<TRIPOS>MOLECULE
*****
 35 37 0 0 0
SMALL
GASTEIGER

@<TRIPOS>ATOM
      1 C           6.0405   -3.8474   22.1639 C.3     1  UNL1        0.1556
      2 O           7.1016   -4.7574   22.7081 O.3     1  UNL1       -0.3805
      3 H           6.8805   -5.0028   23.6201 H       1  UNL1        0.2105
      4 C           6.1489   -3.3225   20.7629 C.3     1  UNL1        0.1729
      5 O           5.2883   -2.1753   20.3231 O.3     1  UNL1       -0.3492
      6 C           3.6928   -3.8049   19.0787 C.3     1  UNL1        0.0370
      7 C           3.9886   -2.4385   19.6220 C.3     1  UNL1        0.1373
      8 C           2.9848   -1.3351   19.4642 C.ar    1  UNL1        0.0006
      9 C           1.9838   -1.0709   20.5498 C.ar    1  UNL1       -0.0023
     10 C           0.9800    0.0324   20.3920 C.ar    1  UNL1       -0.0003
     11 C           0.9771    0.8716   19.1487 C.ar    1  UNL1       -0.0003
     12 C           1.9780    0.6074   18.0632 C.ar    1  UNL1       -0.0045
     13 C           2.9819   -0.4960   18.2210 C.ar    1  UNL1       -0.0235
     14 C           3.9828   -0.7601   17.1355 C.3     1  UNL1        0.0320
     15 C           5.2583    0.0276   17.0835 C.3     1  UNL1        0.0464
     16 C           6.5502   -0.6084   17.5038 C.2     1  UNL1        0.0507
     17 O           7.6303    0.2271   18.1246 O.co2   1  UNL1       -0.5492
     18 O           6.7619   -2.0798   17.3034 O.co2   1  UNL1       -0.5492
     19 C           4.8710   -3.4624   23.0206 C.3     1  UNL1        0.1007
     20 N           5.0871   -2.6527   24.2648 N.3     1  UNL1       -0.2972
     21 H           6.0471   -2.8233   24.5641 H       1  UNL1        0.1233
     22 C           4.9014   -1.1646   24.2328 C.3     1  UNL1        0.0461
     23 C           3.5012   -1.3501   23.7278 C.3     1  UNL1        0.0161
     24 C           6.3017   -0.9790   24.7377 C.3     1  UNL1        0.0161
     25 C           4.7158    0.3236   24.2008 C.3     1  UNL1        0.0408
     26 C           4.5821    1.0346   22.8867 C.ar    1  UNL1       -0.0209
     27 C           5.5770    0.7822   21.7928 C.ar    1  UNL1       -0.0042
     28 C           5.4434    1.4932   20.4789 C.ar    1  UNL1       -0.0003
     29 C           4.3149    2.4567   20.2587 C.ar    1  UNL1       -0.0000
     30 C           4.1813    3.1677   18.9447 C.ar    1  UNL1       -0.0000
     31 C           3.0529    4.1310   18.7246 C.ar    1  UNL1       -0.0000
     32 C           2.0581    4.3834   19.8185 C.ar    1  UNL1       -0.0000
     33 C           2.1917    3.6724   21.1325 C.ar    1  UNL1       -0.0000
     34 C           3.3201    2.7091   21.3526 C.ar    1  UNL1       -0.0003
     35 C           3.4537    1.9980   22.6666 C.ar    1  UNL1       -0.0042
@<TRIPOS>UNITY_ATOM_ATTR
17 1
charge -1
@<TRIPOS>BOND
     1     7     6    1
     2     7     5    1
     3     5     4    1
     4     4     1    1
     5     1     2    1
     6     1    19    1
     7    19    20    1
     8    20    22    1
     9    22    23    1
    10    22    24    1
    11    22    25    1
    12    25    26    1
    13    26    27   ar
    14    27    28   ar
    15    28    29   ar
    16    29    30   ar
    17    30    31   ar
    18    31    32   ar
    19    32    33   ar
    20    33    34   ar
    21    34    35   ar
    22     7     8    1
    23     8     9   ar
    24     9    10   ar
    25    10    11   ar
    26    11    12   ar
    27    12    13   ar
    28    13    14    1
    29    14    15    1
    30    15    16    1
    31    16    17   ar
    32    16    18   ar
    33    35    26   ar
    34    13     8   ar
    35    34    29   ar
    36     2     3    1
    37    20    21    1
@<TRIPOS>MOLECULE
*****
 35 37 0 0 0
SMALL
GASTEIGER

@<TRIPOS>ATOM
      1 C           7.1911   -4.3486   22.8915 C.3     1  UNL1        0.1556
      2 O           7.6885   -5.6767   23.3801 O.3     1  UNL1       -0.3805
      3 H           8.0190   -6.1943   22.6293 H       1  UNL1        0.2105
      4 C           6.6251   -3.3559   23.8632 C.3     1  UNL1        0.1729
      5 O           6.3255   -1.9558   23.4162 O.3     1  UNL1       -0.3492
      6 C           4.0010   -2.7283   22.5500 C.3     1  UNL1        0.0370
      7 C           5.0004   -1.6358   22.7901 C.3     1  UNL1        0.1373
      8 C           4.6749   -0.2234   22.4040 C.ar    1  UNL1        0.0006
      9 C           5.4616    0.4594   21.3248 C.ar    1  UNL1       -0.0023
     10 C           5.1360    1.8719   20.9387 C.ar    1  UNL1       -0.0003
     11 C           4.0237    2.6015   21.6320 C.ar    1  UNL1       -0.0003
     12 C           3.2370    1.9186   22.7112 C.ar    1  UNL1       -0.0045
     13 C           3.5626    0.5061   23.0972 C.ar    1  UNL1       -0.0235
     14 C           2.7759   -0.1767   24.1765 C.3     1  UNL1        0.0320
     15 C           3.0355    0.1529   25.6167 C.3     1  UNL1        0.0464
     16 C           3.9071   -0.7432   26.4458 C.2     1  UNL1        0.0507
     17 O           3.2893   -1.6705   27.4500 O.co2   1  UNL1       -0.5492
     18 O           5.3965   -0.7120   26.2706 O.co2   1  UNL1       -0.5492
     19 C           7.2596   -4.0131   21.4311 C.3     1  UNL1        0.1007
     20 N           6.2323   -4.5629   20.4863 N.3     1  UNL1       -0.2972
     21 H           5.3974   -4.7565   21.0392 H       1  UNL1        0.1233
     22 C           5.7905   -3.7521   19.3041 C.3     1  UNL1        0.0461
     23 C           4.7980   -4.8176   18.9443 C.3     1  UNL1        0.0161
     24 C           6.7831   -2.6866   19.6640 C.3     1  UNL1        0.0161
     25 C           5.3487   -2.9413   18.1220 C.3     1  UNL1        0.0408
     26 C           4.4485   -1.7576   18.3187 C.ar    1  UNL1       -0.0209
     27 C           4.6847   -0.4980   17.5392 C.ar    1  UNL1       -0.0042
     28 C           3.7846    0.6856   17.7358 C.ar    1  UNL1       -0.0003
     29 C           2.6482    0.6097   18.7119 C.ar    1  UNL1       -0.0000
     30 C           1.7481    1.7934   18.9085 C.ar    1  UNL1       -0.0000
     31 C           0.6117    1.7175   19.8847 C.ar    1  UNL1       -0.0000
     32 C           0.3755    0.4579   20.6642 C.ar    1  UNL1       -0.0000
     33 C           1.2756   -0.7258   20.4676 C.ar    1  UNL1       -0.0000
     34 C           2.4119   -0.6499   19.4915 C.ar    1  UNL1       -0.0003
     35 C           3.3121   -1.8336   19.2948 C.ar    1  UNL1       -0.0042
@<TRIPOS>UNITY_ATOM_ATTR
17 1
charge -1
@<TRIPOS>BOND
     1     7     6    1
     2     7     5    1
     3     5     4    1
     4     4     1    1
     5     1     2    1
     6     1    19    1
     7    19    20    1
     8    20    22    1
     9    22    23    1
    10    22    24    1
    11    22    25    1
    12    25    26    1
    13    26    27   ar
    14    27    28   ar
    15    28    29   ar
    16    29    30   ar
    17    30    31   ar
    18    31    32   ar
    19    32    33   ar
    20    33    34   ar
    21    34    35   ar
    22     7     8    1
    23     8     9   ar
    24     9    10   ar
    25    10    11   ar
    26    11    12   ar
    27    12    13   ar
    28    13    14    1
    29    14    15    1
    30    15    16    1
    31    16    17   ar
    32    16    18   ar
    33    35    26   ar
    34    13     8   ar
    35    34    29   ar
    36     2     3    1
    37    20    21    1
@<TRIPOS>MOLECULE
*****
 35 37 0 0 0
SMALL
GASTEIGER

@<TRIPOS>ATOM
      1 C           6.9202   -0.9615   17.9190 C.3     1  UNL1        0.1556
      2 O           6.8507   -2.3965   17.4878 O.3     1  UNL1       -0.3805
      3 H           7.3181   -2.9508   18.1322 H       1  UNL1        0.2105
      4 C           6.2698    0.1039   17.0871 C.3     1  UNL1        0.1729
      5 O           4.7994    0.3679   17.2225 O.3     1  UNL1       -0.3492
      6 C           5.1273    2.3533   18.8659 C.3     1  UNL1        0.0370
      7 C           4.2910    1.2216   18.3462 C.3     1  UNL1        0.1373
      8 C           2.9465    0.9437   18.9503 C.ar    1  UNL1        0.0006
      9 C           1.8061    1.8877   18.7085 C.ar    1  UNL1       -0.0023
     10 C           0.4615    1.6098   19.3125 C.ar    1  UNL1       -0.0003
     11 C           0.2573    0.3879   20.1583 C.ar    1  UNL1       -0.0003
     12 C           1.3977   -0.5561   20.4001 C.ar    1  UNL1       -0.0045
     13 C           2.7423   -0.2781   19.7960 C.ar    1  UNL1       -0.0235
     14 C           3.8827   -1.2220   20.0378 C.3     1  UNL1        0.0320
     15 C           3.6098   -2.6362   20.4572 C.3     1  UNL1        0.0464
     16 C           4.1264   -3.7765   19.6309 C.2     1  UNL1        0.0507
     17 O           3.1677   -4.7583   19.0251 O.co2   1  UNL1       -0.5492
     18 O           5.6016   -3.9350   19.4103 O.co2   1  UNL1       -0.5492
     19 C           7.6401   -0.5918   19.1819 C.3     1  UNL1        0.1007
     20 N           7.5122   -1.4589   20.3993 N.3     1  UNL1       -0.2972
     21 H           8.4325   -1.8644   20.5699 H       1  UNL1        0.1233
     22 C           7.0530   -0.8653   21.6981 C.3     1  UNL1        0.0461
     23 C           6.6963   -2.2340   22.1975 C.3     1  UNL1        0.0161
     24 C           7.4098    0.5034   21.1986 C.3     1  UNL1        0.0161
     25 C           6.5939   -0.2716   22.9968 C.3     1  UNL1        0.0408
     26 C           5.1542    0.1074   23.1808 C.ar    1  UNL1       -0.0209
     27 C           4.2368   -0.7875   23.9602 C.ar    1  UNL1       -0.0042
     28 C           2.7972   -0.4086   24.1442 C.ar    1  UNL1       -0.0003
     29 C           2.2749    0.8653   23.5487 C.ar    1  UNL1       -0.0000
     30 C           0.8353    1.2443   23.7327 C.ar    1  UNL1       -0.0000
     31 C           0.3131    2.5181   23.1372 C.ar    1  UNL1       -0.0000
     32 C           1.2305    3.4130   22.3578 C.ar    1  UNL1       -0.0000
     33 C           2.6701    3.0340   22.1738 C.ar    1  UNL1       -0.0000
     34 C           3.1923    1.7602   22.7693 C.ar    1  UNL1       -0.0003
     35 C           4.6320    1.3812   22.5853 C.ar    1  UNL1       -0.0042
@<TRIPOS>UNITY_ATOM_ATTR
17 1
charge -1
@<TRIPOS>BOND
     1     7     6    1
     2     7     5    1
     3     5     4    1
     4     4     1    1
     5     1     2    1
     6     1    19    1
     7    19    20    1
     8    20    22    1
     9    22    23    1
    10    22    24    1
    11    22    25    1
    12    25    26    1
    13    26    27   ar
    14    27    28   ar
    15    28    29   ar
    16    29    30   ar
    17    30    31   ar
    18    31    32   ar
    19    32    33   ar
    20    33    34   ar
    21    34    35   ar
    22     7     8    1
    23     8     9   ar
    24     9    10   ar
    25    10    11   ar
    26    11    12   ar
    27    12    13   ar
    28    13    14    1
    29    14    15    1
    30    15    16    1
    31    16    17   ar
    32    16    18   ar
    33    35    26   ar
    34    13     8   ar
    35    34    29   ar
    36     2     3    1
    37    20    21    1
@<TRIPOS>MOLECULE
*****
 35 37 0 0 0
SMALL
GASTEIGER

@<TRIPOS>ATOM
      1 C           7.9089   -2.7958   20.5982 C.3     1  UNL1        0.1556
      2 O           9.2233   -2.5108   19.9339 O.3     1  UNL1       -0.3805
      3 H           9.9141   -2.4214   20.6090 H       1  UNL1        0.2105
      4 C           6.6730   -2.9780   19.7680 C.3     1  UNL1        0.1729
      5 O           5.5395   -2.0026   19.8862 O.3     1  UNL1       -0.3492
      6 C           3.9010   -3.7772   18.9291 C.3     1  UNL1        0.0370
      7 C           4.1734   -2.3768   19.3923 C.3     1  UNL1        0.1373
      8 C           3.0799   -1.3506   19.3617 C.ar    1  UNL1        0.0006
      9 C           2.0191   -1.3530   20.4222 C.ar    1  UNL1       -0.0023
     10 C           0.9255   -0.3268   20.3916 C.ar    1  UNL1       -0.0003
     11 C           0.8927    0.7019   19.3004 C.ar    1  UNL1       -0.0003
     12 C           1.9535    0.7044   18.2398 C.ar    1  UNL1       -0.0045
     13 C           3.0471   -0.3219   18.2705 C.ar    1  UNL1       -0.0235
     14 C           4.1079   -0.3194   17.2100 C.3     1  UNL1        0.0320
     15 C           5.2279    0.6766   17.2718 C.3     1  UNL1        0.0464
     16 C           6.6520    0.2074   17.2292 C.2     1  UNL1        0.0507
     17 O           7.7718    1.2045   17.2736 O.co2   1  UNL1       -0.5492
     18 O           6.9563   -1.2588   17.1423 O.co2   1  UNL1       -0.5492
     19 C           7.8305   -2.8985   22.0926 C.3     1  UNL1        0.1007
     20 N           6.6630   -3.5855   22.7369 N.3     1  UNL1       -0.2972
     21 H           7.0470   -4.2824   23.3752 H       1  UNL1        0.1233
     22 C           5.6614   -2.7880   23.5184 C.3     1  UNL1        0.0461
     23 C           4.5456   -3.4640   22.7781 C.3     1  UNL1        0.0161
     24 C           6.7772   -2.1119   24.2586 C.3     1  UNL1        0.0161
     25 C           4.6597   -1.9904   24.2998 C.3     1  UNL1        0.0408
     26 C           4.0492   -0.7586   23.6997 C.ar    1  UNL1       -0.0209
     27 C           2.7741   -0.2034   24.2618 C.ar    1  UNL1       -0.0042
     28 C           2.1637    1.0283   23.6617 C.ar    1  UNL1       -0.0003
     29 C           2.8283    1.7049   22.4995 C.ar    1  UNL1       -0.0000
     30 C           2.2178    2.9367   21.8995 C.ar    1  UNL1       -0.0000
     31 C           2.8824    3.6132   20.7374 C.ar    1  UNL1       -0.0000
     32 C           4.1574    3.0580   20.1753 C.ar    1  UNL1       -0.0000
     33 C           4.7679    1.8263   20.7754 C.ar    1  UNL1       -0.0000
     34 C           4.1033    1.1497   21.9375 C.ar    1  UNL1       -0.0003
     35 C           4.7138   -0.0821   22.5376 C.ar    1  UNL1       -0.0042
@<TRIPOS>UNITY_ATOM_ATTR
17 1
charge -1
@<TRIPOS>BOND
     1     7     6    1
     2     7     5    1
     3     5     4    1
     4     4     1    1
     5     1     2    1
     6     1    19    1
     7    19    20    1
     8    20    22    1
     9    22    23    1
    10    22    24    1
    11    22    25    1
    12    25    26    1
    13    26    27   ar
    14    27    28   ar
    15    28    29   ar
    16    29    30   ar
    17    30    31   ar
    18    31    32   ar
    19    32    33   ar
    20    33    34   ar
    21    34    35   ar
    22     7     8    1
    23     8     9   ar
    24     9    10   ar
    25    10    11   ar
    26    11    12   ar
    27    12    13   ar
    28    13    14    1
    29    14    15    1
    30    15    16    1
    31    16    17   ar
    32    16    18   ar
    33    35    26   ar
    34    13     8   ar
    35    34    29   ar
    36     2     3    1
    37    20    21    1
@<TRIPOS>MOLECULE
*****
 35 37 0 0 0
SMALL
GASTEIGER

@<TRIPOS>ATOM
      1 C           5.5402   -2.5783   18.0331 C.3     1  UNL1        0.1556
      2 O           6.8861   -2.2112   17.4818 O.3     1  UNL1       -0.3805
      3 H           7.5224   -2.9139   17.6874 H       1  UNL1        0.2105
      4 C           4.3756   -1.6513   17.8478 C.3     1  UNL1        0.1729
      5 O           4.5336   -0.4021   17.0327 O.3     1  UNL1       -0.3492
      6 C           6.3821    1.3797   16.6346 C.3     1  UNL1        0.0370
      7 C           5.3844    0.7233   17.5423 C.3     1  UNL1        0.1373
      8 C           5.2375    1.1924   18.9594 C.ar    1  UNL1        0.0006
      9 C           6.1413    0.6498   20.0265 C.ar    1  UNL1       -0.0023
     10 C           5.9944    1.1188   21.4437 C.ar    1  UNL1       -0.0003
     11 C           4.9437    2.1305   21.7938 C.ar    1  UNL1       -0.0003
     12 C           4.0399    2.6731   20.7267 C.ar    1  UNL1       -0.0045
     13 C           4.1868    2.2040   19.3094 C.ar    1  UNL1       -0.0235
     14 C           3.2830    2.7466   18.2423 C.3     1  UNL1        0.0320
     15 C           2.7955    4.1630   18.3212 C.3     1  UNL1        0.0464
     16 C           1.3527    4.4440   18.6201 C.2     1  UNL1        0.0507
     17 O           0.2839    3.9471   17.6922 O.co2   1  UNL1       -0.5492
     18 O           0.9786    5.2219   19.8468 O.co2   1  UNL1       -0.5492
     19 C           5.3590   -3.8724   18.7696 C.3     1  UNL1        0.1007
     20 N           6.0393   -4.0859   20.0893 N.3     1  UNL1       -0.2972
     21 H           6.9782   -3.6968   20.0030 H       1  UNL1        0.1233
     22 C           5.4456   -3.5106   21.3409 C.3     1  UNL1        0.0461
     23 C           6.6257   -2.5952   21.4800 C.3     1  UNL1        0.0161
     24 C           4.2654   -4.4259   21.2018 C.3     1  UNL1        0.0161
     25 C           4.8518   -2.9352   22.5925 C.3     1  UNL1        0.0408
     26 C           3.8408   -1.8306   22.5039 C.ar    1  UNL1       -0.0209
     27 C           3.5162   -1.0119   23.7181 C.ar    1  UNL1       -0.0042
     28 C           2.5054    0.0928   23.6296 C.ar    1  UNL1       -0.0003
     29 C           1.8190    0.3787   22.3268 C.ar    1  UNL1       -0.0000
     30 C           0.8081    1.4833   22.2383 C.ar    1  UNL1       -0.0000
     31 C           0.1218    1.7692   20.9356 C.ar    1  UNL1       -0.0000
     32 C           0.4464    0.9505   19.7213 C.ar    1  UNL1       -0.0000
     33 C           1.4573   -0.1541   19.8098 C.ar    1  UNL1       -0.0000
     34 C           2.1436   -0.4400   21.1126 C.ar    1  UNL1       -0.0003
     35 C           3.1545   -1.5447   21.2012 C.ar    1  UNL1       -0.0042
@<TRIPOS>UNITY_ATOM_ATTR
17 1
charge -1
@<TRIPOS>BOND
     1     7     6    1
     2     7     5    1
     3     5     4    1
     4     4     1    1
     5     1     2    1
     6     1    19    1
     7    19    20    1
     8    20    22    1
     9    22    23    1
    10    22    24    1
    11    22    25    1
    12    25    26    1
    13    26    27   ar
    14    27    28   ar
    15    28    29   ar
    16    29    30   ar
    17    30    31   ar
    18    31    32   ar
    19    32    33   ar
    20    33    34   ar
    21    34    35   ar
    22     7     8    1
    23     8     9   ar
    24     9    10   ar
    25    10    11   ar
    26    11    12   ar
    27    12    13   ar
    28    13    14    1
    29    14    15    1
    30    15    16    1
    31    16    17   ar
    32    16    18   ar
    33    35    26   ar
    34    13     8   ar
    35    34    29   ar
    36     2     3    1
    37    20    21    1
@<TRIPOS>MOLECULE
*****
 35 37 0 0 0
SMALL
GASTEIGER

@<TRIPOS>ATOM
      1 C           5.4544   -3.2575   23.4162 C.3     1  UNL1        0.1556
      2 O           5.7558   -3.6147   24.8416 O.3     1  UNL1       -0.3805
      3 H           6.6360   -4.0188   24.8944 H       1  UNL1        0.2105
      4 C           4.1457   -2.6143   23.0648 C.3     1  UNL1        0.1729
      5 O           3.6394   -1.4551   23.8709 O.3     1  UNL1       -0.3492
      6 C           5.3203    0.1294   25.0601 C.3     1  UNL1        0.0370
      7 C           4.4125   -0.1700   23.9041 C.3     1  UNL1        0.1373
      8 C           4.2778    0.8155   22.7814 C.ar    1  UNL1        0.0006
      9 C           5.1598    0.7014   21.5735 C.ar    1  UNL1       -0.0023
     10 C           5.0251    1.6869   20.4507 C.ar    1  UNL1       -0.0003
     11 C           4.0084    2.7865   20.5358 C.ar    1  UNL1       -0.0003
     12 C           3.1264    2.9006   21.7438 C.ar    1  UNL1       -0.0045
     13 C           3.2611    1.9150   22.8665 C.ar    1  UNL1       -0.0235
     14 C           2.3791    2.0290   24.0744 C.3     1  UNL1        0.0320
     15 C           1.0427    1.3480   24.0942 C.3     1  UNL1        0.0464
     16 C           0.0759    1.6257   25.2070 C.2     1  UNL1        0.0507
     17 O           0.3332    1.0760   26.5787 O.co2   1  UNL1       -0.5492
     18 O          -1.1482    2.4530   24.9480 O.co2   1  UNL1       -0.5492
     19 C           6.4617   -3.5437   22.3422 C.3     1  UNL1        0.1007
     20 N           6.0945   -4.4247   21.1850 N.3     1  UNL1       -0.2972
     21 H           5.3159   -5.0069   21.4936 H       1  UNL1        0.1233
     22 C           5.6866   -3.8138   19.8772 C.3     1  UNL1        0.0461
     23 C           4.6176   -4.8549   19.7243 C.3     1  UNL1        0.0161
     24 C           6.7556   -2.7727   20.0301 C.3     1  UNL1        0.0161
     25 C           5.2786   -3.2029   18.5694 C.3     1  UNL1        0.0408
     26 C           4.3196   -2.0496   18.5470 C.ar    1  UNL1       -0.0209
     27 C           4.3923   -1.0351   17.4445 C.ar    1  UNL1       -0.0042
     28 C           3.4333    0.1181   17.4221 C.ar    1  UNL1       -0.0003
     29 C           2.4016    0.2568   18.5022 C.ar    1  UNL1       -0.0000
     30 C           1.4427    1.4099   18.4798 C.ar    1  UNL1       -0.0000
     31 C           0.4111    1.5486   19.5598 C.ar    1  UNL1       -0.0000
     32 C           0.3384    0.5340   20.6623 C.ar    1  UNL1       -0.0000
     33 C           1.2974   -0.6192   20.6847 C.ar    1  UNL1       -0.0000
     34 C           2.3290   -0.7578   19.6047 C.ar    1  UNL1       -0.0003
     35 C           3.2880   -1.9110   19.6270 C.ar    1  UNL1       -0.0042
@<TRIPOS>UNITY_ATOM_ATTR
17 1
charge -1
@<TRIPOS>BOND
     1     7     6    1
     2     7     5    1
     3     5     4    1
     4     4     1    1
     5     1     2    1
     6     1    19    1
     7    19    20    1
     8    20    22    1
     9    22    23    1
    10    22    24    1
    11    22    25    1
    12    25    26    1
    13    26    27   ar
    14    27    28   ar
    15    28    29   ar
    16    29    30   ar
    17    30    31   ar
    18    31    32   ar
    19    32    33   ar
    20    33    34   ar
    21    34    35   ar
    22     7     8    1
    23     8     9   ar
    24     9    10   ar
    25    10    11   ar
    26    11    12   ar
    27    12    13   ar
    28    13    14    1
    29    14    15    1
    30    15    16    1
    31    16    17   ar
    32    16    18   ar
    33    35    26   ar
    34    13     8   ar
    35    34    29   ar
    36     2     3    1
    37    20    21    1
@<TRIPOS>MOLECULE
*****
 35 37 0 0 0
SMALL
GASTEIGER

@<TRIPOS>ATOM
      1 C           3.8490   -0.2825   17.2779 C.3     1  UNL1        0.1556
      2 O           3.9092   -1.4558   16.3452 O.3     1  UNL1       -0.3805
      3 H           3.0414   -1.8879   16.3128 H       1  UNL1        0.2105
      4 C           5.0700    0.5587   17.5047 C.3     1  UNL1        0.1729
      5 O           5.4313    0.9973   18.8929 O.3     1  UNL1       -0.3492
      6 C           7.9848    1.0659   18.4184 C.3     1  UNL1        0.0370
      7 C           6.8461    0.8706   19.3751 C.3     1  UNL1        0.1373
      8 C           7.1221    0.5485   20.8138 C.ar    1  UNL1        0.0006
      9 C           6.7381    1.5230   21.8876 C.ar    1  UNL1       -0.0023
     10 C           7.0141    1.2009   23.3263 C.ar    1  UNL1       -0.0003
     11 C           7.6742   -0.0957   23.6914 C.ar    1  UNL1       -0.0003
     12 C           8.0581   -1.0702   22.6177 C.ar    1  UNL1       -0.0045
     13 C           7.7821   -0.7481   21.1788 C.ar    1  UNL1       -0.0235
     14 C           8.1661   -1.7226   20.1051 C.3     1  UNL1        0.0320
     15 C           7.2601   -2.8721   19.7766 C.3     1  UNL1        0.0464
     16 C           6.3104   -2.7718   18.6199 C.2     1  UNL1        0.0507
     17 O           6.7957   -2.2689   17.2926 O.co2   1  UNL1       -0.5492
     18 O           4.8755   -3.1742   18.7904 O.co2   1  UNL1       -0.5492
     19 C           2.5677    0.0496   17.9836 C.3     1  UNL1        0.1007
     20 N           2.5680    1.0354   19.1143 N.3     1  UNL1       -0.2972
     21 H           1.9354    1.7897   18.8473 H       1  UNL1        0.1233
     22 C           2.1635    0.5978   20.4909 C.3     1  UNL1        0.0461
     23 C           1.2857   -0.4629   19.8958 C.3     1  UNL1        0.0161
     24 C           3.0414    1.6586   21.0859 C.3     1  UNL1        0.0161
     25 C           1.7591    0.1603   21.8674 C.3     1  UNL1        0.0408
     26 C           2.7529   -0.5229   22.7595 C.ar    1  UNL1       -0.0209
     27 C           2.9480   -0.0461   24.1683 C.ar    1  UNL1       -0.0042
     28 C           3.9418   -0.7292   25.0604 C.ar    1  UNL1       -0.0003
     29 C           4.7404   -1.8891   24.5437 C.ar    1  UNL1       -0.0000
     30 C           5.7342   -2.5721   25.4358 C.ar    1  UNL1       -0.0000
     31 C           6.5328   -3.7319   24.9190 C.ar    1  UNL1       -0.0000
     32 C           6.3377   -4.2087   23.5103 C.ar    1  UNL1       -0.0000
     33 C           5.3439   -3.5256   22.6182 C.ar    1  UNL1       -0.0000
     34 C           4.5453   -2.3658   23.1349 C.ar    1  UNL1       -0.0003
     35 C           3.5515   -1.6827   22.2428 C.ar    1  UNL1       -0.0042
@<TRIPOS>UNITY_ATOM_ATTR
17 1
charge -1
@<TRIPOS>BOND
     1     7     6    1
     2     7     5    1
     3     5     4    1
     4     4     1    1
     5     1     2    1
     6     1    19    1
     7    19    20    1
     8    20    22    1
     9    22    23    1
    10    22    24    1
    11    22    25    1
    12    25    26    1
    13    26    27   ar
    14    27    28   ar
    15    28    29   ar
    16    29    30   ar
    17    30    31   ar
    18    31    32   ar
    19    32    33   ar
    20    33    34   ar
    21    34    35   ar
    22     7     8    1
    23     8     9   ar
    24     9    10   ar
    25    10    11   ar
    26    11    12   ar
    27    12    13   ar
    28    13    14    1
    29    14    15    1
    30    15    16    1
    31    16    17   ar
    32    16    18   ar
    33    35    26   ar
    34    13     8   ar
    35    34    29   ar
    36     2     3    1
    37    20    21    1
@<TRIPOS>MOLECULE
*****
 35 37 0 0 0
SMALL
GASTEIGER

@<TRIPOS>ATOM
      1 C           3.5749   -0.9875   26.5670 C.3     1  UNL1        0.1556
      2 O           2.7867   -1.3077   27.8025 O.3     1  UNL1       -0.3805
      3 H           3.2812   -1.9405   28.3465 H       1  UNL1        0.2105
      4 C           3.0254   -0.0267   25.5548 C.3     1  UNL1        0.1729
      5 O           2.6111   -0.5198   24.2001 O.3     1  UNL1       -0.3492
      6 C           4.3436    0.8610   22.8429 C.3     1  UNL1        0.0370
      7 C           3.5514   -0.3978   23.0377 C.3     1  UNL1        0.1373
      8 C           3.6993   -1.5344   22.0702 C.ar    1  UNL1        0.0006
      9 C           4.3837   -2.7989   22.4975 C.ar    1  UNL1       -0.0023
     10 C           4.5317   -3.9355   21.5300 C.ar    1  UNL1       -0.0003
     11 C           3.9952   -3.8076   20.1350 C.ar    1  UNL1       -0.0003
     12 C           3.3108   -2.5431   19.7076 C.ar    1  UNL1       -0.0045
     13 C           3.1629   -1.4065   20.6752 C.ar    1  UNL1       -0.0235
     14 C           2.4785   -0.1420   20.2479 C.3     1  UNL1        0.0320
     15 C           2.6130    0.3429   18.8347 C.3     1  UNL1        0.0464
     16 C           2.0587    1.6811   18.4450 C.2     1  UNL1        0.0507
     17 O           2.9868    2.8305   18.1850 O.co2   1  UNL1       -0.5492
     18 O           0.5763    1.8699   18.3153 O.co2   1  UNL1       -0.5492
     19 C           4.9126   -1.6284   26.3438 C.3     1  UNL1        0.1007
     20 N           6.1160   -0.7761   26.0689 N.3     1  UNL1       -0.2972
     21 H           6.5802   -0.6244   26.9644 H       1  UNL1        0.1233
     22 C           7.1681   -1.2506   25.1107 C.3     1  UNL1        0.0461
     23 C           7.7072    0.1456   25.0111 C.3     1  UNL1        0.0161
     24 C           6.6290   -2.6469   25.2103 C.3     1  UNL1        0.0161
     25 C           8.2201   -1.7252   24.1526 C.3     1  UNL1        0.0408
     26 C           7.9034   -1.8479   22.6915 C.ar    1  UNL1       -0.0209
     27 C           8.1944   -3.1280   21.9659 C.ar    1  UNL1       -0.0042
     28 C           7.8778   -3.2508   20.5049 C.ar    1  UNL1       -0.0003
     29 C           7.2701   -2.0933   19.7694 C.ar    1  UNL1       -0.0000
     30 C           6.9534   -2.2160   18.3083 C.ar    1  UNL1       -0.0000
     31 C           6.3457   -1.0585   17.5729 C.ar    1  UNL1       -0.0000
     32 C           6.0547    0.2217   18.2984 C.ar    1  UNL1       -0.0000
     33 C           6.3713    0.3444   19.7595 C.ar    1  UNL1       -0.0000
     34 C           6.9790   -0.8131   20.4949 C.ar    1  UNL1       -0.0003
     35 C           7.2957   -0.6904   21.9560 C.ar    1  UNL1       -0.0042
@<TRIPOS>UNITY_ATOM_ATTR
17 1
charge -1
@<TRIPOS>BOND
     1     7     6    1
     2     7     5    1
     3     5     4    1
     4     4     1    1
     5     1     2    1
     6     1    19    1
     7    19    20    1
     8    20    22    1
     9    22    23    1
    10    22    24    1
    11    22    25    1
    12    25    26    1
    13    26    27   ar
    14    27    28   ar
    15    28    29   ar
    16    29    30   ar
    17    30    31   ar
    18    31    32   ar
    19    32    33   ar
    20    33    34   ar
    21    34    35   ar
    22     7     8    1
    23     8     9   ar
    24     9    10   ar
    25    10    11   ar
    26    11    12   ar
    27    12    13   ar
    28    13    14    1
    29    14    15    1
    30    15    16    1
    31    16    17   ar
    32    16    18   ar
    33    35    26   ar
    34    13     8   ar
    35    34    29   ar
    36     2     3    1
    37    20    21    1
@<TRIPOS>MOLECULE
*****
 35 37 0 0 0
SMALL
GASTEIGER

@<TRIPOS>ATOM
      1 C           6.4032   -0.8708   18.0420 C.3     1  UNL1        0.1556
      2 O           6.9084   -0.2380   16.7792 O.3     1  UNL1       -0.3805
      3 H           6.9997    0.7186   16.9110 H       1  UNL1        0.2105
      4 C           6.1757   -2.3523   18.0995 C.3     1  UNL1        0.1729
      5 O           4.7885   -2.8913   18.2865 O.3     1  UNL1       -0.3492
      6 C           4.2723   -5.2555   19.2321 C.3     1  UNL1        0.0370
      7 C           4.4822   -3.7865   19.4506 C.3     1  UNL1        0.1373
      8 C           4.3860   -3.2126   20.8330 C.ar    1  UNL1        0.0006
      9 C           5.2152   -3.7872   21.9431 C.ar    1  UNL1       -0.0023
     10 C           5.1190   -3.2133   23.3256 C.ar    1  UNL1       -0.0003
     11 C           4.1934   -2.0647   23.5981 C.ar    1  UNL1       -0.0003
     12 C           3.3642   -1.4901   22.4881 C.ar    1  UNL1       -0.0045
     13 C           3.4605   -2.0640   21.1055 C.ar    1  UNL1       -0.0235
     14 C           2.6312   -1.4894   19.9955 C.3     1  UNL1        0.0320
     15 C           2.2987   -0.0267   19.9876 C.3     1  UNL1        0.0464
     16 C           0.9290    0.4288   19.5798 C.2     1  UNL1        0.0507
     17 O           0.6975    0.9660   18.1985 O.co2   1  UNL1       -0.5492
     18 O          -0.2093    0.3472   20.5533 O.co2   1  UNL1       -0.5492
     19 C           6.1256   -0.0219   19.2471 C.3     1  UNL1        0.1007
     20 N           7.2469    0.7097   19.9236 N.3     1  UNL1       -0.2972
     21 H           6.8375    1.5337   20.3639 H       1  UNL1        0.1233
     22 C           8.0668    0.0201   20.9734 C.3     1  UNL1        0.0461
     23 C           6.8256   -0.2325   21.7769 C.3     1  UNL1        0.0161
     24 C           9.3080    0.2728   20.1699 C.3     1  UNL1        0.0161
     25 C           8.8868   -0.6695   22.0232 C.3     1  UNL1        0.0408
     26 C           8.8281   -2.1621   22.1602 C.ar    1  UNL1       -0.0209
     27 C           8.9532   -3.0322   20.9447 C.ar    1  UNL1       -0.0042
     28 C           8.8946   -4.5248   21.0816 C.ar    1  UNL1       -0.0003
     29 C           8.7108   -5.1473   22.4340 C.ar    1  UNL1       -0.0000
     30 C           8.6522   -6.6399   22.5709 C.ar    1  UNL1       -0.0000
     31 C           8.4685   -7.2623   23.9232 C.ar    1  UNL1       -0.0000
     32 C           8.3434   -6.3922   25.1386 C.ar    1  UNL1       -0.0000
     33 C           8.4020   -4.8996   25.0017 C.ar    1  UNL1       -0.0000
     34 C           8.5857   -4.2772   23.6494 C.ar    1  UNL1       -0.0003
     35 C           8.6444   -2.7846   23.5125 C.ar    1  UNL1       -0.0042
@<TRIPOS>UNITY_ATOM_ATTR
17 1
charge -1
@<TRIPOS>BOND
     1     7     6    1
     2     7     5    1
     3     5     4    1
     4     4     1    1
     5     1     2    1
     6     1    19    1
     7    19    20    1
     8    20    22    1
     9    22    23    1
    10    22    24    1
    11    22    25    1
    12    25    26    1
    13    26    27   ar
    14    27    28   ar
    15    28    29   ar
    16    29    30   ar
    17    30    31   ar
    18    31    32   ar
    19    32    33   ar
    20    33    34   ar
    21    34    35   ar
    22     7     8    1
    23     8     9   ar
    24     9    10   ar
    25    10    11   ar
    26    11    12   ar
    27    12    13   ar
    28    13    14    1
    29    14    15    1
    30    15    16    1
    31    16    17   ar
    32    16    18   ar
    33    35    26   ar
    34    13     8   ar
    35    34    29   ar
    36     2     3    1
    37    20    21    1
