@<TRIPOS>MOLECULE
*****
 30 33 0 0 0
SMALL
GASTEIGER

@<TRIPOS>ATOM
      1 C          -5.4540  -15.5335   24.8562 C.3     1  UNL1        0.0219
      2 C          -5.6549  -16.5373   23.7597 C.3     1  UNL1        0.0820
      3 C          -4.5072  -16.9184   22.8723 C.3     1  UNL1        0.0671
      4 C          -4.7080  -17.9221   21.7758 C.ar    1  UNL1        0.0837
      5 C          -6.0566  -18.5447   21.5667 C.ar    1  UNL1        0.1159
      6 N          -5.9534  -19.4975   20.4128 N.ar    1  UNL1       -0.1314
      7 N          -4.5411  -19.4637   19.9088 N.ar    1  UNL1       -0.0576
      8 N          -3.7714  -18.4901   20.7511 N.ar    1  UNL1       -0.1813
      9 C          -7.2043  -18.1636   22.4541 C.3     1  UNL1        0.1426
     10 N          -7.0034  -17.1598   23.5506 N.am    1  UNL1       -0.2715
     11 C          -8.1512  -16.7787   24.4380 C.2     1  UNL1        0.2515
     12 O          -7.9504  -15.7750   25.5345 O.2     1  UNL1       -0.2698
     13 C          -2.3199  -18.1450   20.5960 C.ar    1  UNL1        0.2543
     14 N          -1.8726  -16.7174   20.7045 N.ar    1  UNL1       -0.2060
     15 C          -0.4210  -16.3723   20.5494 C.ar    1  UNL1        0.1332
     16 C           0.5831  -17.4548   20.2858 C.ar    1  UNL1        0.1784
     17 F           2.0346  -17.1098   20.1306 F       1  UNL1       -0.2009
     18 C           0.1358  -18.8825   20.1773 C.ar    1  UNL1        0.1332
     19 N          -1.3156  -19.2276   20.3324 N.ar    1  UNL1       -0.2060
     20 C          -9.4998  -17.4013   24.2289 C.ar    1  UNL1        0.0840
     21 C          -9.9823  -18.4753   25.1583 C.ar    1  UNL1        0.0274
     22 C         -11.3309  -19.0980   24.9492 C.ar    1  UNL1        0.0991
     23 N         -12.1970  -18.6466   23.8108 N.ar    1  UNL1       -0.2377
     24 C         -11.7145  -17.5726   22.8814 C.ar    1  UNL1        0.1802
     25 C         -10.3659  -16.9499   23.0905 C.ar    1  UNL1        0.1660
     26 F          -9.8835  -15.8759   22.1611 F       1  UNL1       -0.2025
     27 C         -12.5806  -17.1211   21.7429 C.3     1  UNL1        0.4370
     28 F         -13.4466  -16.6697   20.6043 F       1  UNL1       -0.1643
     29 F         -12.2147  -18.3565   20.9748 F       1  UNL1       -0.1643
     30 F         -12.9464  -15.8857   22.5110 F       1  UNL1       -0.1643
@<TRIPOS>BOND
     1     2     1    1
     2     2     3    1
     3     3     4    1
     4     4     5   ar
     5     5     6   ar
     6     6     7   ar
     7     7     8   ar
     8     8    13    1
     9    13    14   ar
    10    14    15   ar
    11    15    16   ar
    12    16    17    1
    13    16    18   ar
    14    18    19   ar
    15     5     9    1
    16     9    10    1
    17    10    11   am
    18    11    12    2
    19    11    20    1
    20    20    21   ar
    21    21    22   ar
    22    22    23   ar
    23    23    24   ar
    24    24    27    1
    25    27    28    1
    26    27    29    1
    27    27    30    1
    28    24    25   ar
    29    25    26    1
    30    10     2    1
    31    25    20   ar
    32     8     4   ar
    33    19    13   ar
@<TRIPOS>MOLECULE
*****
 30 33 0 0 0
SMALL
GASTEIGER

@<TRIPOS>ATOM
      1 C           8.7509   -6.8954   23.3209 C.3     1  UNL1        0.0219
      2 C           8.1276   -5.7010   23.9805 C.3     1  UNL1        0.0820
      3 C           8.0728   -5.6141   25.4770 C.3     1  UNL1        0.0671
      4 C           7.4496   -4.4198   26.1366 C.ar    1  UNL1        0.0837
      5 C           6.8810   -3.3123   25.2998 C.ar    1  UNL1        0.1159
      6 N           6.3330   -2.2666   26.2251 N.ar    1  UNL1       -0.1314
      7 N           6.5629   -2.7278   27.6338 N.ar    1  UNL1       -0.0576
      8 N           7.2529   -4.0585   27.5791 N.ar    1  UNL1       -0.1813
      9 C           6.9358   -3.3992   23.8033 C.3     1  UNL1        0.1426
     10 N           7.5591   -4.5936   23.1437 N.am    1  UNL1       -0.2715
     11 C           7.6138   -4.6804   21.6472 C.2     1  UNL1        0.2515
     12 O           8.2371   -5.8748   20.9875 O.2     1  UNL1       -0.2698
     13 C           7.6727   -4.8831   28.7597 C.ar    1  UNL1        0.2543
     14 N           9.0136   -5.5552   28.7664 N.ar    1  UNL1       -0.2060
     15 C           9.4334   -6.3799   29.9470 C.ar    1  UNL1        0.1332
     16 C           8.5122   -6.5325   31.1209 C.ar    1  UNL1        0.1784
     17 F           8.9319   -7.3571   32.3014 F       1  UNL1       -0.2009
     18 C           7.1711   -5.8604   31.1141 C.ar    1  UNL1        0.1332
     19 N           6.7514   -5.0357   29.9336 N.ar    1  UNL1       -0.2060
     20 C           7.0453   -3.5730   20.8103 C.ar    1  UNL1        0.0840
     21 C           7.9591   -2.6917   20.0114 C.ar    1  UNL1        0.0274
     22 C           7.3906   -1.5842   19.1745 C.ar    1  UNL1        0.0991
     23 N           5.9082   -1.3580   19.1366 N.ar    1  UNL1       -0.2377
     24 C           4.9944   -2.2393   19.9356 C.ar    1  UNL1        0.1802
     25 C           5.5629   -3.3467   20.7724 C.ar    1  UNL1        0.1660
     26 F           4.6491   -4.2280   21.5714 F       1  UNL1       -0.2025
     27 C           3.5120   -2.0131   19.8978 C.3     1  UNL1        0.4370
     28 F           2.0296   -1.7871   19.8599 F       1  UNL1       -0.1643
     29 F           3.3430   -3.2585   19.0789 F       1  UNL1       -0.1643
     30 F           3.6810   -0.7678   20.7166 F       1  UNL1       -0.1643
@<TRIPOS>BOND
     1     2     1    1
     2     2     3    1
     3     3     4    1
     4     4     5   ar
     5     5     6   ar
     6     6     7   ar
     7     7     8   ar
     8     8    13    1
     9    13    14   ar
    10    14    15   ar
    11    15    16   ar
    12    16    17    1
    13    16    18   ar
    14    18    19   ar
    15     5     9    1
    16     9    10    1
    17    10    11   am
    18    11    12    2
    19    11    20    1
    20    20    21   ar
    21    21    22   ar
    22    22    23   ar
    23    23    24   ar
    24    24    27    1
    25    27    28    1
    26    27    29    1
    27    27    30    1
    28    24    25   ar
    29    25    26    1
    30    10     2    1
    31    25    20   ar
    32     8     4   ar
    33    19    13   ar
@<TRIPOS>MOLECULE
*****
 30 33 0 0 0
SMALL
GASTEIGER

@<TRIPOS>ATOM
      1 C           7.0633   -3.3961   26.3309 C.3     1  UNL1        0.0219
      2 C           5.9839   -2.5112   25.7812 C.3     1  UNL1        0.0820
      3 C           5.1195   -1.7152   26.7135 C.3     1  UNL1        0.0671
      4 C           4.0402   -0.8304   26.1639 C.ar    1  UNL1        0.0837
      5 C           3.8254   -0.7414   24.6820 C.ar    1  UNL1        0.1159
      6 N           2.6917    0.2090   24.4342 N.ar    1  UNL1       -0.1314
      7 N           2.2058    0.7075   25.7629 N.ar    1  UNL1       -0.0576
      8 N           3.0393    0.0651   26.8319 N.ar    1  UNL1       -0.1813
      9 C           4.6898   -1.5374   23.7497 C.3     1  UNL1        0.1426
     10 N           5.7691   -2.4223   24.2994 N.am    1  UNL1       -0.2715
     11 C           6.6337   -3.2183   23.3671 C.2     1  UNL1        0.2515
     12 O           7.7130   -4.1032   23.9167 O.2     1  UNL1       -0.2698
     13 C           2.8967    0.2805   28.3095 C.ar    1  UNL1        0.2543
     14 N           2.9273    1.6710   28.8711 N.ar    1  UNL1       -0.2060
     15 C           2.7848    1.8864   30.3488 C.ar    1  UNL1        0.1332
     16 C           2.6117    0.7113   31.2647 C.ar    1  UNL1        0.1784
     17 F           2.4692    0.9266   32.7423 F       1  UNL1       -0.2009
     18 C           2.5812   -0.6793   30.7030 C.ar    1  UNL1        0.1332
     19 N           2.7237   -0.8947   29.2255 N.ar    1  UNL1       -0.2060
     20 C           6.4188   -3.1294   21.8852 C.ar    1  UNL1        0.0840
     21 C           7.4462   -2.4657   21.0169 C.ar    1  UNL1        0.0274
     22 C           7.2314   -2.3768   19.5351 C.ar    1  UNL1        0.0991
     23 N           5.9891   -2.9515   18.9215 N.ar    1  UNL1       -0.2377
     24 C           4.9617   -3.6152   19.7898 C.ar    1  UNL1        0.1802
     25 C           5.1766   -3.7041   21.2717 C.ar    1  UNL1        0.1660
     26 F           4.1492   -4.3678   22.1400 F       1  UNL1       -0.2025
     27 C           3.7194   -4.1900   19.1763 C.3     1  UNL1        0.4370
     28 F           2.4772   -4.7648   18.5628 F       1  UNL1       -0.1643
     29 F           4.4956   -5.3947   18.7335 F       1  UNL1       -0.1643
     30 F           2.9433   -2.9852   19.6192 F       1  UNL1       -0.1643
@<TRIPOS>BOND
     1     2     1    1
     2     2     3    1
     3     3     4    1
     4     4     5   ar
     5     5     6   ar
     6     6     7   ar
     7     7     8   ar
     8     8    13    1
     9    13    14   ar
    10    14    15   ar
    11    15    16   ar
    12    16    17    1
    13    16    18   ar
    14    18    19   ar
    15     5     9    1
    16     9    10    1
    17    10    11   am
    18    11    12    2
    19    11    20    1
    20    20    21   ar
    21    21    22   ar
    22    22    23   ar
    23    23    24   ar
    24    24    27    1
    25    27    28    1
    26    27    29    1
    27    27    30    1
    28    24    25   ar
    29    25    26    1
    30    10     2    1
    31    25    20   ar
    32     8     4   ar
    33    19    13   ar
@<TRIPOS>MOLECULE
*****
 30 33 0 0 0
SMALL
GASTEIGER

@<TRIPOS>ATOM
      1 C         -10.7503   -0.2650   16.2348 C.3     1  UNL1        0.0219
      2 C         -11.8224   -0.7261   17.1773 C.3     1  UNL1        0.0820
      3 C         -12.9037    0.2216   17.6044 C.3     1  UNL1        0.0671
      4 C         -13.9758   -0.2394   18.5468 C.ar    1  UNL1        0.0837
      5 C         -13.9666   -1.6481   19.0620 C.ar    1  UNL1        0.1159
      6 N         -15.1461   -1.8162   19.9733 N.ar    1  UNL1       -0.1314
      7 N         -15.8844   -0.5113   20.0212 N.ar    1  UNL1       -0.0576
      8 N         -15.1612    0.4632   19.1396 N.ar    1  UNL1       -0.1813
      9 C         -12.8852   -2.5958   18.6349 C.3     1  UNL1        0.1426
     10 N         -11.8131   -2.1347   17.6925 N.am    1  UNL1       -0.2715
     11 C         -10.7317   -3.0825   17.2653 C.2     1  UNL1        0.2515
     12 O          -9.6596   -2.6215   16.3229 O.2     1  UNL1       -0.2698
     13 C         -15.5542    1.8898   18.8940 C.ar    1  UNL1        0.2543
     14 N         -15.0182    2.9779   19.7763 N.ar    1  UNL1       -0.2060
     15 C         -15.4113    4.4046   19.5307 C.ar    1  UNL1        0.1332
     16 C         -16.3403    4.7430   18.4028 C.ar    1  UNL1        0.1784
     17 F         -16.7333    6.1696   18.1572 F       1  UNL1       -0.2009
     18 C         -16.8762    3.6548   17.5204 C.ar    1  UNL1        0.1332
     19 N         -16.4832    2.2282   17.7660 N.ar    1  UNL1       -0.2060
     20 C         -10.7224   -4.4912   17.7805 C.ar    1  UNL1        0.0840
     21 C          -9.6386   -4.9409   18.7149 C.ar    1  UNL1        0.0274
     22 C          -9.6293   -6.3497   19.2301 C.ar    1  UNL1        0.0991
     23 N         -10.7039   -7.3086   18.8110 N.ar    1  UNL1       -0.2377
     24 C         -11.7877   -6.8589   17.8766 C.ar    1  UNL1        0.1802
     25 C         -11.7970   -5.4502   17.3614 C.ar    1  UNL1        0.1660
     26 F         -12.8808   -5.0004   16.4270 F       1  UNL1       -0.2025
     27 C         -12.8624   -7.8178   17.4574 C.3     1  UNL1        0.4370
     28 F         -13.9370   -8.7767   17.0383 F       1  UNL1       -0.1643
     29 F         -13.5916   -7.5625   18.7431 F       1  UNL1       -0.1643
     30 F         -12.1331   -8.0731   16.1718 F       1  UNL1       -0.1643
@<TRIPOS>BOND
     1     2     1    1
     2     2     3    1
     3     3     4    1
     4     4     5   ar
     5     5     6   ar
     6     6     7   ar
     7     7     8   ar
     8     8    13    1
     9    13    14   ar
    10    14    15   ar
    11    15    16   ar
    12    16    17    1
    13    16    18   ar
    14    18    19   ar
    15     5     9    1
    16     9    10    1
    17    10    11   am
    18    11    12    2
    19    11    20    1
    20    20    21   ar
    21    21    22   ar
    22    22    23   ar
    23    23    24   ar
    24    24    27    1
    25    27    28    1
    26    27    29    1
    27    27    30    1
    28    24    25   ar
    29    25    26    1
    30    10     2    1
    31    25    20   ar
    32     8     4   ar
    33    19    13   ar
@<TRIPOS>MOLECULE
*****
 30 33 0 0 0
SMALL
GASTEIGER

@<TRIPOS>ATOM
      1 C          -2.1332    3.8005   19.3648 C.3     1  UNL1        0.0219
      2 C          -1.4110    3.3372   20.5952 C.3     1  UNL1        0.0820
      3 C          -2.0101    3.5732   21.9500 C.3     1  UNL1        0.0671
      4 C          -1.2879    3.1099   23.1804 C.ar    1  UNL1        0.0837
      5 C           0.0333    2.4107   23.0560 C.ar    1  UNL1        0.1159
      6 N           0.5092    2.0697   24.4371 N.ar    1  UNL1       -0.1314
      7 N          -0.5180    2.5583   25.4150 N.ar    1  UNL1       -0.0576
      8 N          -1.6286    3.2011   24.6383 N.ar    1  UNL1       -0.1813
      9 C           0.6324    2.1747   21.7012 C.3     1  UNL1        0.1426
     10 N          -0.0898    2.6380   20.4708 N.am    1  UNL1       -0.2715
     11 C           0.5093    2.4021   19.1160 C.2     1  UNL1        0.2515
     12 O          -0.2129    2.8653   17.8856 O.2     1  UNL1       -0.2698
     13 C          -2.8632    3.8255   25.2179 C.ar    1  UNL1        0.2543
     14 N          -2.7541    4.7546   26.3904 N.ar    1  UNL1       -0.2060
     15 C          -3.9887    5.3791   26.9701 C.ar    1  UNL1        0.1332
     16 C          -5.3323    5.0745   26.3771 C.ar    1  UNL1        0.1784
     17 F          -6.5669    5.6989   26.9567 F       1  UNL1       -0.2009
     18 C          -5.4414    4.1453   25.2045 C.ar    1  UNL1        0.1332
     19 N          -4.2069    3.5209   24.6249 N.ar    1  UNL1       -0.2060
     20 C           1.8305    1.7029   18.9916 C.ar    1  UNL1        0.0840
     21 C           3.0518    2.4737   18.5866 C.ar    1  UNL1        0.0274
     22 C           4.3731    1.7745   18.4622 C.ar    1  UNL1        0.0991
     23 N           4.4730    0.3044   18.7429 N.ar    1  UNL1       -0.2377
     24 C           3.2516   -0.4665   19.1479 C.ar    1  UNL1        0.1802
     25 C           1.9304    0.2328   19.2723 C.ar    1  UNL1        0.1660
     26 F           0.7091   -0.5381   19.6773 F       1  UNL1       -0.2025
     27 C           3.3514   -1.9366   19.4287 C.3     1  UNL1        0.4370
     28 F           3.4512   -3.4068   19.7093 F       1  UNL1       -0.1643
     29 F           3.7230   -2.1847   17.9968 F       1  UNL1       -0.1643
     30 F           2.9798   -1.6885   20.8605 F       1  UNL1       -0.1643
@<TRIPOS>BOND
     1     2     1    1
     2     2     3    1
     3     3     4    1
     4     4     5   ar
     5     5     6   ar
     6     6     7   ar
     7     7     8   ar
     8     8    13    1
     9    13    14   ar
    10    14    15   ar
    11    15    16   ar
    12    16    17    1
    13    16    18   ar
    14    18    19   ar
    15     5     9    1
    16     9    10    1
    17    10    11   am
    18    11    12    2
    19    11    20    1
    20    20    21   ar
    21    21    22   ar
    22    22    23   ar
    23    23    24   ar
    24    24    27    1
    25    27    28    1
    26    27    29    1
    27    27    30    1
    28    24    25   ar
    29    25    26    1
    30    10     2    1
    31    25    20   ar
    32     8     4   ar
    33    19    13   ar
@<TRIPOS>MOLECULE
*****
 30 33 0 0 0
SMALL
GASTEIGER

@<TRIPOS>ATOM
      1 C           6.5809    0.8735   32.8808 C.3     1  UNL1        0.0219
      2 C           5.1107    1.0822   32.6684 C.3     1  UNL1        0.0820
      3 C           4.4983    0.7951   31.3296 C.3     1  UNL1        0.0671
      4 C           3.0281    1.0038   31.1172 C.ar    1  UNL1        0.0837
      5 C           2.1705    1.4996   32.2435 C.ar    1  UNL1        0.1159
      6 N           0.7619    1.6098   31.7398 N.ar    1  UNL1       -0.1314
      7 N           0.7490    1.1820   30.3021 N.ar    1  UNL1       -0.0576
      8 N           2.1496    0.8075   29.9173 N.ar    1  UNL1       -0.1813
      9 C           2.7829    1.7867   33.5823 C.3     1  UNL1        0.1426
     10 N           4.2532    1.5780   33.7947 N.am    1  UNL1       -0.2715
     11 C           4.8657    1.8651   35.1336 C.2     1  UNL1        0.2515
     12 O           6.3358    1.6564   35.3461 O.2     1  UNL1       -0.2698
     13 C           2.5936    0.3220   28.5693 C.ar    1  UNL1        0.2543
     14 N           3.2300   -1.0292   28.4311 N.ar    1  UNL1       -0.2060
     15 C           3.6741   -1.5148   27.0831 C.ar    1  UNL1        0.1332
     16 C           3.4818   -0.6491   25.8734 C.ar    1  UNL1        0.1784
     17 F           3.9258   -1.1346   24.5254 F       1  UNL1       -0.2009
     18 C           2.8454    0.7022   26.0116 C.ar    1  UNL1        0.1332
     19 N           2.4013    1.1878   27.3595 N.ar    1  UNL1       -0.2060
     20 C           4.0080    2.3609   36.2599 C.ar    1  UNL1        0.0840
     21 C           3.7924    3.8336   36.4463 C.ar    1  UNL1        0.0274
     22 C           2.9347    4.3293   37.5727 C.ar    1  UNL1        0.0991
     23 N           2.2927    3.3525   38.5126 N.ar    1  UNL1       -0.2377
     24 C           2.5084    1.8798   38.3262 C.ar    1  UNL1        0.1802
     25 C           3.3660    1.3840   37.1999 C.ar    1  UNL1        0.1660
     26 F           3.5817   -0.0886   37.0135 F       1  UNL1       -0.2025
     27 C           1.8664    0.9028   39.2662 C.3     1  UNL1        0.4370
     28 F           1.2245   -0.0742   40.2061 F       1  UNL1       -0.1643
     29 F           3.2205    0.3912   39.6591 F       1  UNL1       -0.1643
     30 F           0.5122    1.4145   38.8732 F       1  UNL1       -0.1643
@<TRIPOS>BOND
     1     2     1    1
     2     2     3    1
     3     3     4    1
     4     4     5   ar
     5     5     6   ar
     6     6     7   ar
     7     7     8   ar
     8     8    13    1
     9    13    14   ar
    10    14    15   ar
    11    15    16   ar
    12    16    17    1
    13    16    18   ar
    14    18    19   ar
    15     5     9    1
    16     9    10    1
    17    10    11   am
    18    11    12    2
    19    11    20    1
    20    20    21   ar
    21    21    22   ar
    22    22    23   ar
    23    23    24   ar
    24    24    27    1
    25    27    28    1
    26    27    29    1
    27    27    30    1
    28    24    25   ar
    29    25    26    1
    30    10     2    1
    31    25    20   ar
    32     8     4   ar
    33    19    13   ar
@<TRIPOS>MOLECULE
*****
 30 33 0 0 0
SMALL
GASTEIGER

@<TRIPOS>ATOM
      1 C           0.1832    1.6502   21.8745 C.3     1  UNL1        0.0219
      2 C           1.3541    0.9428   22.4899 C.3     1  UNL1        0.0820
      3 C           1.5167    0.9190   23.9809 C.3     1  UNL1        0.0671
      4 C           2.6875    0.2116   24.5964 C.ar    1  UNL1        0.0837
      5 C           3.6956   -0.4720   23.7210 C.ar    1  UNL1        0.1159
      6 N           4.7394   -1.0847   24.6071 N.ar    1  UNL1       -0.1314
      7 N           4.3763   -0.7798   26.0302 N.ar    1  UNL1       -0.0576
      8 N           3.1082    0.0214   26.0236 N.ar    1  UNL1       -0.1813
      9 C           3.5330   -0.4483   22.2300 C.3     1  UNL1        0.1426
     10 N           2.3621    0.2592   21.6145 N.am    1  UNL1       -0.2715
     11 C           2.1994    0.2829   20.1235 C.2     1  UNL1        0.2515
     12 O           1.0286    0.9903   19.5080 O.2     1  UNL1       -0.2698
     13 C           2.3874    0.5411   27.2320 C.ar    1  UNL1        0.2543
     14 N           2.0735    2.0034   27.3468 N.ar    1  UNL1       -0.2060
     15 C           1.3526    2.5231   28.5553 C.ar    1  UNL1        0.1332
     16 C           0.9457    1.5806   29.6489 C.ar    1  UNL1        0.1784
     17 F           0.2249    2.1003   30.8573 F       1  UNL1       -0.2009
     18 C           1.2597    0.1183   29.5340 C.ar    1  UNL1        0.1332
     19 N           1.9805   -0.4015   28.3257 N.ar    1  UNL1       -0.2060
     20 C           3.2075   -0.4007   19.2481 C.ar    1  UNL1        0.0840
     21 C           3.9613    0.3857   18.2169 C.ar    1  UNL1        0.0274
     22 C           4.9694   -0.2979   17.3414 C.ar    1  UNL1        0.0991
     23 N           5.2237   -1.7680   17.4972 N.ar    1  UNL1       -0.2377
     24 C           4.4700   -2.5544   18.5284 C.ar    1  UNL1        0.1802
     25 C           3.4619   -1.8707   19.4038 C.ar    1  UNL1        0.1660
     26 F           2.7081   -2.6571   20.4350 F       1  UNL1       -0.2025
     27 C           4.7242   -4.0245   18.6843 C.3     1  UNL1        0.4370
     28 F           4.9784   -5.4945   18.8401 F       1  UNL1       -0.1643
     29 F           3.2895   -4.3079   18.3508 F       1  UNL1       -0.1643
     30 F           6.1589   -3.7410   19.0177 F       1  UNL1       -0.1643
@<TRIPOS>BOND
     1     2     1    1
     2     2     3    1
     3     3     4    1
     4     4     5   ar
     5     5     6   ar
     6     6     7   ar
     7     7     8   ar
     8     8    13    1
     9    13    14   ar
    10    14    15   ar
    11    15    16   ar
    12    16    17    1
    13    16    18   ar
    14    18    19   ar
    15     5     9    1
    16     9    10    1
    17    10    11   am
    18    11    12    2
    19    11    20    1
    20    20    21   ar
    21    21    22   ar
    22    22    23   ar
    23    23    24   ar
    24    24    27    1
    25    27    28    1
    26    27    29    1
    27    27    30    1
    28    24    25   ar
    29    25    26    1
    30    10     2    1
    31    25    20   ar
    32     8     4   ar
    33    19    13   ar
@<TRIPOS>MOLECULE
*****
 30 33 0 0 0
SMALL
GASTEIGER

@<TRIPOS>ATOM
      1 C           4.9406   -4.1215   19.1213 C.3     1  UNL1        0.0219
      2 C           5.0225   -3.3021   20.3751 C.3     1  UNL1        0.0820
      3 C           5.6147   -3.8933   21.6200 C.3     1  UNL1        0.0671
      4 C           5.6967   -3.0740   22.8738 C.ar    1  UNL1        0.0837
      5 C           5.1864   -1.6635   22.8827 C.ar    1  UNL1        0.1159
      6 N           5.3988   -1.1024   24.2575 N.ar    1  UNL1       -0.1314
      7 N           6.0405   -2.1661   25.0982 N.ar    1  UNL1       -0.0576
      8 N           6.2245   -3.3846   24.2430 N.ar    1  UNL1       -0.1813
      9 C           4.5941   -1.0723   21.6378 C.3     1  UNL1        0.1426
     10 N           4.5122   -1.8917   20.3840 N.am    1  UNL1       -0.2715
     11 C           3.9199   -1.3005   19.1391 C.2     1  UNL1        0.2515
     12 O           3.8380   -2.1198   17.8853 O.2     1  UNL1       -0.2698
     13 C           6.8302   -4.6854   24.6804 C.ar    1  UNL1        0.2543
     14 N           7.5857   -5.5291   23.6969 N.ar    1  UNL1       -0.2060
     15 C           8.1913   -6.8300   24.1342 C.ar    1  UNL1        0.1332
     16 C           8.0415   -7.2869   25.5550 C.ar    1  UNL1        0.1784
     17 F           8.6471   -8.5876   25.9923 F       1  UNL1       -0.2009
     18 C           7.2859   -6.4431   26.5385 C.ar    1  UNL1        0.1332
     19 N           6.6803   -5.1424   26.1012 N.ar    1  UNL1       -0.2060
     20 C           3.4096    0.1100   19.1480 C.ar    1  UNL1        0.0840
     21 C           4.3155    1.2379   18.7515 C.ar    1  UNL1        0.0274
     22 C           3.8052    2.6484   18.7604 C.ar    1  UNL1        0.0991
     23 N           2.3890    2.9310   19.1659 N.ar    1  UNL1       -0.2377
     24 C           1.4831    1.8031   19.5624 C.ar    1  UNL1        0.1802
     25 C           1.9934    0.3926   19.5535 C.ar    1  UNL1        0.1660
     26 F           1.0875   -0.7352   19.9500 F       1  UNL1       -0.2025
     27 C           0.0668    2.0857   19.9679 C.3     1  UNL1        0.4370
     28 F          -1.3495    2.3682   20.3733 F       1  UNL1       -0.1643
     29 F          -0.2454    2.5279   18.5690 F       1  UNL1       -0.1643
     30 F           0.3791    1.6434   21.3668 F       1  UNL1       -0.1643
@<TRIPOS>BOND
     1     2     1    1
     2     2     3    1
     3     3     4    1
     4     4     5   ar
     5     5     6   ar
     6     6     7   ar
     7     7     8   ar
     8     8    13    1
     9    13    14   ar
    10    14    15   ar
    11    15    16   ar
    12    16    17    1
    13    16    18   ar
    14    18    19   ar
    15     5     9    1
    16     9    10    1
    17    10    11   am
    18    11    12    2
    19    11    20    1
    20    20    21   ar
    21    21    22   ar
    22    22    23   ar
    23    23    24   ar
    24    24    27    1
    25    27    28    1
    26    27    29    1
    27    27    30    1
    28    24    25   ar
    29    25    26    1
    30    10     2    1
    31    25    20   ar
    32     8     4   ar
    33    19    13   ar
@<TRIPOS>MOLECULE
*****
 30 33 0 0 0
SMALL
GASTEIGER

@<TRIPOS>ATOM
      1 C         -12.9580    0.6046   18.2210 C.3     1  UNL1        0.0219
      2 C         -14.0612   -0.3383   18.6004 C.3     1  UNL1        0.0820
      3 C         -15.2937    0.1832   19.2778 C.3     1  UNL1        0.0671
      4 C         -16.3969   -0.7596   19.6573 C.ar    1  UNL1        0.0837
      5 C         -16.2675   -2.2240   19.3594 C.ar    1  UNL1        0.1159
      6 N         -17.5101   -2.9079   19.8477 N.ar    1  UNL1       -0.1314
      7 N         -18.4073   -1.8662   20.4473 N.ar    1  UNL1       -0.0576
      8 N         -17.7193   -0.5384   20.3297 N.ar    1  UNL1       -0.1813
      9 C         -15.0350   -2.7456   18.6820 C.3     1  UNL1        0.1426
     10 N         -13.9318   -1.8027   18.3025 N.am    1  UNL1       -0.2715
     11 C         -12.6992   -2.3242   17.6251 C.2     1  UNL1        0.2515
     12 O         -11.5961   -1.3814   17.2456 O.2     1  UNL1       -0.2698
     13 C         -18.2591    0.7791   20.8016 C.ar    1  UNL1        0.2543
     14 N         -19.3497    1.4622   20.0309 N.ar    1  UNL1       -0.2060
     15 C         -19.8895    2.7798   20.5028 C.ar    1  UNL1        0.1332
     16 C         -19.3387    3.4143   21.7453 C.ar    1  UNL1        0.1784
     17 F         -19.8785    4.7318   22.2172 F       1  UNL1       -0.2009
     18 C         -18.2481    2.7311   22.5160 C.ar    1  UNL1        0.1332
     19 N         -17.7083    1.4136   22.0442 N.ar    1  UNL1       -0.2060
     20 C         -12.5699   -3.7887   17.3272 C.ar    1  UNL1        0.0840
     21 C         -13.4392   -4.4208   16.2810 C.ar    1  UNL1        0.0274
     22 C         -13.3099   -5.8853   15.9830 C.ar    1  UNL1        0.0991
     23 N         -12.3113   -6.7175   16.7314 N.ar    1  UNL1       -0.2377
     24 C         -11.4420   -6.0854   17.7777 C.ar    1  UNL1        0.1802
     25 C         -11.5713   -4.6209   18.0756 C.ar    1  UNL1        0.1660
     26 F         -10.7020   -3.9888   19.1218 F       1  UNL1       -0.2025
     27 C         -10.4432   -6.9176   18.5261 C.3     1  UNL1        0.4370
     28 F          -9.4447   -7.7498   19.2746 F       1  UNL1       -0.1643
     29 F         -11.5588   -7.5760   19.2823 F       1  UNL1       -0.1643
     30 F          -9.3277   -6.2591   17.7698 F       1  UNL1       -0.1643
@<TRIPOS>BOND
     1     2     1    1
     2     2     3    1
     3     3     4    1
     4     4     5   ar
     5     5     6   ar
     6     6     7   ar
     7     7     8   ar
     8     8    13    1
     9    13    14   ar
    10    14    15   ar
    11    15    16   ar
    12    16    17    1
    13    16    18   ar
    14    18    19   ar
    15     5     9    1
    16     9    10    1
    17    10    11   am
    18    11    12    2
    19    11    20    1
    20    20    21   ar
    21    21    22   ar
    22    22    23   ar
    23    23    24   ar
    24    24    27    1
    25    27    28    1
    26    27    29    1
    27    27    30    1
    28    24    25   ar
    29    25    26    1
    30    10     2    1
    31    25    20   ar
    32     8     4   ar
    33    19    13   ar
