@<TRIPOS>MOLECULE
*****
 44 48 0 0 0
SMALL
GASTEIGER

@<TRIPOS>ATOM
      1 C          -4.8450  -16.1079   24.3501 C.2     1  UNL1        0.2248
      2 O          -4.3303  -15.2597   25.4751 O.2     1  UNL1       -0.2749
      3 N          -6.3048  -16.4435   24.2710 N.am    1  UNL1       -0.2774
      4 C          -7.3639  -16.0052   25.2385 C.3     1  UNL1        0.0956
      5 C          -8.6755  -16.5672   24.7759 C.3     1  UNL1        0.0497
      6 C          -8.4269  -17.3529   23.5225 C.3     1  UNL1        0.1533
      7 C          -6.9618  -17.2765   23.2105 C.3     1  UNL1        0.1198
      8 C          -2.0094  -17.6456   21.2124 C.3     1  UNL1        0.0321
      9 C          -2.2167  -16.1692   21.3771 C.3     1  UNL1        0.0057
     10 C          -3.1619  -15.6566   22.4230 C.3     1  UNL1        0.0090
     11 C          -3.8998  -16.6205   23.3042 C.3     1  UNL1        0.0691
     12 C          -3.6924  -18.0969   23.1395 C.3     1  UNL1        0.0090
     13 C          -2.7473  -18.6095   22.0936 C.3     1  UNL1        0.0057
     14 C          -3.3922  -16.9487   22.7451 C.3     1  UNL1        0.0090
     15 C          -2.5376  -17.4121   21.7994 C.3     1  UNL1        0.0057
     16 O          -1.5752  -18.5073   18.8002 O.co2   1  UNL1       -0.5492
     17 C          -1.0642  -18.1582   20.1665 C.2     1  UNL1        0.0496
     18 O           0.3920  -18.3217   20.4870 O.co2   1  UNL1       -0.5492
     19 C          -9.9047  -17.6046   23.5749 C.ar    1  UNL1       -0.0005
     20 C         -10.4471  -18.7121   24.4287 C.ar    1  UNL1       -0.0029
     21 C         -11.9250  -18.9637   24.4810 C.ar    1  UNL1       -0.0015
     22 C         -12.8604  -18.1079   23.6795 C.ar    1  UNL1        0.0235
     23 C         -12.3180  -17.0003   22.8256 C.ar    1  UNL1       -0.0015
     24 C         -10.8402  -16.7487   22.7733 C.ar    1  UNL1       -0.0029
     25 C         -14.3382  -18.3596   23.7319 C.3     1  UNL1        0.3242
     26 F         -14.3694  -18.4869   22.2376 F       1  UNL1       -0.2176
     27 C         -15.8160  -18.6112   23.7842 C.3     1  UNL1        0.4363
     28 F         -17.2938  -18.8629   23.8366 F       1  UNL1       -0.1666
     29 F         -15.8202  -18.8932   22.3110 F       1  UNL1       -0.1666
     30 F         -15.9200  -18.4641   24.6514 F       1  UNL1       -0.1666
     31 C         -14.3070  -18.2322   25.2261 C.3     1  UNL1        0.4363
     32 F         -14.2757  -18.1048   26.7203 F       1  UNL1       -0.1666
     33 F         -13.8167  -17.4953   25.2614 F       1  UNL1       -0.1666
     34 F         -15.1073  -19.4060   25.7072 F       1  UNL1       -0.1666
     35 S          -8.4873  -18.1912   22.2802 S.O2    1  UNL1        0.0106
     36 O          -8.7493  -19.4342   22.7371 O.2     1  UNL1       -0.1684
     37 O          -8.2024  -16.9768   21.4469 O.2     1  UNL1       -0.1684
     38 C          -8.5477  -19.0295   21.0378 C.ar    1  UNL1        0.1061
     39 C          -7.3081  -19.7002   20.5246 C.ar    1  UNL1        0.0207
     40 C          -7.3684  -20.5386   19.2821 C.ar    1  UNL1        0.0310
     41 C          -8.6684  -20.7062   18.5529 C.ar    1  UNL1        0.1402
     42 F          -8.7288  -21.5445   17.3105 F       1  UNL1       -0.2042
     43 C          -9.9081  -20.0354   19.0661 C.ar    1  UNL1        0.0310
     44 C          -9.8478  -19.1971   20.3085 C.ar    1  UNL1        0.0207
@<TRIPOS>UNITY_ATOM_ATTR
16 1
charge -1
@<TRIPOS>BOND
     1    16    17   ar
     2    17    18   ar
     3    17     8    1
     4     8     9    1
     5     9    10    1
     6    10    11    1
     7    11     1    1
     8     1     2    2
     9     1     3   am
    10     3     4    1
    11     4     5    1
    12     5     6    1
    13     6    19    1
    14    19    20   ar
    15    20    21   ar
    16    21    22   ar
    17    22    25    1
    18    25    26    1
    19    25    27    1
    20    27    28    1
    21    27    29    1
    22    27    30    1
    23    25    31    1
    24    31    32    1
    25    31    33    1
    26    31    34    1
    27    22    23   ar
    28    23    24   ar
    29     6    35    1
    30    35    36    2
    31    35    37    2
    32    35    38    1
    33    38    39   ar
    34    39    40   ar
    35    40    41   ar
    36    41    42    1
    37    41    43   ar
    38    43    44   ar
    39     6     7    1
    40    11    12    1
    41    12    13    1
    42    11    14    1
    43    14    15    1
    44    13     8    1
    45    15     8    1
    46     7     3    1
    47    24    19   ar
    48    44    38   ar
@<TRIPOS>MOLECULE
*****
 44 48 0 0 0
SMALL
GASTEIGER

@<TRIPOS>ATOM
      1 C          -3.9942    4.8669   18.3660 C.2     1  UNL1        0.2248
      2 O          -4.5902    5.3818   17.0894 O.2     1  UNL1       -0.2749
      3 N          -2.6345    4.2335   18.3570 N.am    1  UNL1       -0.2774
      4 C          -1.7570    4.0464   17.1550 C.3     1  UNL1        0.0956
      5 C          -0.4938    3.3733   17.6035 C.3     1  UNL1        0.0497
      6 C          -0.5906    3.1444   19.0828 C.3     1  UNL1        0.1533
      7 C          -1.9136    3.6761   19.5485 C.3     1  UNL1        0.1198
      8 C          -6.2853    5.2225   22.2227 C.3     1  UNL1        0.0321
      9 C          -5.4398    6.3655   21.7445 C.3     1  UNL1        0.0057
     10 C          -4.6761    6.2469   20.4590 C.3     1  UNL1        0.0090
     11 C          -4.7579    4.9854   19.6516 C.3     1  UNL1        0.0691
     12 C          -5.6034    3.8424   20.1297 C.3     1  UNL1        0.0090
     13 C          -6.3671    3.9610   21.4153 C.3     1  UNL1        0.0057
     14 C          -5.1943    5.0036   20.3495 C.3     1  UNL1        0.0090
     15 C          -5.8849    5.1109   21.5119 C.3     1  UNL1        0.0057
     16 O          -8.4692    5.8236   23.4952 O.co2   1  UNL1       -0.5492
     17 C          -7.0491    5.3410   23.5083 C.2     1  UNL1        0.0496
     18 O          -6.3926    4.9769   24.8069 O.co2   1  UNL1       -0.5492
     19 C           0.7718    2.5384   18.9193 C.ar    1  UNL1       -0.0005
     20 C           0.9126    1.1400   18.3955 C.ar    1  UNL1       -0.0029
     21 C           2.2750    0.5340   18.2320 C.ar    1  UNL1       -0.0015
     22 C           3.4965    1.3265   18.5922 C.ar    1  UNL1        0.0235
     23 C           3.3557    2.7250   19.1160 C.ar    1  UNL1       -0.0015
     24 C           1.9934    3.3310   19.2795 C.ar    1  UNL1       -0.0029
     25 C           4.8589    0.7205   18.4286 C.3     1  UNL1        0.3242
     26 F           5.2350    1.8216   17.4820 F       1  UNL1       -0.2176
     27 C           6.2212    0.1145   18.2650 C.3     1  UNL1        0.4363
     28 F           7.5836   -0.4914   18.1015 F       1  UNL1       -0.1666
     29 F           5.9240   -0.1640   16.8214 F       1  UNL1       -0.1666
     30 F           6.4935    0.2342   19.0993 F       1  UNL1       -0.1666
     31 C           4.4828   -0.3806   19.3752 C.3     1  UNL1        0.4363
     32 F           4.1066   -1.4817   20.3217 F       1  UNL1       -0.1666
     33 F           4.4425    0.1157   20.1077 F       1  UNL1       -0.1666
     34 F           4.4135   -1.6000   18.5044 F       1  UNL1       -0.1666
     35 S          -0.4026    2.7889   20.5278 S.O2    1  UNL1        0.0106
     36 O          -0.5889    1.4523   20.5624 O.2     1  UNL1       -0.1684
     37 O          -0.1424    4.2309   20.8488 O.2     1  UNL1       -0.1684
     38 C          -0.2146    2.4333   21.9729 C.ar    1  UNL1        0.1061
     39 C          -0.9545    3.1922   23.0344 C.ar    1  UNL1        0.0207
     40 C          -0.7665    2.8367   24.4795 C.ar    1  UNL1        0.0310
     41 C           0.1613    1.7223   24.8631 C.ar    1  UNL1        0.1402
     42 F           0.3493    1.3667   26.3082 F       1  UNL1       -0.2042
     43 C           0.9011    0.9634   23.8017 C.ar    1  UNL1        0.0310
     44 C           0.7132    1.3189   22.3565 C.ar    1  UNL1        0.0207
@<TRIPOS>UNITY_ATOM_ATTR
16 1
charge -1
@<TRIPOS>BOND
     1    16    17   ar
     2    17    18   ar
     3    17     8    1
     4     8     9    1
     5     9    10    1
     6    10    11    1
     7    11     1    1
     8     1     2    2
     9     1     3   am
    10     3     4    1
    11     4     5    1
    12     5     6    1
    13     6    19    1
    14    19    20   ar
    15    20    21   ar
    16    21    22   ar
    17    22    25    1
    18    25    26    1
    19    25    27    1
    20    27    28    1
    21    27    29    1
    22    27    30    1
    23    25    31    1
    24    31    32    1
    25    31    33    1
    26    31    34    1
    27    22    23   ar
    28    23    24   ar
    29     6    35    1
    30    35    36    2
    31    35    37    2
    32    35    38    1
    33    38    39   ar
    34    39    40   ar
    35    40    41   ar
    36    41    42    1
    37    41    43   ar
    38    43    44   ar
    39     6     7    1
    40    11    12    1
    41    12    13    1
    42    11    14    1
    43    14    15    1
    44    13     8    1
    45    15     8    1
    46     7     3    1
    47    24    19   ar
    48    44    38   ar
@<TRIPOS>MOLECULE
*****
 44 48 0 0 0
SMALL
GASTEIGER

@<TRIPOS>ATOM
      1 C           8.4290   -5.8092   23.3994 C.2     1  UNL1        0.2248
      2 O           9.2925   -6.6876   22.5433 O.2     1  UNL1       -0.2749
      3 N           7.5672   -4.7579   22.7655 N.am    1  UNL1       -0.2774
      4 C           7.4647   -4.4694   21.2971 C.3     1  UNL1        0.0956
      5 C           6.4907   -3.3437   21.1127 C.3     1  UNL1        0.0497
      6 C           5.9912   -2.9364   22.4672 C.3     1  UNL1        0.1533
      7 C           6.6565   -3.8104   23.4887 C.3     1  UNL1        0.1198
      8 C           8.4243   -6.3281   27.8693 C.3     1  UNL1        0.0321
      9 C           9.1888   -5.1979   27.2463 C.3     1  UNL1        0.0057
     10 C           9.1904   -5.0250   25.7564 C.3     1  UNL1        0.0090
     11 C           8.4274   -5.9822   24.8894 C.3     1  UNL1        0.0691
     12 C           7.6629   -7.1124   25.5124 C.3     1  UNL1        0.0090
     13 C           7.6614   -7.2853   27.0024 C.3     1  UNL1        0.0057
     14 C           8.3969   -6.1175   25.7010 C.3     1  UNL1        0.0090
     15 C           8.3955   -6.2739   27.0482 C.3     1  UNL1        0.0057
     16 O           7.3321   -5.8853   30.1847 O.co2   1  UNL1       -0.5492
     17 C           8.4227   -6.5011   29.3594 C.2     1  UNL1        0.0496
     18 O           9.5118   -7.2899   30.0240 O.co2   1  UNL1       -0.5492
     19 C           5.1862   -1.9334   21.6952 C.ar    1  UNL1       -0.0005
     20 C           3.9116   -2.3512   21.0242 C.ar    1  UNL1       -0.0029
     21 C           3.1066   -1.3481   20.2521 C.ar    1  UNL1       -0.0015
     22 C           3.5764    0.0727   20.1511 C.ar    1  UNL1        0.0235
     23 C           4.8511    0.4907   20.8222 C.ar    1  UNL1       -0.0015
     24 C           5.6561   -0.5123   21.5943 C.ar    1  UNL1       -0.0029
     25 C           2.7715    1.0758   19.3791 C.3     1  UNL1        0.3242
     26 F           2.5752    1.8807   20.6295 F       1  UNL1       -0.2176
     27 C           1.9665    2.0788   18.6071 C.3     1  UNL1        0.4363
     28 F           1.1616    3.0818   17.8351 F       1  UNL1       -0.1666
     29 F           0.7111    1.5623   19.2451 F       1  UNL1       -0.1666
     30 F           2.6444    2.4536   18.1776 F       1  UNL1       -0.1666
     31 C           2.9677    0.2708   18.1287 C.3     1  UNL1        0.4363
     32 F           3.1640   -0.5341   16.8783 F       1  UNL1       -0.1666
     33 F           2.1325   -0.0136   18.0512 F       1  UNL1       -0.1666
     34 F           4.4213    0.4510   17.8055 F       1  UNL1       -0.1666
     35 S           5.3235   -2.3194   23.6603 S.O2    1  UNL1        0.0106
     36 O           4.0388   -2.7222   23.5603 O.2     1  UNL1       -0.1684
     37 O           6.6280   -1.7044   24.0724 O.2     1  UNL1       -0.1684
     38 C           4.6557   -1.7025   24.8534 C.ar    1  UNL1        0.1061
     39 C           5.1275   -2.0424   26.2361 C.ar    1  UNL1        0.0207
     40 C           4.4598   -1.4254   27.4293 C.ar    1  UNL1        0.0310
     41 C           3.3202   -0.4686   27.2397 C.ar    1  UNL1        0.1402
     42 F           2.6525    0.1483   28.4328 F       1  UNL1       -0.2042
     43 C           2.8485   -0.1287   25.8569 C.ar    1  UNL1        0.0310
     44 C           3.5162   -0.7457   24.6638 C.ar    1  UNL1        0.0207
@<TRIPOS>UNITY_ATOM_ATTR
16 1
charge -1
@<TRIPOS>BOND
     1    16    17   ar
     2    17    18   ar
     3    17     8    1
     4     8     9    1
     5     9    10    1
     6    10    11    1
     7    11     1    1
     8     1     2    2
     9     1     3   am
    10     3     4    1
    11     4     5    1
    12     5     6    1
    13     6    19    1
    14    19    20   ar
    15    20    21   ar
    16    21    22   ar
    17    22    25    1
    18    25    26    1
    19    25    27    1
    20    27    28    1
    21    27    29    1
    22    27    30    1
    23    25    31    1
    24    31    32    1
    25    31    33    1
    26    31    34    1
    27    22    23   ar
    28    23    24   ar
    29     6    35    1
    30    35    36    2
    31    35    37    2
    32    35    38    1
    33    38    39   ar
    34    39    40   ar
    35    40    41   ar
    36    41    42    1
    37    41    43   ar
    38    43    44   ar
    39     6     7    1
    40    11    12    1
    41    12    13    1
    42    11    14    1
    43    14    15    1
    44    13     8    1
    45    15     8    1
    46     7     3    1
    47    24    19   ar
    48    44    38   ar
@<TRIPOS>MOLECULE
*****
 44 48 0 0 0
SMALL
GASTEIGER

@<TRIPOS>ATOM
      1 C           8.2319   -5.4413   27.4405 C.2     1  UNL1        0.2248
      2 O           8.9405   -6.7633   27.4535 O.2     1  UNL1       -0.2749
      3 N           7.6738   -4.9021   26.1569 N.am    1  UNL1       -0.2774
      4 C           7.7471   -5.5683   24.8149 C.3     1  UNL1        0.0956
      5 C           7.0630   -4.6799   23.8184 C.3     1  UNL1        0.0497
      6 C           6.5670   -3.4647   24.5445 C.3     1  UNL1        0.1533
      7 C           6.9445   -3.6020   25.9897 C.3     1  UNL1        0.1198
      8 C           7.7803   -3.0929   31.2525 C.3     1  UNL1        0.0321
      9 C           8.7987   -2.6782   30.2323 C.3     1  UNL1        0.0057
     10 C           8.9492   -3.4610   28.9617 C.3     1  UNL1        0.0090
     11 C           8.0813   -4.6585   28.7112 C.3     1  UNL1        0.0691
     12 C           7.0629   -5.0732   29.7314 C.3     1  UNL1        0.0090
     13 C           6.9124   -4.2904   31.0020 C.3     1  UNL1        0.0057
     14 C           7.9622   -4.2610   29.4223 C.3     1  UNL1        0.0090
     15 C           7.8262   -3.5531   30.5712 C.3     1  UNL1        0.0057
     16 O           8.8257   -2.0515   33.3909 O.co2   1  UNL1       -0.5492
     17 C           7.6298   -2.3101   32.5232 C.2     1  UNL1        0.0496
     18 O           6.2833   -1.7860   32.9261 O.co2   1  UNL1       -0.5492
     19 C           6.0638   -3.0555   23.1920 C.ar    1  UNL1       -0.0005
     20 C           4.7278   -3.5386   22.7111 C.ar    1  UNL1       -0.0029
     21 C           4.2246   -3.1293   21.3585 C.ar    1  UNL1       -0.0015
     22 C           5.0575   -2.2369   20.4869 C.ar    1  UNL1        0.0235
     23 C           6.3937   -1.7538   20.9678 C.ar    1  UNL1       -0.0015
     24 C           6.8968   -2.1630   22.3203 C.ar    1  UNL1       -0.0029
     25 C           4.5544   -1.8277   19.1344 C.3     1  UNL1        0.3242
     26 F           4.5034   -0.3982   19.5859 F       1  UNL1       -0.2176
     27 C           4.0512   -1.4185   17.7819 C.3     1  UNL1        0.4363
     28 F           3.5481   -1.0093   16.4293 F       1  UNL1       -0.1666
     29 F           2.8113   -0.8577   18.4128 F       1  UNL1       -0.1666
     30 F           4.7417   -1.7177   17.3147 F       1  UNL1       -0.1666
     31 C           4.6053   -3.2572   18.6829 C.3     1  UNL1        0.4363
     32 F           4.6563   -4.6867   18.2314 F       1  UNL1       -0.1666
     33 F           5.4866   -3.3191   18.6195 F       1  UNL1       -0.1666
     34 F           3.1647   -3.6711   18.6248 F       1  UNL1       -0.1666
     35 S           5.9658   -2.1640   24.9879 S.O2    1  UNL1        0.0106
     36 O           4.6349   -2.3716   24.8975 O.2     1  UNL1       -0.1684
     37 O           7.3399   -1.6018   25.2019 O.2     1  UNL1       -0.1684
     38 C           5.3645   -0.8632   25.4312 C.ar    1  UNL1        0.1061
     39 C           3.8900   -0.7680   25.6895 C.ar    1  UNL1        0.0207
     40 C           3.2887    0.5328   26.1328 C.ar    1  UNL1        0.0310
     41 C           4.1619    1.7382   26.3179 C.ar    1  UNL1        0.1402
     42 F           3.5607    3.0390   26.7612 F       1  UNL1       -0.2042
     43 C           5.6364    1.6430   26.0596 C.ar    1  UNL1        0.0310
     44 C           6.2378    0.3422   25.6163 C.ar    1  UNL1        0.0207
@<TRIPOS>UNITY_ATOM_ATTR
16 1
charge -1
@<TRIPOS>BOND
     1    16    17   ar
     2    17    18   ar
     3    17     8    1
     4     8     9    1
     5     9    10    1
     6    10    11    1
     7    11     1    1
     8     1     2    2
     9     1     3   am
    10     3     4    1
    11     4     5    1
    12     5     6    1
    13     6    19    1
    14    19    20   ar
    15    20    21   ar
    16    21    22   ar
    17    22    25    1
    18    25    26    1
    19    25    27    1
    20    27    28    1
    21    27    29    1
    22    27    30    1
    23    25    31    1
    24    31    32    1
    25    31    33    1
    26    31    34    1
    27    22    23   ar
    28    23    24   ar
    29     6    35    1
    30    35    36    2
    31    35    37    2
    32    35    38    1
    33    38    39   ar
    34    39    40   ar
    35    40    41   ar
    36    41    42    1
    37    41    43   ar
    38    43    44   ar
    39     6     7    1
    40    11    12    1
    41    12    13    1
    42    11    14    1
    43    14    15    1
    44    13     8    1
    45    15     8    1
    46     7     3    1
    47    24    19   ar
    48    44    38   ar
@<TRIPOS>MOLECULE
*****
 44 48 0 0 0
SMALL
GASTEIGER

@<TRIPOS>ATOM
      1 C          -1.4184    2.8471   25.6196 C.2     1  UNL1        0.2248
      2 O          -1.3357    2.5079   27.0784 O.2     1  UNL1       -0.2749
      3 N          -0.4597    2.2236   24.6490 N.am    1  UNL1       -0.2774
      4 C           0.6290    1.2490   24.9880 C.3     1  UNL1        0.0956
      5 C           1.3403    0.8883   23.7176 C.3     1  UNL1        0.0497
      6 C           0.6912    1.6400   22.5934 C.3     1  UNL1        0.1533
      7 C          -0.4212    2.4653   23.1691 C.3     1  UNL1        0.1198
      8 C          -4.5429    5.7354   24.1549 C.3     1  UNL1        0.0321
      9 C          -3.2159    6.2452   24.6336 C.3     1  UNL1        0.0057
     10 C          -2.1744    5.2825   25.1218 C.3     1  UNL1        0.0090
     11 C          -2.4600    3.8099   25.1313 C.3     1  UNL1        0.0691
     12 C          -3.7870    3.3001   24.6527 C.3     1  UNL1        0.0090
     13 C          -4.8284    4.2629   24.1645 C.3     1  UNL1        0.0057
     14 C          -3.0619    4.2989   24.8548 C.3     1  UNL1        0.0090
     15 C          -4.0036    5.1695   24.4133 C.3     1  UNL1        0.0057
     16 O          -6.5840    7.2722   24.6266 O.co2   1  UNL1       -0.5492
     17 C          -5.5845    6.6982   23.6667 C.2     1  UNL1        0.0496
     18 O          -5.6265    7.0869   22.2185 O.co2   1  UNL1       -0.5492
     19 C           1.7125    0.9413   21.7457 C.ar    1  UNL1       -0.0005
     20 C           3.0916    1.5148   21.6075 C.ar    1  UNL1       -0.0029
     21 C           4.1130    0.8160   20.7597 C.ar    1  UNL1       -0.0015
     22 C           3.7553   -0.4561   20.0502 C.ar    1  UNL1        0.0235
     23 C           2.3761   -1.0296   20.1883 C.ar    1  UNL1       -0.0015
     24 C           1.3548   -0.3310   21.0361 C.ar    1  UNL1       -0.0029
     25 C           4.7766   -1.1548   19.2024 C.3     1  UNL1        0.3242
     26 F           5.6035   -1.4278   20.4238 F       1  UNL1       -0.2176
     27 C           5.7980   -1.8535   18.3547 C.3     1  UNL1        0.4363
     28 F           6.8193   -2.5521   17.5070 F       1  UNL1       -0.1666
     29 F           5.4104   -3.1657   18.9693 F       1  UNL1       -0.1666
     30 F           6.0986   -1.1347   17.9335 F       1  UNL1       -0.1666
     31 C           3.9497   -0.8817   17.9811 C.3     1  UNL1        0.4363
     32 F           3.1228   -0.6087   16.7598 F       1  UNL1       -0.1666
     33 F           3.7134   -1.7202   17.8211 F       1  UNL1       -0.1666
     34 F           4.0423    0.6050   17.8051 F       1  UNL1       -0.1666
     35 S           0.2556    2.2456   21.2921 S.O2    1  UNL1        0.0106
     36 O          -0.5832    1.3265   20.7686 O.2     1  UNL1       -0.1684
     37 O           1.1076    3.4491   21.5670 O.2     1  UNL1       -0.1684
     38 C          -0.1800    2.8512   19.9908 C.ar    1  UNL1        0.1061
     39 C           0.7438    2.8341   18.8091 C.ar    1  UNL1        0.0207
     40 C           0.3083    3.4396   17.5077 C.ar    1  UNL1        0.0310
     41 C          -1.0511    4.0623   17.3880 C.ar    1  UNL1        0.1402
     42 F          -1.4867    4.6679   16.0866 F       1  UNL1       -0.2042
     43 C          -1.9748    4.0794   18.5696 C.ar    1  UNL1        0.0310
     44 C          -1.5393    3.4738   19.8710 C.ar    1  UNL1        0.0207
@<TRIPOS>UNITY_ATOM_ATTR
16 1
charge -1
@<TRIPOS>BOND
     1    16    17   ar
     2    17    18   ar
     3    17     8    1
     4     8     9    1
     5     9    10    1
     6    10    11    1
     7    11     1    1
     8     1     2    2
     9     1     3   am
    10     3     4    1
    11     4     5    1
    12     5     6    1
    13     6    19    1
    14    19    20   ar
    15    20    21   ar
    16    21    22   ar
    17    22    25    1
    18    25    26    1
    19    25    27    1
    20    27    28    1
    21    27    29    1
    22    27    30    1
    23    25    31    1
    24    31    32    1
    25    31    33    1
    26    31    34    1
    27    22    23   ar
    28    23    24   ar
    29     6    35    1
    30    35    36    2
    31    35    37    2
    32    35    38    1
    33    38    39   ar
    34    39    40   ar
    35    40    41   ar
    36    41    42    1
    37    41    43   ar
    38    43    44   ar
    39     6     7    1
    40    11    12    1
    41    12    13    1
    42    11    14    1
    43    14    15    1
    44    13     8    1
    45    15     8    1
    46     7     3    1
    47    24    19   ar
    48    44    38   ar
@<TRIPOS>MOLECULE
*****
 44 48 0 0 0
SMALL
GASTEIGER

@<TRIPOS>ATOM
      1 C          -2.6401    4.0638   19.4490 C.2     1  UNL1        0.2248
      2 O          -3.3074    4.6193   18.2258 O.2     1  UNL1       -0.2749
      3 N          -1.3565    3.2984   19.3209 N.am    1  UNL1       -0.2774
      4 C          -0.6258    3.0099   18.0430 C.3     1  UNL1        0.0956
      5 C           0.6041    2.2203   18.3805 C.3     1  UNL1        0.0497
      6 C           0.6336    2.0208   19.8669 C.3     1  UNL1        0.1533
      7 C          -0.5782    2.6872   20.4481 C.3     1  UNL1        0.1198
      8 C          -4.4892    4.6937   23.5028 C.3     1  UNL1        0.0321
      9 C          -4.8658    3.4941   22.6849 C.3     1  UNL1        0.0057
     10 C          -4.2495    3.2841   21.3337 C.3     1  UNL1        0.0090
     11 C          -3.2565    4.2738   20.8003 C.3     1  UNL1        0.0691
     12 C          -2.8799    5.4734   21.6182 C.3     1  UNL1        0.0090
     13 C          -3.4962    5.6834   22.9695 C.3     1  UNL1        0.0057
     14 C          -3.5676    4.4314   21.5461 C.3     1  UNL1        0.0090
     15 C          -4.1249    4.6212   22.7680 C.3     1  UNL1        0.0057
     16 O          -6.3078    5.7886   25.0009 O.co2   1  UNL1       -0.5492
     17 C          -5.1056    4.9037   24.8542 C.2     1  UNL1        0.0496
     18 O          -4.5197    4.2286   26.0588 O.co2   1  UNL1       -0.5492
     19 C           1.9071    1.2805   19.5841 C.ar    1  UNL1       -0.0005
     20 C           1.8980   -0.2160   19.4830 C.ar    1  UNL1       -0.0029
     21 C           3.1716   -0.9564   19.2002 C.ar    1  UNL1       -0.0015
     22 C           4.4542   -0.2002   19.0185 C.ar    1  UNL1        0.0235
     23 C           4.4633    1.2963   19.1197 C.ar    1  UNL1       -0.0015
     24 C           3.1898    2.0367   19.4025 C.ar    1  UNL1       -0.0029
     25 C           5.7277   -0.9406   18.7358 C.3     1  UNL1        0.3242
     26 F           5.5628   -1.7116   20.0118 F       1  UNL1       -0.2176
     27 C           7.0012   -1.6810   18.4530 C.3     1  UNL1        0.4363
     28 F           8.2748   -2.4213   18.1702 F       1  UNL1       -0.1666
     29 F           7.6562   -0.9992   19.6175 F       1  UNL1       -0.1666
     30 F           6.7091   -2.1338   17.7501 F       1  UNL1       -0.1666
     31 C           5.8926   -0.1696   17.4597 C.3     1  UNL1        0.4363
     32 F           6.0575    0.6014   16.1836 F       1  UNL1       -0.1666
     33 F           6.6129    0.2858   17.7010 F       1  UNL1       -0.1666
     34 F           4.7597   -0.6452   16.5993 F       1  UNL1       -0.1666
     35 S           0.9292    1.6666   21.2941 S.O2    1  UNL1        0.0106
     36 O           1.8965    2.5372   21.6532 O.2     1  UNL1       -0.1684
     37 O          -0.1048    0.5813   21.2390 O.2     1  UNL1       -0.1684
     38 C           1.2249    1.3124   22.7214 C.ar    1  UNL1        0.1061
     39 C           2.4357    0.4924   23.0553 C.ar    1  UNL1        0.0207
     40 C           2.7315    0.1381   24.4825 C.ar    1  UNL1        0.0310
     41 C           1.8163    0.6039   25.5759 C.ar    1  UNL1        0.1402
     42 F           2.1120    0.2497   27.0032 F       1  UNL1       -0.2042
     43 C           0.6055    1.4239   25.2421 C.ar    1  UNL1        0.0310
     44 C           0.3097    1.7781   23.8148 C.ar    1  UNL1        0.0207
@<TRIPOS>UNITY_ATOM_ATTR
16 1
charge -1
@<TRIPOS>BOND
     1    16    17   ar
     2    17    18   ar
     3    17     8    1
     4     8     9    1
     5     9    10    1
     6    10    11    1
     7    11     1    1
     8     1     2    2
     9     1     3   am
    10     3     4    1
    11     4     5    1
    12     5     6    1
    13     6    19    1
    14    19    20   ar
    15    20    21   ar
    16    21    22   ar
    17    22    25    1
    18    25    26    1
    19    25    27    1
    20    27    28    1
    21    27    29    1
    22    27    30    1
    23    25    31    1
    24    31    32    1
    25    31    33    1
    26    31    34    1
    27    22    23   ar
    28    23    24   ar
    29     6    35    1
    30    35    36    2
    31    35    37    2
    32    35    38    1
    33    38    39   ar
    34    39    40   ar
    35    40    41   ar
    36    41    42    1
    37    41    43   ar
    38    43    44   ar
    39     6     7    1
    40    11    12    1
    41    12    13    1
    42    11    14    1
    43    14    15    1
    44    13     8    1
    45    15     8    1
    46     7     3    1
    47    24    19   ar
    48    44    38   ar
@<TRIPOS>MOLECULE
*****
 44 48 0 0 0
SMALL
GASTEIGER

@<TRIPOS>ATOM
      1 C           6.1039   -1.0615   23.1952 C.2     1  UNL1        0.2248
      2 O           7.3731   -1.4124   22.4768 O.2     1  UNL1       -0.2749
      3 N           6.0830   -0.9987   24.6937 N.am    1  UNL1       -0.2774
      4 C           7.2466   -1.2603   25.6034 C.3     1  UNL1        0.0956
      5 C           6.7776   -1.0866   27.0175 C.3     1  UNL1        0.0497
      6 C           5.3240   -0.7176   26.9818 C.3     1  UNL1        0.1533
      7 C           4.8948   -0.6633   25.5456 C.3     1  UNL1        0.1198
      8 C           2.3590   -0.1970   20.8545 C.3     1  UNL1        0.0321
      9 C           3.1672    0.9327   21.4205 C.3     1  UNL1        0.0057
     10 C           4.4155    0.6446   22.2007 C.3     1  UNL1        0.0090
     11 C           4.8556   -0.7734   22.4149 C.3     1  UNL1        0.0691
     12 C           4.0474   -1.9031   21.8489 C.3     1  UNL1        0.0090
     13 C           2.7991   -1.6150   21.0687 C.3     1  UNL1        0.0057
     14 C           4.1645   -0.6650   21.9806 C.3     1  UNL1        0.0090
     15 C           3.0358   -0.4044   21.2751 C.3     1  UNL1        0.0057
     16 O          -0.2085    0.1935   20.7807 O.co2   1  UNL1       -0.5492
     17 C           1.1107    0.0911   20.0742 C.2     1  UNL1        0.0496
     18 O           1.1816    0.2768   18.5875 O.co2   1  UNL1       -0.5492
     19 C           5.4552   -0.6938   28.4759 C.ar    1  UNL1       -0.0005
     20 C           5.7943   -1.9517   29.2191 C.ar    1  UNL1       -0.0029
     21 C           5.9255   -1.9278   30.7133 C.ar    1  UNL1       -0.0015
     22 C           5.7175   -0.6460   31.4641 C.ar    1  UNL1        0.0235
     23 C           5.3783    0.6119   30.7207 C.ar    1  UNL1       -0.0015
     24 C           5.2471    0.5881   29.2267 C.ar    1  UNL1       -0.0029
     25 C           5.8486   -0.6222   32.9581 C.3     1  UNL1        0.3242
     26 F           6.7792    0.5499   32.8577 F       1  UNL1       -0.2176
     27 C           5.9798   -0.5983   34.4522 C.3     1  UNL1        0.4363
     28 F           6.1109   -0.5745   35.9462 F       1  UNL1       -0.1666
     29 F           7.4468   -0.8855   34.3280 F       1  UNL1       -0.1666
     30 F           5.1295   -0.4283   34.6325 F       1  UNL1       -0.1666
     31 C           4.9180   -1.7943   33.0585 C.3     1  UNL1        0.4363
     32 F           3.9874   -2.9664   33.1589 F       1  UNL1       -0.1666
     33 F           5.5210   -2.3890   33.3177 F       1  UNL1       -0.1666
     34 F           3.5836   -1.2329   32.6657 F       1  UNL1       -0.1666
     35 S           3.8980   -0.3438   27.2584 S.O2    1  UNL1        0.0106
     36 O           3.3371   -1.4929   27.6913 O.2     1  UNL1       -0.1684
     37 O           4.1847    1.0654   26.8318 O.2     1  UNL1       -0.1684
     38 C           2.4720    0.0301   27.5351 C.ar    1  UNL1        0.1061
     39 C           1.7760   -0.5128   28.7479 C.ar    1  UNL1        0.0207
     40 C           0.3499   -0.1389   29.0246 C.ar    1  UNL1        0.0310
     41 C          -0.3802    0.7779   28.0884 C.ar    1  UNL1        0.1402
     42 F          -1.8063    1.1517   28.3651 F       1  UNL1       -0.2042
     43 C           0.3157    1.3208   26.8756 C.ar    1  UNL1        0.0310
     44 C           1.7418    0.9469   26.5989 C.ar    1  UNL1        0.0207
@<TRIPOS>UNITY_ATOM_ATTR
16 1
charge -1
@<TRIPOS>BOND
     1    16    17   ar
     2    17    18   ar
     3    17     8    1
     4     8     9    1
     5     9    10    1
     6    10    11    1
     7    11     1    1
     8     1     2    2
     9     1     3   am
    10     3     4    1
    11     4     5    1
    12     5     6    1
    13     6    19    1
    14    19    20   ar
    15    20    21   ar
    16    21    22   ar
    17    22    25    1
    18    25    26    1
    19    25    27    1
    20    27    28    1
    21    27    29    1
    22    27    30    1
    23    25    31    1
    24    31    32    1
    25    31    33    1
    26    31    34    1
    27    22    23   ar
    28    23    24   ar
    29     6    35    1
    30    35    36    2
    31    35    37    2
    32    35    38    1
    33    38    39   ar
    34    39    40   ar
    35    40    41   ar
    36    41    42    1
    37    41    43   ar
    38    43    44   ar
    39     6     7    1
    40    11    12    1
    41    12    13    1
    42    11    14    1
    43    14    15    1
    44    13     8    1
    45    15     8    1
    46     7     3    1
    47    24    19   ar
    48    44    38   ar
@<TRIPOS>MOLECULE
*****
 44 48 0 0 0
SMALL
GASTEIGER

@<TRIPOS>ATOM
      1 C           7.2847   -1.3582   28.8579 C.2     1  UNL1        0.2248
      2 O           8.6268   -1.9170   29.2275 O.2     1  UNL1       -0.2749
      3 N           6.8522   -1.3339   27.4218 N.am    1  UNL1       -0.2774
      4 C           7.6496   -1.8302   26.2523 C.3     1  UNL1        0.0956
      5 C           6.8365   -1.6120   25.0108 C.3     1  UNL1        0.0497
      6 C           5.5365   -0.9808   25.4131 C.3     1  UNL1        0.1533
      7 C           5.5462   -0.8089   26.9031 C.3     1  UNL1        0.1198
      8 C           4.5563    0.2451   32.0571 C.3     1  UNL1        0.0321
      9 C           5.5125    1.1645   31.3569 C.3     1  UNL1        0.0057
     10 C           6.4219    0.6301   30.2905 C.3     1  UNL1        0.0090
     11 C           6.3752   -0.8238   29.9243 C.3     1  UNL1        0.0691
     12 C           5.4190   -1.7432   30.6245 C.3     1  UNL1        0.0090
     13 C           4.5096   -1.2088   31.6909 C.3     1  UNL1        0.0057
     14 C           5.8575   -0.5771   30.5150 C.3     1  UNL1        0.0090
     15 C           5.0351   -0.0938   31.4793 C.3     1  UNL1        0.0057
     16 O           2.3309    1.3940   32.7483 O.co2   1  UNL1       -0.5492
     17 C           3.6468    0.7795   33.1235 C.2     1  UNL1        0.0496
     18 O           4.0532    0.6993   34.5652 O.co2   1  UNL1       -0.5492
     19 C           5.2422   -1.0226   23.9428 C.ar    1  UNL1       -0.0005
     20 C           4.4649   -2.1682   23.3658 C.ar    1  UNL1       -0.0029
     21 C           4.1707   -2.2100   21.8955 C.ar    1  UNL1       -0.0015
     22 C           4.6537   -1.1060   21.0022 C.ar    1  UNL1        0.0235
     23 C           5.4310    0.0397   21.5793 C.ar    1  UNL1       -0.0015
     24 C           5.7253    0.0815   23.0495 C.ar    1  UNL1       -0.0029
     25 C           4.3594   -1.1478   19.5320 C.3     1  UNL1        0.3242
     26 F           5.8270   -1.0574   19.2357 F       1  UNL1       -0.2176
     27 C           4.0651   -1.1895   18.0618 C.3     1  UNL1        0.4363
     28 F           3.7708   -1.2313   16.5915 F       1  UNL1       -0.1666
     29 F           4.7770   -2.5056   17.9566 F       1  UNL1       -0.1666
     30 F           3.6266   -0.4212   18.0175 F       1  UNL1       -0.1666
     31 C           2.8917   -1.2382   19.8284 C.3     1  UNL1        0.4363
     32 F           1.4241   -1.3286   20.1247 F       1  UNL1       -0.1666
     33 F           2.7868   -0.4048   20.1095 F       1  UNL1       -0.1666
     34 F           2.5354   -2.6504   19.4700 F       1  UNL1       -0.1666
     35 S           4.1751   -0.3584   25.5079 S.O2    1  UNL1        0.0106
     36 O           4.3414    0.8731   24.9805 O.2     1  UNL1       -0.1684
     37 O           3.6451   -1.6135   26.1356 O.2     1  UNL1       -0.1684
     38 C           2.8137    0.2640   25.6028 C.ar    1  UNL1        0.1061
     39 C           2.0084    0.4996   24.3594 C.ar    1  UNL1        0.0207
     40 C           0.6469    1.1221   24.4542 C.ar    1  UNL1        0.0310
     41 C           0.0907    1.5089   25.7924 C.ar    1  UNL1        0.1402
     42 F          -1.2707    2.1314   25.8873 F       1  UNL1       -0.2042
     43 C           0.8960    1.2733   27.0358 C.ar    1  UNL1        0.0310
     44 C           2.2575    0.6509   26.9411 C.ar    1  UNL1        0.0207
@<TRIPOS>UNITY_ATOM_ATTR
16 1
charge -1
@<TRIPOS>BOND
     1    16    17   ar
     2    17    18   ar
     3    17     8    1
     4     8     9    1
     5     9    10    1
     6    10    11    1
     7    11     1    1
     8     1     2    2
     9     1     3   am
    10     3     4    1
    11     4     5    1
    12     5     6    1
    13     6    19    1
    14    19    20   ar
    15    20    21   ar
    16    21    22   ar
    17    22    25    1
    18    25    26    1
    19    25    27    1
    20    27    28    1
    21    27    29    1
    22    27    30    1
    23    25    31    1
    24    31    32    1
    25    31    33    1
    26    31    34    1
    27    22    23   ar
    28    23    24   ar
    29     6    35    1
    30    35    36    2
    31    35    37    2
    32    35    38    1
    33    38    39   ar
    34    39    40   ar
    35    40    41   ar
    36    41    42    1
    37    41    43   ar
    38    43    44   ar
    39     6     7    1
    40    11    12    1
    41    12    13    1
    42    11    14    1
    43    14    15    1
    44    13     8    1
    45    15     8    1
    46     7     3    1
    47    24    19   ar
    48    44    38   ar
@<TRIPOS>MOLECULE
*****
 44 48 0 0 0
SMALL
GASTEIGER

@<TRIPOS>ATOM
      1 C           8.0651   -5.1866   23.1986 C.2     1  UNL1        0.2248
      2 O           8.9401   -6.0603   22.3494 O.2     1  UNL1       -0.2749
      3 N           7.1178   -4.2197   22.5525 N.am    1  UNL1       -0.2774
      4 C           6.9358   -4.0158   21.0776 C.3     1  UNL1        0.0956
      5 C           5.8916   -2.9570   20.8814 C.3     1  UNL1        0.0497
      6 C           5.4283   -2.5064   22.2350 C.3     1  UNL1        0.1533
      7 C           6.1861   -3.2868   23.2678 C.3     1  UNL1        0.1198
      8 C           8.2826   -5.4665   27.6846 C.3     1  UNL1        0.0321
      9 C           9.1269   -4.4650   26.9538 C.3     1  UNL1        0.0057
     10 C           9.0545   -4.3718   25.4585 C.3     1  UNL1        0.0090
     11 C           8.1376   -5.2800   24.6940 C.3     1  UNL1        0.0691
     12 C           7.2932   -6.2814   25.4247 C.3     1  UNL1        0.0090
     13 C           7.3657   -6.3747   26.9200 C.3     1  UNL1        0.0057
     14 C           8.1431   -5.3681   25.5125 C.3     1  UNL1        0.0090
     15 C           8.2087   -5.4524   26.8647 C.3     1  UNL1        0.0057
     16 O           7.4058   -4.7661   30.0278 O.co2   1  UNL1       -0.5492
     17 C           8.3550   -5.5598   29.1800 C.2     1  UNL1        0.0496
     18 O           9.3768   -6.4468   29.8274 O.co2   1  UNL1       -0.5492
     19 C           4.5346   -1.5918   21.4510 C.ar    1  UNL1       -0.0005
     20 C           4.9458   -0.1704   21.2055 C.ar    1  UNL1       -0.0029
     21 C           4.0520    0.7442   20.4214 C.ar    1  UNL1       -0.0015
     22 C           2.7470    0.2374   19.8828 C.ar    1  UNL1        0.0235
     23 C           2.3358   -1.1841   20.1283 C.ar    1  UNL1       -0.0015
     24 C           3.2295   -2.0987   20.9123 C.ar    1  UNL1       -0.0029
     25 C           1.8533    1.1519   19.0987 C.3     1  UNL1        0.3242
     26 F           2.8623    1.1869   17.9894 F       1  UNL1       -0.2176
     27 C           0.9596    2.0665   18.3146 C.3     1  UNL1        0.4363
     28 F           0.0659    2.9811   17.5306 F       1  UNL1       -0.1666
     29 F           1.5726    3.2522   18.9990 F       1  UNL1       -0.1666
     30 F           0.5360    1.4375   17.8571 F       1  UNL1       -0.1666
     31 C           0.8443    1.1170   20.2081 C.3     1  UNL1        0.4363
     32 F          -0.1647    1.0821   21.3174 F       1  UNL1       -0.1666
     33 F           0.2169    0.6716   19.7694 F       1  UNL1       -0.1666
     34 F           1.5186    1.8418   21.3349 F       1  UNL1       -0.1666
     35 S           4.7782   -1.8646   23.4247 S.O2    1  UNL1        0.0106
     36 O           3.5390   -2.3997   23.4480 O.2     1  UNL1       -0.1684
     37 O           6.0351   -1.0918   23.6947 O.2     1  UNL1       -0.1684
     38 C           4.1280   -1.2229   24.6144 C.ar    1  UNL1        0.1061
     39 C           3.1094   -0.1392   24.4188 C.ar    1  UNL1        0.0207
     40 C           2.4592    0.5026   25.6085 C.ar    1  UNL1        0.0310
     41 C           2.8276    0.0607   26.9938 C.ar    1  UNL1        0.1402
     42 F           2.1774    0.7025   28.1835 F       1  UNL1       -0.2042
     43 C           3.8461   -1.0229   27.1894 C.ar    1  UNL1        0.0310
     44 C           4.4964   -1.6647   25.9997 C.ar    1  UNL1        0.0207
@<TRIPOS>UNITY_ATOM_ATTR
16 1
charge -1
@<TRIPOS>BOND
     1    16    17   ar
     2    17    18   ar
     3    17     8    1
     4     8     9    1
     5     9    10    1
     6    10    11    1
     7    11     1    1
     8     1     2    2
     9     1     3   am
    10     3     4    1
    11     4     5    1
    12     5     6    1
    13     6    19    1
    14    19    20   ar
    15    20    21   ar
    16    21    22   ar
    17    22    25    1
    18    25    26    1
    19    25    27    1
    20    27    28    1
    21    27    29    1
    22    27    30    1
    23    25    31    1
    24    31    32    1
    25    31    33    1
    26    31    34    1
    27    22    23   ar
    28    23    24   ar
    29     6    35    1
    30    35    36    2
    31    35    37    2
    32    35    38    1
    33    38    39   ar
    34    39    40   ar
    35    40    41   ar
    36    41    42    1
    37    41    43   ar
    38    43    44   ar
    39     6     7    1
    40    11    12    1
    41    12    13    1
    42    11    14    1
    43    14    15    1
    44    13     8    1
    45    15     8    1
    46     7     3    1
    47    24    19   ar
    48    44    38   ar
