@<TRIPOS>MOLECULE
*****
 25 27 0 0 0
SMALL
GASTEIGER

@<TRIPOS>ATOM
      1 C          -6.9022  -19.0623   22.3222 C.ar    1  UNL1       -0.0223
      2 C          -7.7508  -17.8956   22.7329 C.ar    1  UNL1       -0.0012
      3 C          -9.0512  -18.1273   23.4436 C.ar    1  UNL1        0.0366
      4 C          -9.5032  -19.5258   23.7436 C.ar    1  UNL1        0.1385
      5 C          -8.6546  -20.6925   23.3329 C.ar    1  UNL1        0.0366
      6 C          -7.3542  -20.4607   22.6222 C.ar    1  UNL1       -0.0012
      7 C          -3.0008  -18.3670   20.1902 C.3     1  UNL1        0.0576
      8 C          -4.2032  -18.8300   19.4221 C.3     1  UNL1        0.0163
      9 C          -5.5036  -19.0617   20.1328 C.3     1  UNL1        0.0057
     10 C          -5.6018  -18.8305   21.6115 C.3     1  UNL1        0.0224
     11 C          -4.3994  -18.3676   22.3796 C.3     1  UNL1        0.0057
     12 C          -3.0990  -18.1359   21.6689 C.3     1  UNL1        0.0163
     13 C          -0.4029  -18.3949   20.1859 C.3     1  UNL1        0.0896
     14 N          -1.7004  -18.1353   19.4795 N.3     1  UNL1       -0.2716
     15 C          -1.6974  -17.6439   18.0623 C.3     1  UNL1        0.0896
     16 O         -10.8036  -19.7575   24.4543 O.3     1  UNL1       -0.4754
     17 C         -11.6526  -18.5908   24.8642 C.3     1  UNL1        0.2068
     18 C         -13.0866  -18.5177   24.4303 C.3     1  UNL1        0.0646
     19 C         -13.4705  -17.6788   23.2475 C.3     1  UNL1        0.0759
     20 N         -12.5218  -17.5281   22.0954 N.3     1  UNL1       -0.2726
     21 C         -12.0324  -16.1665   21.6999 C.3     1  UNL1        0.0721
     22 C         -11.0837  -16.0159   20.5478 C.3     1  UNL1        0.0174
     23 C         -10.6245  -17.2268   19.7911 C.3     1  UNL1        0.0029
     24 C         -11.1140  -18.5885   20.1865 C.3     1  UNL1        0.0174
     25 C         -12.0626  -18.7392   21.3387 C.3     1  UNL1        0.0721
@<TRIPOS>BOND
     1    13    14    1
     2    14    15    1
     3     7    14    1
     4     7     8    1
     5     8     9    1
     6     9    10    1
     7    10     1    1
     8     1     2   ar
     9     2     3   ar
    10     3     4   ar
    11     4    16    1
    12    16    17    1
    13    17    18    1
    14    18    19    1
    15    19    20    1
    16    20    21    1
    17    21    22    1
    18    22    23    1
    19    23    24    1
    20    24    25    1
    21     4     5   ar
    22     5     6   ar
    23    10    11    1
    24    11    12    1
    25    12     7    1
    26     6     1   ar
    27    25    20    1
@<TRIPOS>MOLECULE
*****
 25 27 0 0 0
SMALL
GASTEIGER

@<TRIPOS>ATOM
      1 C          -7.8070  -19.1902   21.2700 C.ar    1  UNL1       -0.0223
      2 C          -8.4002  -19.5783   22.5919 C.ar    1  UNL1       -0.0012
      3 C          -9.8866  -19.7218   22.7338 C.ar    1  UNL1        0.0366
      4 C         -10.7798  -19.4772   21.5538 C.ar    1  UNL1        0.1385
      5 C         -10.1866  -19.0892   20.2319 C.ar    1  UNL1        0.0366
      6 C          -8.7002  -18.9457   20.0900 C.ar    1  UNL1       -0.0012
      7 C          -3.3480  -18.7597   20.8442 C.3     1  UNL1        0.0576
      8 C          -4.1973  -19.0017   19.6317 C.3     1  UNL1        0.0163
      9 C          -5.6836  -19.1452   19.7736 C.3     1  UNL1        0.0057
     10 C          -6.3207  -19.0467   21.1280 C.3     1  UNL1        0.0224
     11 C          -5.4714  -18.8048   22.3405 C.3     1  UNL1        0.0057
     12 C          -3.9850  -18.6613   22.1986 C.3     1  UNL1        0.0163
     13 C          -0.9723  -18.8091   21.8946 C.3     1  UNL1        0.0896
     14 N          -1.8616  -18.6162   20.7022 N.3     1  UNL1       -0.2716
     15 C          -1.2646  -18.2799   19.3679 C.3     1  UNL1        0.0896
     16 O         -12.2661  -19.6207   21.6958 O.3     1  UNL1       -0.4754
     17 C         -13.1244  -18.4024   21.8657 C.3     1  UNL1        0.2068
     18 C         -12.7783  -17.3806   22.9078 C.3     1  UNL1        0.0646
     19 C         -11.9818  -16.1662   22.5321 C.3     1  UNL1        0.0759
     20 N         -10.5105  -16.1159   22.8195 N.3     1  UNL1       -0.2726
     21 C         -10.0016  -16.4572   24.1886 C.3     1  UNL1        0.0721
     22 C          -8.5302  -16.4068   24.4760 C.3     1  UNL1        0.0174
     23 C          -7.5677  -16.0153   23.3942 C.3     1  UNL1        0.0029
     24 C          -8.0766  -15.6740   22.0250 C.3     1  UNL1        0.0174
     25 C          -9.5480  -15.7243   21.7376 C.3     1  UNL1        0.0721
@<TRIPOS>BOND
     1    13    14    1
     2    14    15    1
     3     7    14    1
     4     7     8    1
     5     8     9    1
     6     9    10    1
     7    10     1    1
     8     1     2   ar
     9     2     3   ar
    10     3     4   ar
    11     4    16    1
    12    16    17    1
    13    17    18    1
    14    18    19    1
    15    19    20    1
    16    20    21    1
    17    21    22    1
    18    22    23    1
    19    23    24    1
    20    24    25    1
    21     4     5   ar
    22     5     6   ar
    23    10    11    1
    24    11    12    1
    25    12     7    1
    26     6     1   ar
    27    25    20    1
@<TRIPOS>MOLECULE
*****
 25 27 0 0 0
SMALL
GASTEIGER

@<TRIPOS>ATOM
      1 C          -8.3180  -18.9906   23.1122 C.ar    1  UNL1       -0.0223
      2 C          -8.9620  -17.6697   23.4131 C.ar    1  UNL1       -0.0012
      3 C         -10.2985  -17.6244   24.0925 C.ar    1  UNL1        0.0366
      4 C         -10.9911  -18.9000   24.4710 C.ar    1  UNL1        0.1385
      5 C         -10.3472  -20.2208   24.1700 C.ar    1  UNL1        0.0366
      6 C          -9.0106  -20.2661   23.4906 C.ar    1  UNL1       -0.0012
      7 C          -4.3084  -19.1264   21.0740 C.3     1  UNL1        0.0576
      8 C          -5.4067  -20.0467   20.6305 C.3     1  UNL1        0.0163
      9 C          -6.7433  -20.0014   21.3099 C.3     1  UNL1        0.0057
     10 C          -6.9815  -19.0359   22.4328 C.3     1  UNL1        0.0224
     11 C          -5.8831  -18.1156   22.8763 C.3     1  UNL1        0.0057
     12 C          -4.5466  -18.1609   22.1969 C.3     1  UNL1        0.0163
     13 C          -2.8358  -18.7061   18.9752 C.3     1  UNL1        0.0896
     14 N          -2.9718  -19.1717   20.3946 N.3     1  UNL1       -0.2716
     15 C          -1.7713  -19.6826   21.1346 C.3     1  UNL1        0.0896
     16 O         -12.3277  -18.8547   25.1504 O.3     1  UNL1       -0.4754
     17 C         -13.5302  -18.3535   24.4070 C.3     1  UNL1        0.2068
     18 C         -13.3662  -17.3478   23.3063 C.3     1  UNL1        0.0646
     19 C         -13.4501  -17.7838   21.8734 C.3     1  UNL1        0.0759
     20 N         -12.2000  -18.1326   21.1213 N.3     1  UNL1       -0.2726
     21 C         -11.3935  -17.0517   20.4647 C.3     1  UNL1        0.0721
     22 C         -10.1435  -17.4005   19.7126 C.3     1  UNL1        0.0174
     23 C          -9.7000  -18.8302   19.6169 C.3     1  UNL1        0.0029
     24 C         -10.5065  -19.9112   20.2734 C.3     1  UNL1        0.0174
     25 C         -11.7566  -19.5624   21.0256 C.3     1  UNL1        0.0721
@<TRIPOS>BOND
     1    13    14    1
     2    14    15    1
     3     7    14    1
     4     7     8    1
     5     8     9    1
     6     9    10    1
     7    10     1    1
     8     1     2   ar
     9     2     3   ar
    10     3     4   ar
    11     4    16    1
    12    16    17    1
    13    17    18    1
    14    18    19    1
    15    19    20    1
    16    20    21    1
    17    21    22    1
    18    22    23    1
    19    23    24    1
    20    24    25    1
    21     4     5   ar
    22     5     6   ar
    23    10    11    1
    24    11    12    1
    25    12     7    1
    26     6     1   ar
    27    25    20    1
@<TRIPOS>MOLECULE
*****
 25 27 0 0 0
SMALL
GASTEIGER

@<TRIPOS>ATOM
      1 C          -7.0053  -19.1543   21.3844 C.ar    1  UNL1       -0.0223
      2 C          -8.0022  -19.0205   20.2716 C.ar    1  UNL1       -0.0012
      3 C          -9.4504  -19.3203   20.5219 C.ar    1  UNL1        0.0366
      4 C          -9.9018  -19.7540   21.8851 C.ar    1  UNL1        0.1385
      5 C          -8.9049  -19.8878   22.9978 C.ar    1  UNL1        0.0366
      6 C          -7.4567  -19.5879   22.7475 C.ar    1  UNL1       -0.0012
      7 C          -2.6606  -18.2548   20.6334 C.3     1  UNL1        0.0576
      8 C          -3.2197  -18.1477   22.0211 C.3     1  UNL1        0.0163
      9 C          -4.6679  -18.4475   22.2715 C.3     1  UNL1        0.0057
     10 C          -5.5571  -18.8544   21.1340 C.3     1  UNL1        0.0224
     11 C          -4.9980  -18.9615   19.7463 C.3     1  UNL1        0.0057
     12 C          -3.5497  -18.6617   19.4960 C.3     1  UNL1        0.0163
     13 C          -0.6987  -16.5542   20.5382 C.3     1  UNL1        0.0896
     14 N          -1.2123  -17.9549   20.3830 N.3     1  UNL1       -0.2716
     15 C          -0.2777  -19.0558   19.9775 C.3     1  UNL1        0.0896
     16 O         -11.3501  -20.0538   22.1354 O.3     1  UNL1       -0.4754
     17 C         -12.2532  -18.9878   22.6812 C.3     1  UNL1        0.2068
     18 C         -12.5209  -17.7487   21.8793 C.3     1  UNL1        0.0646
     19 C         -11.9855  -16.4259   22.3416 C.3     1  UNL1        0.0759
     20 N         -10.5393  -16.2919   22.7166 N.3     1  UNL1       -0.2726
     21 C          -9.5392  -15.8349   21.6965 C.3     1  UNL1        0.0721
     22 C          -8.0930  -15.7009   22.0715 C.3     1  UNL1        0.0174
     23 C          -7.6470  -16.0239   23.4667 C.3     1  UNL1        0.0029
     24 C          -8.6471  -16.4810   24.4870 C.3     1  UNL1        0.0174
     25 C         -10.0933  -16.6150   24.1119 C.3     1  UNL1        0.0721
@<TRIPOS>BOND
     1    13    14    1
     2    14    15    1
     3     7    14    1
     4     7     8    1
     5     8     9    1
     6     9    10    1
     7    10     1    1
     8     1     2   ar
     9     2     3   ar
    10     3     4   ar
    11     4    16    1
    12    16    17    1
    13    17    18    1
    14    18    19    1
    15    19    20    1
    16    20    21    1
    17    21    22    1
    18    22    23    1
    19    23    24    1
    20    24    25    1
    21     4     5   ar
    22     5     6   ar
    23    10    11    1
    24    11    12    1
    25    12     7    1
    26     6     1   ar
    27    25    20    1
@<TRIPOS>MOLECULE
*****
 25 27 0 0 0
SMALL
GASTEIGER

@<TRIPOS>ATOM
      1 C         -14.7000   -5.0523   18.7842 C.ar    1  UNL1       -0.0223
      2 C         -13.7533   -4.7851   19.9165 C.ar    1  UNL1       -0.0012
      3 C         -13.0289   -3.4740   19.9950 C.ar    1  UNL1        0.0366
      4 C         -13.2513   -2.4300   18.9412 C.ar    1  UNL1        0.1385
      5 C         -14.1980   -2.6972   17.8088 C.ar    1  UNL1        0.0366
      6 C         -14.9224   -4.0084   17.7303 C.ar    1  UNL1       -0.0012
      7 C         -16.8730   -8.9858   18.5486 C.3     1  UNL1        0.0576
      8 C         -15.5029   -8.8491   17.9537 C.3     1  UNL1        0.0163
      9 C         -14.7785   -7.5379   18.0322 C.3     1  UNL1        0.0057
     10 C         -15.4243   -6.3635   18.7057 C.3     1  UNL1        0.0224
     11 C         -16.7945   -6.5002   19.3006 C.3     1  UNL1        0.0057
     12 C         -17.5188   -7.8114   19.2220 C.3     1  UNL1        0.0163
     13 C         -16.9034  -11.5628   18.8777 C.3     1  UNL1        0.0896
     14 N         -17.5973  -10.2970   18.4701 N.3     1  UNL1       -0.2716
     15 C         -19.0156  -10.3424   17.9840 C.3     1  UNL1        0.0896
     16 O         -12.5270   -1.1188   19.0197 O.3     1  UNL1       -0.4754
     17 C         -11.9212   -0.5215   17.7843 C.3     1  UNL1        0.2068
     18 C         -10.5800   -0.9912   17.3042 C.3     1  UNL1        0.0646
     19 C         -10.4760   -2.2279   16.4615 C.3     1  UNL1        0.0759
     20 N         -10.5635   -3.5814   17.1020 N.3     1  UNL1       -0.2726
     21 C         -11.3945   -4.6582   16.4695 C.3     1  UNL1        0.0721
     22 C         -11.4820   -6.0117   17.1100 C.3     1  UNL1        0.0174
     23 C         -10.7386   -6.2885   18.3830 C.3     1  UNL1        0.0029
     24 C          -9.9076   -5.2117   19.0156 C.3     1  UNL1        0.0174
     25 C          -9.8201   -3.8582   18.3751 C.3     1  UNL1        0.0721
@<TRIPOS>BOND
     1    13    14    1
     2    14    15    1
     3     7    14    1
     4     7     8    1
     5     8     9    1
     6     9    10    1
     7    10     1    1
     8     1     2   ar
     9     2     3   ar
    10     3     4   ar
    11     4    16    1
    12    16    17    1
    13    17    18    1
    14    18    19    1
    15    19    20    1
    16    20    21    1
    17    21    22    1
    18    22    23    1
    19    23    24    1
    20    24    25    1
    21     4     5   ar
    22     5     6   ar
    23    10    11    1
    24    11    12    1
    25    12     7    1
    26     6     1   ar
    27    25    20    1
@<TRIPOS>MOLECULE
*****
 25 27 0 0 0
SMALL
GASTEIGER

@<TRIPOS>ATOM
      1 C         -13.2837   -1.6817   18.3535 C.ar    1  UNL1       -0.0223
      2 C         -13.6374   -2.6042   17.2249 C.ar    1  UNL1       -0.0012
      3 C         -12.6262   -3.5880   16.7154 C.ar    1  UNL1        0.0366
      4 C         -11.2613   -3.6492   17.3344 C.ar    1  UNL1        0.1385
      5 C         -10.9076   -2.7267   18.4630 C.ar    1  UNL1        0.0366
      6 C         -11.9188   -1.7429   18.9726 C.ar    1  UNL1       -0.0012
      7 C         -16.3174    1.2696   19.8822 C.3     1  UNL1        0.0576
      8 C         -16.4342   -0.1814   20.2439 C.3     1  UNL1        0.0163
      9 C         -15.4230   -1.1652   19.7343 C.3     1  UNL1        0.0057
     10 C         -14.2950   -0.6979   18.8631 C.3     1  UNL1        0.0224
     11 C         -14.1781    0.7531   18.5014 C.3     1  UNL1        0.0057
     12 C         -15.1893    1.7369   19.0109 C.3     1  UNL1        0.0163
     13 C         -17.1615    3.7165   20.1065 C.3     1  UNL1        0.0896
     14 N         -17.3286    2.2534   20.3917 N.3     1  UNL1       -0.2716
     15 C         -18.5070    1.7741   21.1865 C.3     1  UNL1        0.0896
     16 O         -10.2501   -4.6330   16.8249 O.3     1  UNL1       -0.4754
     17 C          -9.6096   -5.6070   17.7687 C.3     1  UNL1        0.2068
     18 C         -10.3971   -6.1691   18.9150 C.3     1  UNL1        0.0646
     19 C         -11.6602   -6.9347   18.6533 C.3     1  UNL1        0.0759
     20 N         -12.9913   -6.3070   18.9431 N.3     1  UNL1       -0.2726
     21 C         -14.1962   -6.6992   18.1403 C.3     1  UNL1        0.0721
     22 C         -15.5274   -6.0715   18.4301 C.3     1  UNL1        0.0174
     23 C         -15.6537   -5.0516   19.5227 C.3     1  UNL1        0.0029
     24 C         -14.4488   -4.6593   20.3255 C.3     1  UNL1        0.0174
     25 C         -13.1176   -5.2870   20.0357 C.3     1  UNL1        0.0721
@<TRIPOS>BOND
     1    13    14    1
     2    14    15    1
     3     7    14    1
     4     7     8    1
     5     8     9    1
     6     9    10    1
     7    10     1    1
     8     1     2   ar
     9     2     3   ar
    10     3     4   ar
    11     4    16    1
    12    16    17    1
    13    17    18    1
    14    18    19    1
    15    19    20    1
    16    20    21    1
    17    21    22    1
    18    22    23    1
    19    23    24    1
    20    24    25    1
    21     4     5   ar
    22     5     6   ar
    23    10    11    1
    24    11    12    1
    25    12     7    1
    26     6     1   ar
    27    25    20    1
@<TRIPOS>MOLECULE
*****
 25 27 0 0 0
SMALL
GASTEIGER

@<TRIPOS>ATOM
      1 C           2.6430   -0.9720   20.7629 C.ar    1  UNL1       -0.0223
      2 C           3.1847   -1.0796   22.1575 C.ar    1  UNL1       -0.0012
      3 C           4.1277   -2.1910   22.5121 C.ar    1  UNL1        0.0366
      4 C           4.5288   -3.1947   21.4721 C.ar    1  UNL1        0.1385
      5 C           3.9871   -3.0871   20.0776 C.ar    1  UNL1        0.0366
      6 C           3.0441   -1.9757   19.7230 C.ar    1  UNL1       -0.0012
      7 C          -0.1859    2.3621   19.6990 C.3     1  UNL1        0.0576
      8 C          -0.0889    1.8847   21.1177 C.3     1  UNL1        0.0163
      9 C           0.8540    0.7734   21.4723 C.3     1  UNL1        0.0057
     10 C           1.7000    0.1394   20.4083 C.3     1  UNL1        0.0224
     11 C           1.6031    0.6167   18.9896 C.3     1  UNL1        0.0057
     12 C           0.6601    1.7280   18.6350 C.3     1  UNL1        0.0163
     13 C          -2.4702    3.5600   20.0101 C.3     1  UNL1        0.0896
     14 N          -1.1288    3.4734   19.3444 N.3     1  UNL1       -0.2716
     15 C          -0.7304    4.4982   18.3241 C.3     1  UNL1        0.0896
     16 O           5.4718   -4.3061   21.8268 O.3     1  UNL1       -0.4754
     17 C           6.9509   -4.0576   21.8448 C.3     1  UNL1        0.2068
     18 C           7.6468   -3.5826   20.6038 C.3     1  UNL1        0.0646
     19 C           8.0002   -2.1328   20.4503 C.3     1  UNL1        0.0759
     20 N           7.0803   -1.2114   19.7054 N.3     1  UNL1       -0.2726
     21 C           6.4491   -0.0490   20.4126 C.3     1  UNL1        0.0721
     22 C           5.5292    0.8724   19.6677 C.3     1  UNL1        0.0174
     23 C           5.2405    0.6313   18.2156 C.3     1  UNL1        0.0029
     24 C           5.8718   -0.5312   17.5084 C.3     1  UNL1        0.0174
     25 C           6.7917   -1.4526   18.2533 C.3     1  UNL1        0.0721
@<TRIPOS>BOND
     1    13    14    1
     2    14    15    1
     3     7    14    1
     4     7     8    1
     5     8     9    1
     6     9    10    1
     7    10     1    1
     8     1     2   ar
     9     2     3   ar
    10     3     4   ar
    11     4    16    1
    12    16    17    1
    13    17    18    1
    14    18    19    1
    15    19    20    1
    16    20    21    1
    17    21    22    1
    18    22    23    1
    19    23    24    1
    20    24    25    1
    21     4     5   ar
    22     5     6   ar
    23    10    11    1
    24    11    12    1
    25    12     7    1
    26     6     1   ar
    27    25    20    1
@<TRIPOS>MOLECULE
*****
 25 27 0 0 0
SMALL
GASTEIGER

@<TRIPOS>ATOM
      1 C           2.8651   -1.1404   20.7781 C.ar    1  UNL1       -0.0223
      2 C           3.1969   -2.1199   19.6916 C.ar    1  UNL1       -0.0012
      3 C           4.1986   -3.2078   19.9428 C.ar    1  UNL1        0.0366
      4 C           4.8684   -3.3162   21.2805 C.ar    1  UNL1        0.1385
      5 C           4.5366   -2.3368   22.3670 C.ar    1  UNL1        0.0366
      6 C           3.5349   -1.2489   22.1158 C.ar    1  UNL1       -0.0012
      7 C          -0.1400    2.1233   20.0246 C.3     1  UNL1        0.0576
      8 C           0.5698    1.4767   18.8722 C.3     1  UNL1        0.0163
      9 C           1.5715    0.3888   19.1234 C.3     1  UNL1        0.0057
     10 C           1.8634   -0.0525   20.5269 C.3     1  UNL1        0.0224
     11 C           1.1536    0.5941   21.6793 C.3     1  UNL1        0.0057
     12 C           0.1519    1.6820   21.4281 C.3     1  UNL1        0.0163
     13 C          -2.4276    3.2395   20.5452 C.3     1  UNL1        0.0896
     14 N          -1.1417    3.2112   19.7734 N.3     1  UNL1       -0.2716
     15 C          -0.8575    4.2707   18.7504 C.3     1  UNL1        0.0896
     16 O           5.8701   -4.4041   21.5317 O.3     1  UNL1       -0.4754
     17 C           7.2642   -4.2792   20.9923 C.3     1  UNL1        0.2068
     18 C           7.8790   -2.9232   20.8096 C.3     1  UNL1        0.0646
     19 C           7.9127   -2.2921   19.4492 C.3     1  UNL1        0.0759
     20 N           6.9665   -1.1767   19.1163 N.3     1  UNL1       -0.2726
     21 C           6.3665   -1.0865   17.7446 C.3     1  UNL1        0.0721
     22 C           5.4203    0.0288   17.4117 C.3     1  UNL1        0.0174
     23 C           5.0742    1.0540   18.4505 C.3     1  UNL1        0.0029
     24 C           5.6743    0.9638   19.8224 C.3     1  UNL1        0.0174
     25 C           6.6204   -0.1515   20.1553 C.3     1  UNL1        0.0721
@<TRIPOS>BOND
     1    13    14    1
     2    14    15    1
     3     7    14    1
     4     7     8    1
     5     8     9    1
     6     9    10    1
     7    10     1    1
     8     1     2   ar
     9     2     3   ar
    10     3     4   ar
    11     4    16    1
    12    16    17    1
    13    17    18    1
    14    18    19    1
    15    19    20    1
    16    20    21    1
    17    21    22    1
    18    22    23    1
    19    23    24    1
    20    24    25    1
    21     4     5   ar
    22     5     6   ar
    23    10    11    1
    24    11    12    1
    25    12     7    1
    26     6     1   ar
    27    25    20    1
@<TRIPOS>MOLECULE
*****
 25 27 0 0 0
SMALL
GASTEIGER

@<TRIPOS>ATOM
      1 C           2.8562   -1.1222   21.4763 C.ar    1  UNL1       -0.0223
      2 C           2.0525   -1.2583   20.2172 C.ar    1  UNL1       -0.0012
      3 C           0.8862   -0.3480   19.9699 C.ar    1  UNL1        0.0366
      4 C           0.5236    0.6983   20.9817 C.ar    1  UNL1        0.1385
      5 C           1.3273    0.8343   22.2408 C.ar    1  UNL1        0.0366
      6 C           2.4937   -0.0760   22.4881 C.ar    1  UNL1       -0.0012
      7 C           6.3552   -3.8530   22.2182 C.3     1  UNL1        0.0576
      8 C           5.9743   -3.4865   20.8145 C.3     1  UNL1        0.0163
      9 C           4.8080   -2.5762   20.5672 C.3     1  UNL1        0.0057
     10 C           4.0225   -2.0325   21.7236 C.3     1  UNL1        0.0224
     11 C           4.4034   -2.3990   23.1273 C.3     1  UNL1        0.0057
     12 C           5.5697   -3.3092   23.3747 C.3     1  UNL1        0.0163
     13 C           8.4957   -5.0508   21.3618 C.3     1  UNL1        0.0896
     14 N           7.5215   -4.7632   22.4655 N.3     1  UNL1       -0.2716
     15 C           7.7136   -5.3859   23.8165 C.3     1  UNL1        0.0896
     16 O          -0.6427    1.6085   20.7344 O.3     1  UNL1       -0.4754
     17 C          -0.4287    2.9406   20.0788 C.3     1  UNL1        0.2068
     18 C           0.6774    3.1163   19.0810 C.3     1  UNL1        0.0646
     19 C           2.0252    3.5961   19.5321 C.3     1  UNL1        0.0759
     20 N           3.1945    2.6565   19.5317 N.3     1  UNL1       -0.2726
     21 C           4.1493    2.6470   20.6884 C.3     1  UNL1        0.0721
     22 C           5.3186    1.7074   20.6881 C.3     1  UNL1        0.0174
     23 C           5.5330    0.7774   19.5309 C.3     1  UNL1        0.0029
     24 C           4.5782    0.7869   18.3741 C.3     1  UNL1        0.0174
     25 C           3.4089    1.7265   18.3744 C.3     1  UNL1        0.0721
@<TRIPOS>BOND
     1    13    14    1
     2    14    15    1
     3     7    14    1
     4     7     8    1
     5     8     9    1
     6     9    10    1
     7    10     1    1
     8     1     2   ar
     9     2     3   ar
    10     3     4   ar
    11     4    16    1
    12    16    17    1
    13    17    18    1
    14    18    19    1
    15    19    20    1
    16    20    21    1
    17    21    22    1
    18    22    23    1
    19    23    24    1
    20    24    25    1
    21     4     5   ar
    22     5     6   ar
    23    10    11    1
    24    11    12    1
    25    12     7    1
    26     6     1   ar
    27    25    20    1
