@<TRIPOS>MOLECULE
*****
 33 36 0 0 0
SMALL
GASTEIGER

@<TRIPOS>ATOM
      1 C          -8.1532  -15.1362   24.8209 C.3     1  UNL1        0.1007
      2 C          -8.6353  -16.0687   23.7495 C.3     1  UNL1        0.1556
      3 O          -8.7261  -15.5959   22.3288 O.3     1  UNL1       -0.3805
      4 H          -8.4382  -14.6711   22.2768 H       1  UNL1        0.2105
      5 C          -9.0267  -17.4740   24.0988 C.3     1  UNL1        0.1729
      6 O         -10.3927  -17.7572   24.6499 O.3     1  UNL1       -0.3492
      7 C         -11.5084  -18.1464   23.7258 C.3     1  UNL1        0.1371
      8 C         -12.0779  -16.0645   21.6423 C.3     1  UNL1        0.0308
      9 C         -11.5056  -17.3913   21.2399 C.ar    1  UNL1       -0.0236
     10 C         -11.2181  -17.6772   19.7957 C.ar    1  UNL1       -0.0045
     11 C         -10.6458  -19.0041   19.3933 C.ar    1  UNL1       -0.0003
     12 C         -10.3611  -20.0451   20.4351 C.ar    1  UNL1       -0.0003
     13 C         -10.6486  -19.7592   21.8793 C.ar    1  UNL1       -0.0023
     14 C         -11.2209  -18.4323   22.2817 C.ar    1  UNL1        0.0006
     15 C         -12.9115  -18.2497   24.2459 C.3     1  UNL1        0.0315
     16 C         -14.3912  -18.1539   24.0194 C.3     1  UNL1        0.0028
     17 C         -13.8621  -18.5244   25.3732 C.3     1  UNL1        0.0028
     18 N          -6.7866  -14.5253   24.7242 N.3     1  UNL1       -0.2972
     19 H          -6.6870  -13.8985   25.5228 H       1  UNL1        0.1233
     20 C          -5.5714  -15.4045   24.7097 C.3     1  UNL1        0.0461
     21 C          -5.2906  -14.9932   23.2948 C.3     1  UNL1        0.0161
     22 C          -5.8521  -15.8158   26.1246 C.3     1  UNL1        0.0161
     23 C          -4.3561  -16.2837   24.6952 C.3     1  UNL1        0.0408
     24 C          -4.1626  -17.2775   23.5883 C.ar    1  UNL1       -0.0209
     25 C          -2.8114  -17.4453   22.9589 C.ar    1  UNL1       -0.0042
     26 C          -2.6178  -18.4390   21.8521 C.ar    1  UNL1       -0.0003
     27 C          -3.7754  -19.2649   21.3746 C.ar    1  UNL1       -0.0000
     28 C          -3.5818  -20.2585   20.2678 C.ar    1  UNL1       -0.0000
     29 C          -4.7394  -21.0843   19.7904 C.ar    1  UNL1       -0.0000
     30 C          -6.0906  -20.9165   20.4198 C.ar    1  UNL1       -0.0000
     31 C          -6.2842  -19.9228   21.5266 C.ar    1  UNL1       -0.0000
     32 C          -5.1266  -19.0970   22.0040 C.ar    1  UNL1       -0.0003
     33 C          -5.3202  -18.1033   23.1109 C.ar    1  UNL1       -0.0042
@<TRIPOS>BOND
     1     8     9    1
     2     9    10   ar
     3    10    11   ar
     4    11    12   ar
     5    12    13   ar
     6    13    14   ar
     7    14     7    1
     8     7     6    1
     9     6     5    1
    10     5     2    1
    11     2     3    1
    12     2     1    1
    13     1    18    1
    14    18    20    1
    15    20    21    1
    16    20    22    1
    17    20    23    1
    18    23    24    1
    19    24    25   ar
    20    25    26   ar
    21    26    27   ar
    22    27    28   ar
    23    28    29   ar
    24    29    30   ar
    25    30    31   ar
    26    31    32   ar
    27    32    33   ar
    28     7    15    1
    29    15    16    1
    30    16    17    1
    31    14     9   ar
    32    33    24   ar
    33    17    15    1
    34    32    27   ar
    35     3     4    1
    36    18    19    1
@<TRIPOS>MOLECULE
*****
 33 36 0 0 0
SMALL
GASTEIGER

@<TRIPOS>ATOM
      1 C          -4.9080  -15.9195   25.5238 C.3     1  UNL1        0.1007
      2 C          -4.4083  -16.3777   24.1858 C.3     1  UNL1        0.1556
      3 O          -4.4063  -15.4316   23.0217 O.3     1  UNL1       -0.3805
      4 H          -4.7570  -14.5721   23.3030 H       1  UNL1        0.2105
      5 C          -3.9105  -17.7819   24.0118 C.3     1  UNL1        0.1729
      6 O          -2.9063  -18.0946   22.9424 O.3     1  UNL1       -0.3492
      7 C          -3.3603  -18.3250   21.5314 C.3     1  UNL1        0.1371
      8 C          -3.3776  -20.8348   19.8881 C.3     1  UNL1        0.0308
      9 C          -4.6612  -20.2940   20.4449 C.ar    1  UNL1       -0.0236
     10 C          -5.9534  -21.0082   20.1799 C.ar    1  UNL1       -0.0045
     11 C          -7.2370  -20.4674   20.7367 C.ar    1  UNL1       -0.0003
     12 C          -7.2283  -19.2125   21.5584 C.ar    1  UNL1       -0.0003
     13 C          -5.9361  -18.4984   21.8233 C.ar    1  UNL1       -0.0023
     14 C          -4.6525  -19.0391   21.2665 C.ar    1  UNL1        0.0006
     15 C          -2.5221  -17.8413   20.3854 C.3     1  UNL1        0.0315
     16 C          -2.3955  -17.4504   18.9428 C.3     1  UNL1        0.0028
     17 C          -1.1970  -17.3944   19.8430 C.3     1  UNL1        0.0028
     18 N          -5.9471  -14.8408   25.6071 N.3     1  UNL1       -0.2972
     19 H          -5.8027  -14.2301   24.8030 H       1  UNL1        0.1233
     20 C          -7.4030  -15.2014   25.6210 C.3     1  UNL1        0.0461
     21 C          -7.5284  -14.7503   24.1959 C.3     1  UNL1        0.0161
     22 C          -7.2777  -15.6525   27.0461 C.3     1  UNL1        0.0161
     23 C          -8.8590  -15.5620   25.6349 C.3     1  UNL1        0.0408
     24 C          -9.3559  -16.7074   24.8035 C.ar    1  UNL1       -0.0209
     25 C          -9.5406  -18.0603   25.4245 C.ar    1  UNL1       -0.0042
     26 C         -10.0375  -19.2056   24.5931 C.ar    1  UNL1       -0.0003
     27 C         -10.3498  -18.9981   23.1407 C.ar    1  UNL1       -0.0000
     28 C         -10.8467  -20.1435   22.3093 C.ar    1  UNL1       -0.0000
     29 C         -11.1589  -19.9360   20.8570 C.ar    1  UNL1       -0.0000
     30 C         -10.9743  -18.5831   20.2360 C.ar    1  UNL1       -0.0000
     31 C         -10.4774  -17.4378   21.0673 C.ar    1  UNL1       -0.0000
     32 C         -10.1651  -17.6453   22.5197 C.ar    1  UNL1       -0.0003
     33 C          -9.6682  -16.4999   23.3511 C.ar    1  UNL1       -0.0042
@<TRIPOS>BOND
     1     8     9    1
     2     9    10   ar
     3    10    11   ar
     4    11    12   ar
     5    12    13   ar
     6    13    14   ar
     7    14     7    1
     8     7     6    1
     9     6     5    1
    10     5     2    1
    11     2     3    1
    12     2     1    1
    13     1    18    1
    14    18    20    1
    15    20    21    1
    16    20    22    1
    17    20    23    1
    18    23    24    1
    19    24    25   ar
    20    25    26   ar
    21    26    27   ar
    22    27    28   ar
    23    28    29   ar
    24    29    30   ar
    25    30    31   ar
    26    31    32   ar
    27    32    33   ar
    28     7    15    1
    29    15    16    1
    30    16    17    1
    31    14     9   ar
    32    33    24   ar
    33    17    15    1
    34    32    27   ar
    35     3     4    1
    36    18    19    1
@<TRIPOS>MOLECULE
*****
 33 36 0 0 0
SMALL
GASTEIGER

@<TRIPOS>ATOM
      1 C           3.7229    0.4518   18.0601 C.3     1  UNL1        0.1007
      2 C           4.4389   -0.4352   17.0852 C.3     1  UNL1        0.1556
      3 O           3.6557   -1.2727   16.1181 O.3     1  UNL1       -0.3805
      4 H           2.7071   -1.1236   16.2556 H       1  UNL1        0.2105
      5 C           5.9380   -0.4847   17.0773 C.3     1  UNL1        0.1729
      6 O           6.6529   -1.6568   17.6816 O.3     1  UNL1       -0.3492
      7 C           6.2188   -2.1951   19.0127 C.3     1  UNL1        0.1371
      8 C           8.2374   -3.8469   20.4946 C.3     1  UNL1        0.0308
      9 C           7.8481   -2.4946   21.0140 C.ar    1  UNL1       -0.0236
     10 C           8.4682   -1.9682   22.2743 C.ar    1  UNL1       -0.0045
     11 C           8.0789   -0.6159   22.7936 C.ar    1  UNL1       -0.0003
     12 C           7.0695    0.2100   22.0526 C.ar    1  UNL1       -0.0003
     13 C           6.4495   -0.3164   20.7923 C.ar    1  UNL1       -0.0023
     14 C           6.8388   -1.6687   20.2730 C.ar    1  UNL1        0.0006
     15 C           5.1647   -3.2599   19.0834 C.3     1  UNL1        0.0315
     16 C           3.7335   -3.6594   19.2883 C.3     1  UNL1        0.0028
     17 C           4.7701   -4.7047   19.0009 C.3     1  UNL1        0.0028
     18 N           2.4369   -0.0036   18.6839 N.3     1  UNL1       -0.2972
     19 H           2.3297   -0.9907   18.4504 H       1  UNL1        0.1233
     20 C           2.2392    0.1147   20.1661 C.3     1  UNL1        0.0461
     21 C           1.1372   -0.9008   20.1002 C.3     1  UNL1        0.0161
     22 C           3.3412    1.1303   20.2321 C.3     1  UNL1        0.0161
     23 C           2.0415    0.2330   21.6483 C.3     1  UNL1        0.0408
     24 C           3.0332   -0.3850   22.5889 C.ar    1  UNL1       -0.0209
     25 C           3.4570    0.3540   23.8236 C.ar    1  UNL1       -0.0042
     26 C           4.4487   -0.2639   24.7642 C.ar    1  UNL1       -0.0003
     27 C           5.0166   -1.6209   24.4702 C.ar    1  UNL1       -0.0000
     28 C           6.0082   -2.2388   25.4108 C.ar    1  UNL1       -0.0000
     29 C           6.5760   -3.5956   25.1167 C.ar    1  UNL1       -0.0000
     30 C           6.1522   -4.3345   23.8821 C.ar    1  UNL1       -0.0000
     31 C           5.1606   -3.7166   22.9415 C.ar    1  UNL1       -0.0000
     32 C           4.5927   -2.3598   23.2355 C.ar    1  UNL1       -0.0003
     33 C           3.6010   -1.7418   22.2949 C.ar    1  UNL1       -0.0042
@<TRIPOS>BOND
     1     8     9    1
     2     9    10   ar
     3    10    11   ar
     4    11    12   ar
     5    12    13   ar
     6    13    14   ar
     7    14     7    1
     8     7     6    1
     9     6     5    1
    10     5     2    1
    11     2     3    1
    12     2     1    1
    13     1    18    1
    14    18    20    1
    15    20    21    1
    16    20    22    1
    17    20    23    1
    18    23    24    1
    19    24    25   ar
    20    25    26   ar
    21    26    27   ar
    22    27    28   ar
    23    28    29   ar
    24    29    30   ar
    25    30    31   ar
    26    31    32   ar
    27    32    33   ar
    28     7    15    1
    29    15    16    1
    30    16    17    1
    31    14     9   ar
    32    33    24   ar
    33    17    15    1
    34    32    27   ar
    35     3     4    1
    36    18    19    1
@<TRIPOS>MOLECULE
*****
 33 36 0 0 0
SMALL
GASTEIGER

@<TRIPOS>ATOM
      1 C           5.6239   -1.9861   17.9159 C.3     1  UNL1        0.1007
      2 C           5.0169   -0.8363   17.1679 C.3     1  UNL1        0.1556
      3 O           3.8441   -1.0667   16.2615 O.3     1  UNL1       -0.3805
      4 H           3.6059   -2.0069   16.2737 H       1  UNL1        0.2105
      5 C           5.5826    0.5439   17.3263 C.3     1  UNL1        0.1729
      6 O           5.0068    1.4776   18.3494 O.3     1  UNL1       -0.3492
      7 C           4.6065    0.9576   19.6983 C.3     1  UNL1        0.1371
      8 C           3.0640    3.2080   20.9457 C.3     1  UNL1        0.0308
      9 C           2.3841    1.9027   20.6560 C.ar    1  UNL1       -0.0236
     10 C           0.9329    1.7227   20.9901 C.ar    1  UNL1       -0.0045
     11 C           0.2529    0.4174   20.7004 C.ar    1  UNL1       -0.0003
     12 C           1.0243   -0.7079   20.0767 C.ar    1  UNL1       -0.0003
     13 C           2.4754   -0.5278   19.7427 C.ar    1  UNL1       -0.0023
     14 C           3.1554    0.7775   20.0324 C.ar    1  UNL1        0.0006
     15 C           5.6575    0.6177   20.7132 C.3     1  UNL1        0.0315
     16 C           6.2902    0.8448   22.0541 C.3     1  UNL1        0.0028
     17 C           6.8452   -0.1982   21.1299 C.3     1  UNL1        0.0028
     18 N           4.8234   -3.2320   18.1544 N.3     1  UNL1       -0.2972
     19 H           5.2353   -3.9624   17.5737 H       1  UNL1        0.1233
     20 C           4.7067   -3.7947   19.5400 C.3     1  UNL1        0.0461
     21 C           3.2930   -4.2066   19.2537 C.3     1  UNL1        0.0161
     22 C           6.1203   -3.3829   19.8263 C.3     1  UNL1        0.0161
     23 C           4.5900   -4.3575   20.9255 C.3     1  UNL1        0.0408
     24 C           4.6595   -3.4448   22.1140 C.ar    1  UNL1       -0.0209
     25 C           5.6784   -3.6879   23.1876 C.ar    1  UNL1       -0.0042
     26 C           5.7479   -2.7753   24.3761 C.ar    1  UNL1       -0.0003
     27 C           4.7985   -1.6196   24.4908 C.ar    1  UNL1       -0.0000
     28 C           4.8680   -0.7071   25.6793 C.ar    1  UNL1       -0.0000
     29 C           3.9186    0.4485   25.7940 C.ar    1  UNL1       -0.0000
     30 C           2.8997    0.6915   24.7203 C.ar    1  UNL1       -0.0000
     31 C           2.8302   -0.2210   23.5319 C.ar    1  UNL1       -0.0000
     32 C           3.7796   -1.3766   23.4172 C.ar    1  UNL1       -0.0003
     33 C           3.7101   -2.2892   22.2287 C.ar    1  UNL1       -0.0042
@<TRIPOS>BOND
     1     8     9    1
     2     9    10   ar
     3    10    11   ar
     4    11    12   ar
     5    12    13   ar
     6    13    14   ar
     7    14     7    1
     8     7     6    1
     9     6     5    1
    10     5     2    1
    11     2     3    1
    12     2     1    1
    13     1    18    1
    14    18    20    1
    15    20    21    1
    16    20    22    1
    17    20    23    1
    18    23    24    1
    19    24    25   ar
    20    25    26   ar
    21    26    27   ar
    22    27    28   ar
    23    28    29   ar
    24    29    30   ar
    25    30    31   ar
    26    31    32   ar
    27    32    33   ar
    28     7    15    1
    29    15    16    1
    30    16    17    1
    31    14     9   ar
    32    33    24   ar
    33    17    15    1
    34    32    27   ar
    35     3     4    1
    36    18    19    1
@<TRIPOS>MOLECULE
*****
 33 36 0 0 0
SMALL
GASTEIGER

@<TRIPOS>ATOM
      1 C           5.9406   -1.8988   17.8913 C.3     1  UNL1        0.1007
      2 C           5.2243   -0.8508   17.0921 C.3     1  UNL1        0.1556
      3 O           3.9638   -1.1993   16.3574 O.3     1  UNL1       -0.3805
      4 H           3.7528   -2.1348   16.5030 H       1  UNL1        0.2105
      5 C           5.7683    0.5455   17.0277 C.3     1  UNL1        0.1729
      6 O           4.9700    1.6878   17.5826 O.3     1  UNL1       -0.3492
      7 C           4.1188    1.4858   18.8011 C.3     1  UNL1        0.1371
      8 C           3.4651    3.7956   20.6004 C.3     1  UNL1        0.0308
      9 C           4.4058    2.7243   21.0668 C.ar    1  UNL1       -0.0236
     10 C           5.0196    2.8080   22.4329 C.ar    1  UNL1       -0.0045
     11 C           5.9603    1.7368   22.8993 C.ar    1  UNL1       -0.0003
     12 C           6.2872    0.5819   21.9996 C.ar    1  UNL1       -0.0003
     13 C           5.6733    0.4982   20.6336 C.ar    1  UNL1       -0.0023
     14 C           4.7326    1.5695   20.1672 C.ar    1  UNL1        0.0006
     15 C           2.6536    1.2002   18.6534 C.3     1  UNL1        0.0315
     16 C           1.2345    1.6834   18.6042 C.3     1  UNL1        0.0028
     17 C           1.5352    0.2223   18.4470 C.3     1  UNL1        0.0028
     18 N           5.2679   -3.2064   18.1874 N.3     1  UNL1       -0.2972
     19 H           5.8982   -3.9412   17.8660 H       1  UNL1        0.1233
     20 C           4.8843   -3.5505   19.5961 C.3     1  UNL1        0.0461
     21 C           6.2213   -3.0703   20.0775 C.3     1  UNL1        0.0161
     22 C           3.5473   -4.0307   19.1147 C.3     1  UNL1        0.0161
     23 C           4.5007   -3.8945   21.0048 C.3     1  UNL1        0.0408
     24 C           4.1205   -2.8070   21.9655 C.ar    1  UNL1       -0.0209
     25 C           4.6989   -2.7928   23.3494 C.ar    1  UNL1       -0.0042
     26 C           4.3187   -1.7054   24.3100 C.ar    1  UNL1       -0.0003
     27 C           3.3600   -0.6321   23.8868 C.ar    1  UNL1       -0.0000
     28 C           2.9798    0.4553   24.8475 C.ar    1  UNL1       -0.0000
     29 C           2.0212    1.5285   24.4242 C.ar    1  UNL1       -0.0000
     30 C           1.4427    1.5143   23.0403 C.ar    1  UNL1       -0.0000
     31 C           1.8229    0.4269   22.0797 C.ar    1  UNL1       -0.0000
     32 C           2.7816   -0.6463   22.5029 C.ar    1  UNL1       -0.0003
     33 C           3.1618   -1.7338   21.5422 C.ar    1  UNL1       -0.0042
@<TRIPOS>BOND
     1     8     9    1
     2     9    10   ar
     3    10    11   ar
     4    11    12   ar
     5    12    13   ar
     6    13    14   ar
     7    14     7    1
     8     7     6    1
     9     6     5    1
    10     5     2    1
    11     2     3    1
    12     2     1    1
    13     1    18    1
    14    18    20    1
    15    20    21    1
    16    20    22    1
    17    20    23    1
    18    23    24    1
    19    24    25   ar
    20    25    26   ar
    21    26    27   ar
    22    27    28   ar
    23    28    29   ar
    24    29    30   ar
    25    30    31   ar
    26    31    32   ar
    27    32    33   ar
    28     7    15    1
    29    15    16    1
    30    16    17    1
    31    14     9   ar
    32    33    24   ar
    33    17    15    1
    34    32    27   ar
    35     3     4    1
    36    18    19    1
@<TRIPOS>MOLECULE
*****
 33 36 0 0 0
SMALL
GASTEIGER

@<TRIPOS>ATOM
      1 C           3.1646    0.4752   17.9258 C.3     1  UNL1        0.1007
      2 C           4.0160   -0.6592   17.4377 C.3     1  UNL1        0.1556
      3 O           3.6923   -1.3347   16.1380 O.3     1  UNL1       -0.3805
      4 H           2.9092   -0.9194   15.7441 H       1  UNL1        0.2105
      5 C           5.1911   -1.1181   18.2492 C.3     1  UNL1        0.1729
      6 O           5.0396   -1.3510   19.7232 O.3     1  UNL1       -0.3492
      7 C           5.0918   -2.7463   20.2714 C.3     1  UNL1        0.1371
      8 C           8.0903   -2.8017   20.3478 C.3     1  UNL1        0.0308
      9 C           7.3034   -3.0462   21.6012 C.ar    1  UNL1       -0.0236
     10 C           8.0159   -3.3184   22.8929 C.ar    1  UNL1       -0.0045
     11 C           7.2291   -3.5629   24.1463 C.ar    1  UNL1       -0.0003
     12 C           5.7297   -3.5352   24.1081 C.ar    1  UNL1       -0.0003
     13 C           5.0174   -3.2630   22.8165 C.ar    1  UNL1       -0.0023
     14 C           5.8042   -3.0185   21.5630 C.ar    1  UNL1        0.0006
     15 C           4.4316   -3.8694   19.5279 C.3     1  UNL1        0.0315
     16 C           3.1865   -4.5624   19.0597 C.3     1  UNL1        0.0028
     17 C           4.5333   -5.1215   18.7082 C.3     1  UNL1        0.0028
     18 N           1.8668    0.1929   18.6229 N.3     1  UNL1       -0.2972
     19 H           1.6661   -0.7971   18.4820 H       1  UNL1        0.1233
     20 C           1.7324    0.4570   20.0934 C.3     1  UNL1        0.0461
     21 C           1.8504    1.9306   19.8395 C.3     1  UNL1        0.0161
     22 C           1.6144   -1.0167   20.3472 C.3     1  UNL1        0.0161
     23 C           1.5980    0.7210   21.5638 C.3     1  UNL1        0.0408
     24 C           2.7706    0.5071   22.4745 C.ar    1  UNL1       -0.0209
     25 C           2.5471    0.1328   23.9098 C.ar    1  UNL1       -0.0042
     26 C           3.7196   -0.0811   24.8204 C.ar    1  UNL1       -0.0003
     27 C           5.1158    0.0792   24.2958 C.ar    1  UNL1       -0.0000
     28 C           6.2883   -0.1348   25.2065 C.ar    1  UNL1       -0.0000
     29 C           7.6844    0.0255   24.6819 C.ar    1  UNL1       -0.0000
     30 C           7.9079    0.3998   23.2466 C.ar    1  UNL1       -0.0000
     31 C           6.7354    0.6137   22.3359 C.ar    1  UNL1       -0.0000
     32 C           5.3393    0.4534   22.8606 C.ar    1  UNL1       -0.0003
     33 C           4.1667    0.6674   21.9499 C.ar    1  UNL1       -0.0042
@<TRIPOS>BOND
     1     8     9    1
     2     9    10   ar
     3    10    11   ar
     4    11    12   ar
     5    12    13   ar
     6    13    14   ar
     7    14     7    1
     8     7     6    1
     9     6     5    1
    10     5     2    1
    11     2     3    1
    12     2     1    1
    13     1    18    1
    14    18    20    1
    15    20    21    1
    16    20    22    1
    17    20    23    1
    18    23    24    1
    19    24    25   ar
    20    25    26   ar
    21    26    27   ar
    22    27    28   ar
    23    28    29   ar
    24    29    30   ar
    25    30    31   ar
    26    31    32   ar
    27    32    33   ar
    28     7    15    1
    29    15    16    1
    30    16    17    1
    31    14     9   ar
    32    33    24   ar
    33    17    15    1
    34    32    27   ar
    35     3     4    1
    36    18    19    1
@<TRIPOS>MOLECULE
*****
 33 36 0 0 0
SMALL
GASTEIGER

@<TRIPOS>ATOM
      1 C           6.6429   -3.5156   21.9826 C.3     1  UNL1        0.1007
      2 C           5.5647   -3.4398   23.0226 C.3     1  UNL1        0.1556
      3 O           5.8507   -3.8664   24.4319 O.3     1  UNL1       -0.3805
      4 H           6.7721   -4.1620   24.4996 H       1  UNL1        0.2105
      5 C           4.2005   -2.9373   22.6533 C.3     1  UNL1        0.1729
      6 O           3.6847   -1.6609   23.2489 O.3     1  UNL1       -0.3492
      7 C           4.5941   -0.4757   23.3851 C.3     1  UNL1        0.1371
      8 C           2.7706    1.8941   23.1424 C.3     1  UNL1        0.0308
      9 C           3.8441    1.6659   22.1199 C.ar    1  UNL1       -0.0236
     10 C           4.0058    2.6226   20.9759 C.ar    1  UNL1       -0.0045
     11 C           5.0792    2.3944   19.9533 C.ar    1  UNL1       -0.0003
     12 C           5.9910    1.2095   20.0747 C.ar    1  UNL1       -0.0003
     13 C           5.8293    0.2528   21.2186 C.ar    1  UNL1       -0.0023
     14 C           4.7558    0.4810   22.2412 C.ar    1  UNL1        0.0006
     15 C           5.3417   -0.2472   24.6653 C.3     1  UNL1        0.0315
     16 C           6.4977   -0.5606   25.5682 C.3     1  UNL1        0.0028
     17 C           5.4804    0.4619   25.9798 C.3     1  UNL1        0.0028
     18 N           6.4424   -4.3525   20.7539 N.3     1  UNL1       -0.2972
     19 H           5.7915   -5.0960   21.0071 H       1  UNL1        0.1233
     20 C           5.9160   -3.7255   19.4971 C.3     1  UNL1        0.0461
     21 C           6.9704   -2.6623   19.5859 C.3     1  UNL1        0.0161
     22 C           4.8616   -4.7887   19.4083 C.3     1  UNL1        0.0161
     23 C           5.3896   -3.0985   18.2402 C.3     1  UNL1        0.0408
     24 C           4.4250   -1.9525   18.3208 C.ar    1  UNL1       -0.0209
     25 C           4.4910   -0.8444   17.3120 C.ar    1  UNL1       -0.0042
     26 C           3.5265    0.3016   17.3926 C.ar    1  UNL1       -0.0003
     27 C           2.4961    0.3395   18.4820 C.ar    1  UNL1       -0.0000
     28 C           1.5316    1.4854   18.5625 C.ar    1  UNL1       -0.0000
     29 C           0.5012    1.5233   19.6519 C.ar    1  UNL1       -0.0000
     30 C           0.4352    0.4151   20.6607 C.ar    1  UNL1       -0.0000
     31 C           1.3997   -0.7308   20.5802 C.ar    1  UNL1       -0.0000
     32 C           2.4301   -0.7687   19.4908 C.ar    1  UNL1       -0.0003
     33 C           3.3946   -1.9147   19.4102 C.ar    1  UNL1       -0.0042
@<TRIPOS>BOND
     1     8     9    1
     2     9    10   ar
     3    10    11   ar
     4    11    12   ar
     5    12    13   ar
     6    13    14   ar
     7    14     7    1
     8     7     6    1
     9     6     5    1
    10     5     2    1
    11     2     3    1
    12     2     1    1
    13     1    18    1
    14    18    20    1
    15    20    21    1
    16    20    22    1
    17    20    23    1
    18    23    24    1
    19    24    25   ar
    20    25    26   ar
    21    26    27   ar
    22    27    28   ar
    23    28    29   ar
    24    29    30   ar
    25    30    31   ar
    26    31    32   ar
    27    32    33   ar
    28     7    15    1
    29    15    16    1
    30    16    17    1
    31    14     9   ar
    32    33    24   ar
    33    17    15    1
    34    32    27   ar
    35     3     4    1
    36    18    19    1
@<TRIPOS>MOLECULE
*****
 33 36 0 0 0
SMALL
GASTEIGER

@<TRIPOS>ATOM
      1 C          -5.5058  -15.3600   25.1378 C.3     1  UNL1        0.1007
      2 C          -5.5328  -15.3765   23.6382 C.3     1  UNL1        0.1556
      3 O          -4.6785  -14.4182   22.8621 O.3     1  UNL1       -0.3805
      4 H          -4.1748  -13.8628   23.4774 H       1  UNL1        0.2105
      5 C          -6.4139  -16.3511   22.9146 C.3     1  UNL1        0.1729
      6 O          -6.2354  -17.8251   23.1280 O.3     1  UNL1       -0.3492
      7 C          -5.5215  -18.6509   22.0991 C.3     1  UNL1        0.1371
      8 C          -4.4230  -18.7309   19.3087 C.3     1  UNL1        0.0308
      9 C          -3.5040  -18.4923   20.4700 C.ar    1  UNL1       -0.0236
     10 C          -2.0356  -18.2938   20.2359 C.ar    1  UNL1       -0.0045
     11 C          -1.1166  -18.0553   21.3972 C.ar    1  UNL1       -0.0003
     12 C          -1.6660  -18.0153   22.7925 C.ar    1  UNL1       -0.0003
     13 C          -3.1342  -18.2138   23.0264 C.ar    1  UNL1       -0.0023
     14 C          -4.0532  -18.4523   21.8652 C.ar    1  UNL1        0.0006
     15 C          -6.2758  -19.6752   21.3043 C.3     1  UNL1        0.0315
     16 C          -6.3827  -21.0608   20.7399 C.3     1  UNL1        0.0028
     17 C          -7.4755  -20.0636   20.4920 C.3     1  UNL1        0.0028
     18 N          -6.7155  -14.9143   25.9048 N.3     1  UNL1       -0.2972
     19 H          -7.0918  -14.1023   25.4154 H       1  UNL1        0.1233
     20 C          -7.8597  -15.8607   26.1169 C.3     1  UNL1        0.0461
     21 C          -8.7170  -15.0272   25.2111 C.3     1  UNL1        0.0161
     22 C          -7.0025  -16.6942   27.0227 C.3     1  UNL1        0.0161
     23 C          -9.0040  -16.8071   26.3289 C.3     1  UNL1        0.0408
     24 C          -9.4937  -17.6579   25.1947 C.ar    1  UNL1       -0.0209
     25 C          -9.8578  -19.0928   25.4363 C.ar    1  UNL1       -0.0042
     26 C         -10.3475  -19.9436   24.3021 C.ar    1  UNL1       -0.0003
     27 C         -10.4731  -19.3594   22.9262 C.ar    1  UNL1       -0.0000
     28 C         -10.9627  -20.2102   21.7921 C.ar    1  UNL1       -0.0000
     29 C         -11.0883  -19.6260   20.4162 C.ar    1  UNL1       -0.0000
     30 C         -10.7242  -18.1910   20.1746 C.ar    1  UNL1       -0.0000
     31 C         -10.2345  -17.3403   21.3088 C.ar    1  UNL1       -0.0000
     32 C         -10.1090  -17.9245   22.6846 C.ar    1  UNL1       -0.0003
     33 C          -9.6193  -17.0737   23.8188 C.ar    1  UNL1       -0.0042
@<TRIPOS>BOND
     1     8     9    1
     2     9    10   ar
     3    10    11   ar
     4    11    12   ar
     5    12    13   ar
     6    13    14   ar
     7    14     7    1
     8     7     6    1
     9     6     5    1
    10     5     2    1
    11     2     3    1
    12     2     1    1
    13     1    18    1
    14    18    20    1
    15    20    21    1
    16    20    22    1
    17    20    23    1
    18    23    24    1
    19    24    25   ar
    20    25    26   ar
    21    26    27   ar
    22    27    28   ar
    23    28    29   ar
    24    29    30   ar
    25    30    31   ar
    26    31    32   ar
    27    32    33   ar
    28     7    15    1
    29    15    16    1
    30    16    17    1
    31    14     9   ar
    32    33    24   ar
    33    17    15    1
    34    32    27   ar
    35     3     4    1
    36    18    19    1
@<TRIPOS>MOLECULE
*****
 33 36 0 0 0
SMALL
GASTEIGER

@<TRIPOS>ATOM
      1 C           4.5256    0.6803   17.8885 C.3     1  UNL1        0.1007
      2 C           4.7316   -0.6987   17.3354 C.3     1  UNL1        0.1556
      3 O           3.7843   -1.2439   16.3080 O.3     1  UNL1       -0.3805
      4 H           3.1017   -0.5826   16.1143 H       1  UNL1        0.2105
      5 C           5.8848   -1.5325   17.8097 C.3     1  UNL1        0.1729
      6 O           6.0773   -1.7812   19.2763 O.3     1  UNL1       -0.3492
      7 C           5.0383   -2.5355   20.0519 C.3     1  UNL1        0.1371
      8 C           2.4085   -1.1425   20.4308 C.3     1  UNL1        0.0308
      9 C           3.3150   -1.3660   21.6049 C.ar    1  UNL1       -0.0236
     10 C           2.9065   -0.8929   22.9685 C.ar    1  UNL1       -0.0045
     11 C           3.8129   -1.1163   24.1426 C.ar    1  UNL1       -0.0003
     12 C           5.1278   -1.8129   23.9531 C.ar    1  UNL1       -0.0003
     13 C           5.5363   -2.2860   22.5895 C.ar    1  UNL1       -0.0023
     14 C           4.6298   -2.0625   21.4154 C.ar    1  UNL1        0.0006
     15 C           4.4077   -3.7629   19.4638 C.3     1  UNL1        0.0315
     16 C           4.5421   -5.1136   18.8253 C.3     1  UNL1        0.0028
     17 C           3.1811   -4.5382   19.0836 C.3     1  UNL1        0.0028
     18 N           5.0636    1.0330   19.2436 N.3     1  UNL1       -0.2972
     19 H           6.0178    1.3653   19.1042 H       1  UNL1        0.1233
     20 C           4.3654    2.0611   20.0835 C.3     1  UNL1        0.0461
     21 C           5.2875    1.7539   21.2261 C.3     1  UNL1        0.0161
     22 C           3.4433    2.3682   18.9409 C.3     1  UNL1        0.0161
     23 C           3.6671    3.0892   20.9234 C.3     1  UNL1        0.0408
     24 C           2.7219    2.6577   22.0052 C.ar    1  UNL1       -0.0209
     25 C           1.3430    2.1847   21.6516 C.ar    1  UNL1       -0.0042
     26 C           0.3978    1.7532   22.7334 C.ar    1  UNL1       -0.0003
     27 C           0.8313    1.7947   24.1688 C.ar    1  UNL1       -0.0000
     28 C          -0.1139    1.3631   25.2506 C.ar    1  UNL1       -0.0000
     29 C           0.3197    1.4046   26.6859 C.ar    1  UNL1       -0.0000
     30 C           1.6985    1.8777   27.0395 C.ar    1  UNL1       -0.0000
     31 C           2.6438    2.3092   25.9577 C.ar    1  UNL1       -0.0000
     32 C           2.2102    2.2677   24.5224 C.ar    1  UNL1       -0.0003
     33 C           3.1555    2.6992   23.4405 C.ar    1  UNL1       -0.0042
@<TRIPOS>BOND
     1     8     9    1
     2     9    10   ar
     3    10    11   ar
     4    11    12   ar
     5    12    13   ar
     6    13    14   ar
     7    14     7    1
     8     7     6    1
     9     6     5    1
    10     5     2    1
    11     2     3    1
    12     2     1    1
    13     1    18    1
    14    18    20    1
    15    20    21    1
    16    20    22    1
    17    20    23    1
    18    23    24    1
    19    24    25   ar
    20    25    26   ar
    21    26    27   ar
    22    27    28   ar
    23    28    29   ar
    24    29    30   ar
    25    30    31   ar
    26    31    32   ar
    27    32    33   ar
    28     7    15    1
    29    15    16    1
    30    16    17    1
    31    14     9   ar
    32    33    24   ar
    33    17    15    1
    34    32    27   ar
    35     3     4    1
    36    18    19    1
