@<TRIPOS>MOLECULE
*****
 28 31 0 0 0
SMALL
GASTEIGER

@<TRIPOS>ATOM
      1 N          -7.5119  -17.7199   22.2438 N.3     1  UNL1       -0.2626
      2 C          -8.8595  -18.3004   22.5554 C.3     1  UNL1        0.0981
      3 C          -8.9739  -19.4772   23.4785 C.3     1  UNL1        0.0224
      4 C         -10.3214  -20.0578   23.7901 C.3     1  UNL1        0.0065
      5 C         -11.5545  -19.4615   23.1787 C.3     1  UNL1        0.0277
      6 C         -11.4402  -18.2847   22.2556 C.ar    1  UNL1       -0.0073
      7 C         -12.6733  -17.6885   21.6441 C.ar    1  UNL1       -0.0015
      8 C         -12.5588  -16.5117   20.7211 C.ar    1  UNL1        0.0203
      9 C         -11.2113  -15.9312   20.4095 C.ar    1  UNL1        0.0985
     10 N          -9.9782  -16.5274   21.0209 N.ar    1  UNL1       -0.2471
     11 C         -10.0926  -17.7042   21.9439 C.ar    1  UNL1        0.0695
     12 C          -7.1731  -16.3286   22.6907 C.3     1  UNL1        0.1390
     13 C          -6.6895  -15.4281   27.0731 C.ar    1  UNL1        0.0413
     14 C          -5.4819  -15.5156   26.1876 C.ar    1  UNL1        0.1019
     15 N          -5.6431  -15.8157   24.7268 N.ar    1  UNL1       -0.2277
     16 C          -7.0119  -16.0284   24.1515 C.ar    1  UNL1        0.1553
     17 N          -8.2196  -15.9409   25.0369 N.ar    1  UNL1       -0.2277
     18 C          -8.0584  -15.6408   26.4977 C.ar    1  UNL1        0.1019
     19 C          -6.5032  -18.5306   21.4854 C.3     1  UNL1        0.0742
     20 C          -5.3611  -19.1770   22.2120 C.3     1  UNL1        0.0347
     21 C          -4.1332  -18.3800   22.5393 C.3     1  UNL1        0.0736
     22 N          -3.1494  -18.0406   21.4591 N.3     1  UNL1       -0.2703
     23 C          -2.1474  -16.9452   21.6744 C.3     1  UNL1        0.0894
     24 C          -1.1636  -16.6058   20.5941 C.3     1  UNL1        0.0862
     25 N          -1.1816  -17.3618   19.2987 N.3     1  UNL1       -0.2951
     26 C          -2.1836  -18.4572   19.0835 C.3     1  UNL1        0.0862
     27 C          -3.1674  -18.7965   20.1637 C.3     1  UNL1        0.0894
     28 H          -0.2585  -17.7817   19.1899 H       1  UNL1        0.1233
@<TRIPOS>BOND
     1    13    14   ar
     2    14    15   ar
     3    15    16   ar
     4    16    12    1
     5    12     1    1
     6     1    19    1
     7    19    20    1
     8    20    21    1
     9    21    22    1
    10    22    23    1
    11    23    24    1
    12    24    25    1
    13    25    26    1
    14    26    27    1
    15     2     1    1
    16     2     3    1
    17     3     4    1
    18     4     5    1
    19     5     6    1
    20     6     7   ar
    21     7     8   ar
    22     8     9   ar
    23     9    10   ar
    24    10    11   ar
    25    16    17   ar
    26    17    18   ar
    27    18    13   ar
    28    27    22    1
    29    11     2    1
    30    11     6   ar
    31    25    28    1
@<TRIPOS>MOLECULE
*****
 28 31 0 0 0
SMALL
GASTEIGER

@<TRIPOS>ATOM
      1 N          -7.5969  -19.5948   21.4904 N.3     1  UNL1       -0.2626
      2 C          -8.3863  -19.2236   22.7107 C.3     1  UNL1        0.0981
      3 C          -9.2564  -20.2453   23.3806 C.3     1  UNL1        0.0224
      4 C         -10.0458  -19.8741   24.6008 C.3     1  UNL1        0.0065
      5 C          -9.9652  -18.4811   25.1511 C.3     1  UNL1        0.0277
      6 C          -9.0951  -17.4592   24.4812 C.ar    1  UNL1       -0.0073
      7 C          -9.0144  -16.0661   25.0315 C.ar    1  UNL1       -0.0015
      8 C          -8.1443  -15.0444   24.3616 C.ar    1  UNL1        0.0203
      9 C          -7.3549  -15.4156   23.1414 C.ar    1  UNL1        0.0985
     10 N          -7.4355  -16.8086   22.5911 N.ar    1  UNL1       -0.2471
     11 C          -8.3056  -17.8304   23.2610 C.ar    1  UNL1        0.0695
     12 C          -6.2808  -20.2999   21.6345 C.3     1  UNL1        0.1390
     13 C          -2.4373  -17.9917   21.2469 C.ar    1  UNL1        0.0413
     14 C          -3.1032  -18.1206   22.5848 C.ar    1  UNL1        0.1019
     15 N          -4.3843  -18.8900   22.7140 N.ar    1  UNL1       -0.2277
     16 C          -4.9996  -19.5305   21.5053 C.ar    1  UNL1        0.1553
     17 N          -4.3338  -19.4017   20.1673 N.ar    1  UNL1       -0.2277
     18 C          -3.0527  -18.6323   20.0381 C.ar    1  UNL1        0.1019
     19 C          -8.1235  -19.2610   20.1262 C.3     1  UNL1        0.0742
     20 C          -9.4505  -19.8008   19.6817 C.3     1  UNL1        0.0347
     21 C         -10.6038  -18.8675   19.4602 C.3     1  UNL1        0.0736
     22 N         -11.1428  -18.0572   20.6017 N.3     1  UNL1       -0.2703
     23 C         -10.7444  -16.6192   20.7546 C.3     1  UNL1        0.0894
     24 C         -11.2833  -15.8089   21.8961 C.3     1  UNL1        0.0862
     25 N         -12.2207  -16.4367   22.8847 N.3     1  UNL1       -0.2951
     26 C         -12.6191  -17.8747   22.7318 C.3     1  UNL1        0.0862
     27 C         -12.0801  -18.6850   21.5903 C.3     1  UNL1        0.0894
     28 H         -13.0810  -15.8890   22.8636 H       1  UNL1        0.1233
@<TRIPOS>BOND
     1    13    14   ar
     2    14    15   ar
     3    15    16   ar
     4    16    12    1
     5    12     1    1
     6     1    19    1
     7    19    20    1
     8    20    21    1
     9    21    22    1
    10    22    23    1
    11    23    24    1
    12    24    25    1
    13    25    26    1
    14    26    27    1
    15     2     1    1
    16     2     3    1
    17     3     4    1
    18     4     5    1
    19     5     6    1
    20     6     7   ar
    21     7     8   ar
    22     8     9   ar
    23     9    10   ar
    24    10    11   ar
    25    16    17   ar
    26    17    18   ar
    27    18    13   ar
    28    27    22    1
    29    11     2    1
    30    11     6   ar
    31    25    28    1
@<TRIPOS>MOLECULE
*****
 28 31 0 0 0
SMALL
GASTEIGER

@<TRIPOS>ATOM
      1 N          -8.3903  -19.3438   21.4392 N.3     1  UNL1       -0.2626
      2 C          -8.8111  -18.9902   22.8348 C.3     1  UNL1        0.0981
      3 C          -9.5406  -19.9956   23.6756 C.3     1  UNL1        0.0224
      4 C          -9.9614  -19.6420   25.0713 C.3     1  UNL1        0.0065
      5 C          -9.6528  -18.2831   25.6261 C.3     1  UNL1        0.0277
      6 C          -8.9233  -17.2776   24.7853 C.ar    1  UNL1       -0.0073
      7 C          -8.6146  -15.9186   25.3402 C.ar    1  UNL1       -0.0015
      8 C          -7.8852  -14.9132   24.4994 C.ar    1  UNL1        0.0203
      9 C          -7.4643  -15.2668   23.1037 C.ar    1  UNL1        0.0985
     10 N          -7.7729  -16.6258   22.5489 N.ar    1  UNL1       -0.2471
     11 C          -8.5024  -17.6312   23.3897 C.ar    1  UNL1        0.0695
     12 C          -9.3493  -19.1677   20.2993 C.3     1  UNL1        0.1390
     13 C         -12.8644  -16.3904   20.7250 C.ar    1  UNL1        0.0413
     14 C         -11.7063  -16.0062   19.8525 C.ar    1  UNL1        0.1019
     15 N         -10.5346  -16.9319   19.7106 N.ar    1  UNL1       -0.2277
     16 C         -10.5210  -18.2419   20.4412 C.ar    1  UNL1        0.1553
     17 N         -11.6791  -18.6262   21.3137 N.ar    1  UNL1       -0.2277
     18 C         -12.8508  -17.7004   21.4556 C.ar    1  UNL1        0.1019
     19 C          -7.0104  -19.8735   21.1833 C.3     1  UNL1        0.0742
     20 C          -6.1442  -19.2360   20.1377 C.3     1  UNL1        0.0347
     21 C          -4.6799  -19.5563   20.0796 C.3     1  UNL1        0.0736
     22 N          -3.6814  -18.6129   20.6819 N.3     1  UNL1       -0.2703
     23 C          -2.6727  -17.9293   19.8070 C.3     1  UNL1        0.0894
     24 C          -1.6741  -16.9860   20.4093 C.3     1  UNL1        0.0862
     25 N          -1.6842  -16.7261   21.8867 N.3     1  UNL1       -0.2951
     26 C          -2.6928  -17.4097   22.7616 C.3     1  UNL1        0.0862
     27 C          -3.6914  -18.3531   22.1592 C.3     1  UNL1        0.0894
     28 H          -1.8209  -15.7227   22.0083 H       1  UNL1        0.1233
@<TRIPOS>BOND
     1    13    14   ar
     2    14    15   ar
     3    15    16   ar
     4    16    12    1
     5    12     1    1
     6     1    19    1
     7    19    20    1
     8    20    21    1
     9    21    22    1
    10    22    23    1
    11    23    24    1
    12    24    25    1
    13    25    26    1
    14    26    27    1
    15     2     1    1
    16     2     3    1
    17     3     4    1
    18     4     5    1
    19     5     6    1
    20     6     7   ar
    21     7     8   ar
    22     8     9   ar
    23     9    10   ar
    24    10    11   ar
    25    16    17   ar
    26    17    18   ar
    27    18    13   ar
    28    27    22    1
    29    11     2    1
    30    11     6   ar
    31    25    28    1
@<TRIPOS>MOLECULE
*****
 28 31 0 0 0
SMALL
GASTEIGER

@<TRIPOS>ATOM
      1 N          -8.3559  -16.6817   22.3544 N.3     1  UNL1       -0.2626
      2 C          -9.7916  -16.6543   21.9209 C.3     1  UNL1        0.0981
      3 C         -10.1773  -15.9624   20.6472 C.3     1  UNL1        0.0224
      4 C         -11.6131  -15.9350   20.2137 C.3     1  UNL1        0.0065
      5 C         -12.6631  -16.5994   21.0539 C.3     1  UNL1        0.0277
      6 C         -12.2773  -17.2913   22.3278 C.ar    1  UNL1       -0.0073
      7 C         -13.3273  -17.9557   23.1680 C.ar    1  UNL1       -0.0015
      8 C         -12.9416  -18.6476   24.4417 C.ar    1  UNL1        0.0203
      9 C         -11.5058  -18.6750   24.8752 C.ar    1  UNL1        0.0985
     10 N         -10.4558  -18.0106   24.0350 N.ar    1  UNL1       -0.2471
     11 C         -10.8416  -17.3188   22.7613 C.ar    1  UNL1        0.0695
     12 C          -7.7170  -15.4444   22.9120 C.3     1  UNL1        0.1390
     13 C          -6.6248  -15.2457   27.2729 C.ar    1  UNL1        0.0413
     14 C          -5.5622  -15.0902   26.2258 C.ar    1  UNL1        0.1019
     15 N          -5.9262  -15.1565   24.7722 N.ar    1  UNL1       -0.2277
     16 C          -7.3529  -15.3781   24.3656 C.ar    1  UNL1        0.1553
     17 N          -8.4157  -15.5336   25.4128 N.ar    1  UNL1       -0.2277
     18 C          -8.0517  -15.4674   26.8664 C.ar    1  UNL1        0.1019
     19 C          -7.5590  -17.9465   22.2304 C.3     1  UNL1        0.0742
     20 C          -7.2889  -18.5330   20.8765 C.3     1  UNL1        0.0347
     21 C          -6.1775  -19.5243   20.6968 C.3     1  UNL1        0.0736
     22 N          -4.7494  -19.0736   20.7822 N.3     1  UNL1       -0.2703
     23 C          -3.9643  -18.8275   19.5278 C.3     1  UNL1        0.0894
     24 C          -2.5362  -18.3767   19.6132 C.3     1  UNL1        0.0862
     25 N          -1.8931  -18.1721   20.9528 N.3     1  UNL1       -0.2951
     26 C          -2.6781  -18.4182   22.2071 C.3     1  UNL1        0.0862
     27 C          -4.1062  -18.8690   22.1217 C.3     1  UNL1        0.0894
     28 H          -1.5831  -17.2009   20.9853 H       1  UNL1        0.1233
@<TRIPOS>BOND
     1    13    14   ar
     2    14    15   ar
     3    15    16   ar
     4    16    12    1
     5    12     1    1
     6     1    19    1
     7    19    20    1
     8    20    21    1
     9    21    22    1
    10    22    23    1
    11    23    24    1
    12    24    25    1
    13    25    26    1
    14    26    27    1
    15     2     1    1
    16     2     3    1
    17     3     4    1
    18     4     5    1
    19     5     6    1
    20     6     7   ar
    21     7     8   ar
    22     8     9   ar
    23     9    10   ar
    24    10    11   ar
    25    16    17   ar
    26    17    18   ar
    27    18    13   ar
    28    27    22    1
    29    11     2    1
    30    11     6   ar
    31    25    28    1
@<TRIPOS>MOLECULE
*****
 28 31 0 0 0
SMALL
GASTEIGER

@<TRIPOS>ATOM
      1 N          -6.5641  -18.7438   21.4856 N.3     1  UNL1       -0.2626
      2 C          -7.4327  -17.9322   22.4005 C.3     1  UNL1        0.0981
      3 C          -7.2933  -16.4392   22.4381 C.3     1  UNL1        0.0224
      4 C          -8.1619  -15.6277   23.3530 C.3     1  UNL1        0.0065
      5 C          -9.1698  -16.3091   24.2303 C.3     1  UNL1        0.0277
      6 C          -9.3092  -17.8022   24.1927 C.ar    1  UNL1       -0.0073
      7 C         -10.3171  -18.4837   25.0700 C.ar    1  UNL1       -0.0015
      8 C         -10.4565  -19.9767   25.0323 C.ar    1  UNL1        0.0203
      9 C          -9.5880  -20.7882   24.1175 C.ar    1  UNL1        0.0985
     10 N          -8.5800  -20.1068   23.2402 N.ar    1  UNL1       -0.2471
     11 C          -8.4407  -18.6138   23.2778 C.ar    1  UNL1        0.0695
     12 C          -5.2387  -19.2547   21.9676 C.3     1  UNL1        0.1390
     13 C          -1.4275  -17.4033   20.4519 C.ar    1  UNL1        0.0413
     14 C          -2.1414  -16.7973   21.6237 C.ar    1  UNL1        0.1019
     15 N          -3.4118  -17.4145   22.1289 N.ar    1  UNL1       -0.2277
     16 C          -3.9683  -18.6376   21.4623 C.ar    1  UNL1        0.1553
     17 N          -3.2544  -19.2436   20.2905 N.ar    1  UNL1       -0.2277
     18 C          -1.9840  -18.6264   19.7852 C.ar    1  UNL1        0.1019
     19 C          -7.0210  -19.0444   20.0889 C.3     1  UNL1        0.0742
     20 C          -8.3939  -19.6001   19.8521 C.3     1  UNL1        0.0347
     21 C          -9.4937  -18.7015   19.3692 C.3     1  UNL1        0.0736
     22 N         -10.4701  -18.1188   20.3475 N.3     1  UNL1       -0.2703
     23 C         -11.3878  -19.0205   21.1187 C.3     1  UNL1        0.0894
     24 C         -12.3642  -18.4377   22.0970 C.3     1  UNL1        0.0862
     25 N         -12.4228  -16.9532   22.3041 N.3     1  UNL1       -0.2951
     26 C         -11.5052  -16.0515   21.5329 C.3     1  UNL1        0.0862
     27 C         -10.5288  -16.6343   20.5546 C.3     1  UNL1        0.0894
     28 H         -12.2370  -16.7863   23.2930 H       1  UNL1        0.1233
@<TRIPOS>BOND
     1    13    14   ar
     2    14    15   ar
     3    15    16   ar
     4    16    12    1
     5    12     1    1
     6     1    19    1
     7    19    20    1
     8    20    21    1
     9    21    22    1
    10    22    23    1
    11    23    24    1
    12    24    25    1
    13    25    26    1
    14    26    27    1
    15     2     1    1
    16     2     3    1
    17     3     4    1
    18     4     5    1
    19     5     6    1
    20     6     7   ar
    21     7     8   ar
    22     8     9   ar
    23     9    10   ar
    24    10    11   ar
    25    16    17   ar
    26    17    18   ar
    27    18    13   ar
    28    27    22    1
    29    11     2    1
    30    11     6   ar
    31    25    28    1
@<TRIPOS>MOLECULE
*****
 28 31 0 0 0
SMALL
GASTEIGER

@<TRIPOS>ATOM
      1 N          -5.9423  -19.0130   21.8949 N.3     1  UNL1       -0.2626
      2 C          -7.2173  -19.2163   21.1314 C.3     1  UNL1        0.0981
      3 C          -7.1757  -19.4461   19.6497 C.3     1  UNL1        0.0224
      4 C          -8.4507  -19.6495   18.8862 C.3     1  UNL1        0.0065
      5 C          -9.7673  -19.6231   19.6044 C.3     1  UNL1        0.0277
      6 C          -9.8090  -19.3933   21.0862 C.ar    1  UNL1       -0.0073
      7 C         -11.1256  -19.3669   21.8043 C.ar    1  UNL1       -0.0015
      8 C         -11.1671  -19.1371   23.2860 C.ar    1  UNL1        0.0203
      9 C          -9.8921  -18.9337   24.0495 C.ar    1  UNL1        0.0985
     10 N          -8.5755  -18.9601   23.3314 N.ar    1  UNL1       -0.2471
     11 C          -8.5339  -19.1899   21.8497 C.ar    1  UNL1        0.0695
     12 C          -4.7155  -19.7943   21.5279 C.3     1  UNL1        0.1390
     13 C          -1.3789  -17.8073   19.2544 C.ar    1  UNL1        0.0413
     14 C          -2.8052  -17.5611   18.8608 C.ar    1  UNL1        0.1019
     15 N          -3.9174  -18.2234   19.6186 N.ar    1  UNL1       -0.2277
     16 C          -3.6033  -19.1320   20.7701 C.ar    1  UNL1        0.1553
     17 N          -2.1769  -19.3783   21.1637 N.ar    1  UNL1       -0.2277
     18 C          -1.0647  -18.7159   20.4059 C.ar    1  UNL1        0.1019
     19 C          -5.8939  -18.0283   23.0254 C.3     1  UNL1        0.0742
     20 C          -4.7484  -17.0659   23.1334 C.3     1  UNL1        0.0347
     21 C          -4.9455  -15.7372   23.8010 C.3     1  UNL1        0.0736
     22 N          -6.0350  -15.5627   24.8172 N.3     1  UNL1       -0.2703
     23 C          -5.7001  -15.5391   26.2792 C.3     1  UNL1        0.0894
     24 C          -6.7896  -15.3646   27.2954 C.3     1  UNL1        0.0862
     25 N          -8.2139  -15.2137   26.8495 N.3     1  UNL1       -0.2951
     26 C          -8.5487  -15.2373   25.3876 C.3     1  UNL1        0.0862
     27 C          -7.4592  -15.4118   24.3714 C.3     1  UNL1        0.0894
     28 H          -8.5428  -14.3191   27.2125 H       1  UNL1        0.1233
@<TRIPOS>BOND
     1    13    14   ar
     2    14    15   ar
     3    15    16   ar
     4    16    12    1
     5    12     1    1
     6     1    19    1
     7    19    20    1
     8    20    21    1
     9    21    22    1
    10    22    23    1
    11    23    24    1
    12    24    25    1
    13    25    26    1
    14    26    27    1
    15     2     1    1
    16     2     3    1
    17     3     4    1
    18     4     5    1
    19     5     6    1
    20     6     7   ar
    21     7     8   ar
    22     8     9   ar
    23     9    10   ar
    24    10    11   ar
    25    16    17   ar
    26    17    18   ar
    27    18    13   ar
    28    27    22    1
    29    11     2    1
    30    11     6   ar
    31    25    28    1
@<TRIPOS>MOLECULE
*****
 28 31 0 0 0
SMALL
GASTEIGER

@<TRIPOS>ATOM
      1 N          -7.5652  -19.2251   22.2659 N.3     1  UNL1       -0.2626
      2 C          -6.3642  -19.7011   21.5037 C.3     1  UNL1        0.0981
      3 C          -6.5305  -20.6704   20.3712 C.3     1  UNL1        0.0224
      4 C          -5.3295  -21.1464   19.6089 C.3     1  UNL1        0.0065
      5 C          -3.9622  -20.6530   19.9791 C.3     1  UNL1        0.0277
      6 C          -3.7959  -19.6836   21.1117 C.ar    1  UNL1       -0.0073
      7 C          -2.4286  -19.1902   21.4819 C.ar    1  UNL1       -0.0015
      8 C          -2.2623  -18.2209   22.6144 C.ar    1  UNL1        0.0203
      9 C          -3.4633  -17.7449   23.3767 C.ar    1  UNL1        0.0985
     10 N          -4.8306  -18.2383   23.0065 N.ar    1  UNL1       -0.2471
     11 C          -4.9969  -19.2076   21.8740 C.ar    1  UNL1        0.0695
     12 C          -7.9959  -17.7915   22.1680 C.3     1  UNL1        0.1390
     13 C          -7.5514  -15.0611   25.7173 C.ar    1  UNL1        0.0413
     14 C          -6.5676  -14.9886   24.5873 C.ar    1  UNL1        0.1019
     15 N          -6.7157  -15.8987   23.4042 N.ar    1  UNL1       -0.2277
     16 C          -7.8477  -16.8814   23.3511 C.ar    1  UNL1        0.1553
     17 N          -8.8316  -16.9540   24.4811 N.ar    1  UNL1       -0.2277
     18 C          -8.6834  -16.0439   25.6642 C.ar    1  UNL1        0.1019
     19 C          -8.3354  -20.1825   23.1261 C.3     1  UNL1        0.0742
     20 C          -9.8180  -20.0208   23.2864 C.3     1  UNL1        0.0347
     21 C         -10.7107  -20.0539   22.0814 C.3     1  UNL1        0.0736
     22 N         -11.2408  -18.7744   21.5053 N.3     1  UNL1       -0.2703
     23 C         -10.9097  -18.3941   20.0925 C.3     1  UNL1        0.0894
     24 C         -11.4397  -17.1146   19.5164 C.3     1  UNL1        0.0862
     25 N         -12.3009  -16.2154   20.3530 N.3     1  UNL1       -0.2951
     26 C         -12.6319  -16.5957   21.7657 C.3     1  UNL1        0.0862
     27 C         -12.1019  -17.8752   22.3418 C.3     1  UNL1        0.0894
     28 H         -13.1879  -16.1147   19.8596 H       1  UNL1        0.1233
@<TRIPOS>BOND
     1    13    14   ar
     2    14    15   ar
     3    15    16   ar
     4    16    12    1
     5    12     1    1
     6     1    19    1
     7    19    20    1
     8    20    21    1
     9    21    22    1
    10    22    23    1
    11    23    24    1
    12    24    25    1
    13    25    26    1
    14    26    27    1
    15     2     1    1
    16     2     3    1
    17     3     4    1
    18     4     5    1
    19     5     6    1
    20     6     7   ar
    21     7     8   ar
    22     8     9   ar
    23     9    10   ar
    24    10    11   ar
    25    16    17   ar
    26    17    18   ar
    27    18    13   ar
    28    27    22    1
    29    11     2    1
    30    11     6   ar
    31    25    28    1
@<TRIPOS>MOLECULE
*****
 28 31 0 0 0
SMALL
GASTEIGER

@<TRIPOS>ATOM
      1 N          -7.7493  -18.8024   21.7199 N.3     1  UNL1       -0.2626
      2 C          -6.4713  -19.4279   21.2451 C.3     1  UNL1        0.0981
      3 C          -6.5102  -20.5587   20.2604 C.3     1  UNL1        0.0224
      4 C          -5.2322  -21.1842   19.7856 C.3     1  UNL1        0.0065
      5 C          -3.9152  -20.6787   20.2954 C.3     1  UNL1        0.0277
      6 C          -3.8762  -19.5478   21.2801 C.ar    1  UNL1       -0.0073
      7 C          -2.5591  -19.0424   21.7899 C.ar    1  UNL1       -0.0015
      8 C          -2.5202  -17.9115   22.7745 C.ar    1  UNL1        0.0203
      9 C          -3.7982  -17.2860   23.2494 C.ar    1  UNL1        0.0985
     10 N          -5.1152  -17.7915   22.7395 N.ar    1  UNL1       -0.2471
     11 C          -5.1542  -18.9224   21.7549 C.ar    1  UNL1        0.0695
     12 C          -9.0671  -19.3219   21.2264 C.3     1  UNL1        0.1390
     13 C         -12.9023  -17.7769   23.0024 C.ar    1  UNL1        0.0413
     14 C         -11.9518  -18.5727   23.8469 C.ar    1  UNL1        0.1019
     15 N         -10.6734  -19.0877   23.2549 N.ar    1  UNL1       -0.2277
     16 C         -10.3455  -18.8069   21.8184 C.ar    1  UNL1        0.1553
     17 N         -11.2961  -18.0111   20.9738 N.ar    1  UNL1       -0.2277
     18 C         -12.5744  -17.4961   21.5658 C.ar    1  UNL1        0.1019
     19 C          -7.7095  -17.6575   22.6881 C.3     1  UNL1        0.0742
     20 C          -8.1898  -16.3008   22.2655 C.3     1  UNL1        0.0347
     21 C          -7.7877  -15.0856   23.0477 C.3     1  UNL1        0.0736
     22 N          -7.4584  -15.2075   24.5060 N.3     1  UNL1       -0.2703
     23 C          -6.0310  -15.1336   24.9613 C.3     1  UNL1        0.0894
     24 C          -5.7017  -15.2555   26.4196 C.3     1  UNL1        0.0862
     25 N          -6.7997  -15.4512   27.4226 N.3     1  UNL1       -0.2951
     26 C          -8.2270  -15.5250   26.9673 C.3     1  UNL1        0.0862
     27 C          -8.5563  -15.4032   25.5090 C.3     1  UNL1        0.0894
     28 H          -6.7402  -14.6735   28.0799 H       1  UNL1        0.1233
@<TRIPOS>BOND
     1    13    14   ar
     2    14    15   ar
     3    15    16   ar
     4    16    12    1
     5    12     1    1
     6     1    19    1
     7    19    20    1
     8    20    21    1
     9    21    22    1
    10    22    23    1
    11    23    24    1
    12    24    25    1
    13    25    26    1
    14    26    27    1
    15     2     1    1
    16     2     3    1
    17     3     4    1
    18     4     5    1
    19     5     6    1
    20     6     7   ar
    21     7     8   ar
    22     8     9   ar
    23     9    10   ar
    24    10    11   ar
    25    16    17   ar
    26    17    18   ar
    27    18    13   ar
    28    27    22    1
    29    11     2    1
    30    11     6   ar
    31    25    28    1
@<TRIPOS>MOLECULE
*****
 28 31 0 0 0
SMALL
GASTEIGER

@<TRIPOS>ATOM
      1 N          -7.5491  -16.9497   22.4723 N.3     1  UNL1       -0.2626
      2 C          -6.8114  -16.3069   23.6093 C.3     1  UNL1        0.0981
      3 C          -5.5156  -15.5953   23.3556 C.3     1  UNL1        0.0224
      4 C          -4.7779  -14.9525   24.4926 C.3     1  UNL1        0.0065
      5 C          -5.3360  -15.0214   25.8832 C.3     1  UNL1        0.0277
      6 C          -6.6319  -15.7331   26.1368 C.ar    1  UNL1       -0.0073
      7 C          -7.1900  -15.8020   27.5274 C.ar    1  UNL1       -0.0015
      8 C          -8.4858  -16.5137   27.7810 C.ar    1  UNL1        0.0203
      9 C          -9.2235  -17.1564   26.6440 C.ar    1  UNL1        0.0985
     10 N          -8.6654  -17.0875   25.2535 N.ar    1  UNL1       -0.2471
     11 C          -7.3696  -16.3759   24.9999 C.ar    1  UNL1        0.0695
     12 C          -8.5735  -16.1673   21.7052 C.3     1  UNL1        0.1390
     13 C         -12.8192  -17.6404   21.4729 C.ar    1  UNL1        0.0413
     14 C         -12.4010  -16.7306   22.5898 C.ar    1  UNL1        0.1019
     15 N         -10.9858  -16.2396   22.6672 N.ar    1  UNL1       -0.2277
     16 C          -9.9887  -16.6583   21.6277 C.ar    1  UNL1        0.1553
     17 N         -10.4069  -17.5681   20.5108 N.ar    1  UNL1       -0.2277
     18 C         -11.8221  -18.0592   20.4334 C.ar    1  UNL1        0.1019
     19 C          -7.2624  -18.3748   22.1025 C.3     1  UNL1        0.0742
     20 C          -6.6986  -18.7001   20.7510 C.3     1  UNL1        0.0347
     21 C          -5.4122  -19.4634   20.6389 C.3     1  UNL1        0.0736
     22 N          -4.1050  -18.7705   20.8863 N.3     1  UNL1       -0.2703
     23 C          -3.6359  -18.5335   22.2913 C.3     1  UNL1        0.0894
     24 C          -2.3287  -17.8406   22.5387 C.3     1  UNL1        0.0862
     25 N          -1.4907  -17.3847   21.3811 N.3     1  UNL1       -0.2951
     26 C          -1.9598  -17.6218   19.9763 C.3     1  UNL1        0.0862
     27 C          -3.2669  -18.3147   19.7289 C.3     1  UNL1        0.0894
     28 H          -0.5865  -17.8480   21.4718 H       1  UNL1        0.1233
@<TRIPOS>BOND
     1    13    14   ar
     2    14    15   ar
     3    15    16   ar
     4    16    12    1
     5    12     1    1
     6     1    19    1
     7    19    20    1
     8    20    21    1
     9    21    22    1
    10    22    23    1
    11    23    24    1
    12    24    25    1
    13    25    26    1
    14    26    27    1
    15     2     1    1
    16     2     3    1
    17     3     4    1
    18     4     5    1
    19     5     6    1
    20     6     7   ar
    21     7     8   ar
    22     8     9   ar
    23     9    10   ar
    24    10    11   ar
    25    16    17   ar
    26    17    18   ar
    27    18    13   ar
    28    27    22    1
    29    11     2    1
    30    11     6   ar
    31    25    28    1
