@<TRIPOS>MOLECULE
*****
 41 46 0 0 0
SMALL
GASTEIGER

@<TRIPOS>ATOM
      1 C           4.5598   -0.3886   29.2456 C.ar    1  UNL1        0.1515
      2 N           4.7130   -0.9753   27.8737 N.ar    1  UNL1       -0.2248
      3 C           5.5296   -2.2278   27.9937 C.ar    1  UNL1        0.1173
      4 C           5.9985   -3.2219   26.9730 C.ar    1  UNL1        0.0238
      5 C           6.8189   -4.4034   27.3984 C.ar    1  UNL1        0.0223
      6 C           7.1704   -4.5907   28.8446 C.ar    1  UNL1        0.1006
      7 N           6.7015   -3.5966   29.8653 N.ar    1  UNL1       -0.2248
      8 C           5.8811   -2.4152   29.4398 C.ar    1  UNL1        0.1666
      9 N           5.2817   -1.2785   30.2135 N.ar    1  UNL1       -0.2754
     10 N           1.6216   -0.5015   29.8410 N.pl3   1  UNL1       -0.3425
     11 C           2.3463    0.8111   29.8870 C.ar    1  UNL1        0.1282
     12 N           1.6019    2.0671   30.2306 N.ar    1  UNL1       -0.2295
     13 C           2.3265    3.3797   30.2766 C.ar    1  UNL1        0.1003
     14 C           3.7956    3.4361   29.9790 C.ar    1  UNL1        0.0209
     15 C           4.5400    2.1800   29.6353 C.ar    1  UNL1        0.0074
     16 C           3.8154    0.8675   29.5893 C.ar    1  UNL1        0.0657
     17 H           0.6574   -0.5385   30.0363 H       1  UNL1        0.1437
     18 H           2.1102   -1.3259   29.6154 H       1  UNL1        0.1437
     19 C           7.2879   -5.3975   26.3777 C.ar    1  UNL1        0.0207
     20 C           7.7653   -6.7512   26.8133 C.ar    1  UNL1        0.0032
     21 C           8.2343   -7.7453   25.7927 C.ar    1  UNL1        0.0207
     22 C           8.2257   -7.3859   24.3364 C.ar    1  UNL1        0.0989
     23 N           7.7483   -6.0322   23.9008 N.ar    1  UNL1       -0.2423
     24 C           7.2793   -5.0381   24.9215 C.ar    1  UNL1        0.0989
     25 C           5.3860   -1.0685   31.6951 C.ar    1  UNL1        0.0667
     26 C           4.4472   -1.7824   32.6217 C.ar    1  UNL1        0.0173
     27 C           4.5515   -1.5725   34.1033 C.ar    1  UNL1       -0.0011
     28 C           5.5947   -0.6485   34.6583 C.ar    1  UNL1       -0.0025
     29 C           6.5336    0.0655   33.7316 C.ar    1  UNL1       -0.0011
     30 C           6.4293   -0.1445   32.2501 C.ar    1  UNL1        0.0173
     31 C           5.6990   -0.4386   36.1398 C.3     1  UNL1        0.1166
     32 N           4.4735   -0.1066   36.9384 N.am    1  UNL1       -0.2969
     33 C           3.9750    1.3071   36.9945 C.2     1  UNL1        0.2461
     34 O           4.7022    2.3887   36.2520 O.2     1  UNL1       -0.2701
     35 H           3.9962   -0.8165   37.4257 H       1  UNL1        0.1501
     36 C           2.7495    1.6390   37.7931 C.ar    1  UNL1        0.0534
     37 C           2.0993    2.9828   37.6455 C.ar    1  UNL1        0.0045
     38 C           0.8737    3.3148   38.4441 C.ar    1  UNL1        0.0001
     39 C           0.2983    2.3030   39.3902 C.ar    1  UNL1        0.0000
     40 C           0.9484    0.9593   39.5378 C.ar    1  UNL1        0.0001
     41 C           2.1740    0.6273   38.7393 C.ar    1  UNL1        0.0045
@<TRIPOS>BOND
     1    10    11    1
     2    11    12   ar
     3    12    13   ar
     4    13    14   ar
     5    14    15   ar
     6    15    16   ar
     7    16     1    1
     8     1     2   ar
     9     2     3   ar
    10     3     4   ar
    11     4     5   ar
    12     5    19    1
    13    19    20   ar
    14    20    21   ar
    15    21    22   ar
    16    22    23   ar
    17    23    24   ar
    18     5     6   ar
    19     6     7   ar
    20     7     8   ar
    21     8     9   ar
    22     9    25    1
    23    25    26   ar
    24    26    27   ar
    25    27    28   ar
    26    28    31    1
    27    31    32    1
    28    32    33   am
    29    33    34    2
    30    33    36    1
    31    36    37   ar
    32    37    38   ar
    33    38    39   ar
    34    39    40   ar
    35    40    41   ar
    36    28    29   ar
    37    29    30   ar
    38    16    11   ar
    39     9     1   ar
    40    30    25   ar
    41     8     3   ar
    42    41    36   ar
    43    24    19   ar
    44    10    17    1
    45    10    18    1
    46    32    35    1
@<TRIPOS>MOLECULE
*****
 41 46 0 0 0
SMALL
GASTEIGER

@<TRIPOS>ATOM
      1 C           2.8555    0.2481   26.9852 C.ar    1  UNL1        0.1515
      2 N           3.7149   -0.8196   26.3758 N.ar    1  UNL1       -0.2248
      3 C           3.4492   -0.8423   24.8997 C.ar    1  UNL1        0.1173
      4 C           4.0072   -1.6864   23.7923 C.ar    1  UNL1        0.0238
      5 C           3.5414   -1.4767   22.3820 C.ar    1  UNL1        0.0223
      6 C           2.5178   -0.4230   22.0790 C.ar    1  UNL1        0.1006
      7 N           1.9598    0.4210   23.1864 N.ar    1  UNL1       -0.2248
      8 C           2.4255    0.2113   24.5967 C.ar    1  UNL1        0.1666
      9 N           2.0586    0.8852   25.8856 N.ar    1  UNL1       -0.2754
     10 N           0.5103   -0.5895   28.6581 N.pl3   1  UNL1       -0.3425
     11 C           1.6297    0.1956   29.2753 C.ar    1  UNL1        0.1282
     12 N           1.5764    0.5618   30.7289 N.ar    1  UNL1       -0.2295
     13 C           2.6957    1.3468   31.3460 C.ar    1  UNL1        0.1003
     14 C           3.8683    1.7655   30.5096 C.ar    1  UNL1        0.0209
     15 C           3.9215    1.3993   29.0559 C.ar    1  UNL1        0.0074
     16 C           2.8022    0.6143   28.4388 C.ar    1  UNL1        0.0657
     17 H          -0.2593   -0.8643   29.2071 H       1  UNL1        0.1437
     18 H           0.5452   -0.8298   27.7041 H       1  UNL1        0.1437
     19 C           4.0994   -2.3207   21.2745 C.ar    1  UNL1        0.0207
     20 C           3.6858   -2.0651   19.8555 C.ar    1  UNL1        0.0032
     21 C           4.2437   -2.9090   18.7481 C.ar    1  UNL1        0.0207
     22 C           5.2152   -4.0087   19.0597 C.ar    1  UNL1        0.0989
     23 N           5.6288   -4.2643   20.4787 N.ar    1  UNL1       -0.2423
     24 C           5.0709   -3.4202   21.5861 C.ar    1  UNL1        0.0989
     25 C           1.0685    2.0005   26.0466 C.ar    1  UNL1        0.0667
     26 C          -0.3991    1.7275   25.9008 C.ar    1  UNL1        0.0173
     27 C          -1.3891    2.8428   26.0619 C.ar    1  UNL1       -0.0011
     28 C          -0.9115    4.2312   26.3687 C.ar    1  UNL1       -0.0025
     29 C           0.5562    4.5043   26.5146 C.ar    1  UNL1       -0.0011
     30 C           1.5462    3.3890   26.3535 C.ar    1  UNL1        0.0173
     31 C          -1.9015    5.3465   26.5298 C.3     1  UNL1        0.1166
     32 N          -3.1143    5.4059   25.6490 N.am    1  UNL1       -0.2969
     33 C          -4.4352    4.9089   26.1572 C.2     1  UNL1        0.2461
     34 O          -4.5434    4.3526   27.5460 O.2     1  UNL1       -0.2701
     35 H          -3.0433    5.7710   24.7375 H       1  UNL1        0.1501
     36 C          -5.6480    4.9682   25.2764 C.ar    1  UNL1        0.0534
     37 C          -5.6975    4.1612   24.0129 C.ar    1  UNL1        0.0045
     38 C          -6.9102    4.2206   23.1321 C.ar    1  UNL1        0.0001
     39 C          -8.0734    5.0869   23.5149 C.ar    1  UNL1        0.0000
     40 C          -8.0239    5.8939   24.7784 C.ar    1  UNL1        0.0001
     41 C          -6.8112    5.8345   25.6591 C.ar    1  UNL1        0.0045
@<TRIPOS>BOND
     1    10    11    1
     2    11    12   ar
     3    12    13   ar
     4    13    14   ar
     5    14    15   ar
     6    15    16   ar
     7    16     1    1
     8     1     2   ar
     9     2     3   ar
    10     3     4   ar
    11     4     5   ar
    12     5    19    1
    13    19    20   ar
    14    20    21   ar
    15    21    22   ar
    16    22    23   ar
    17    23    24   ar
    18     5     6   ar
    19     6     7   ar
    20     7     8   ar
    21     8     9   ar
    22     9    25    1
    23    25    26   ar
    24    26    27   ar
    25    27    28   ar
    26    28    31    1
    27    31    32    1
    28    32    33   am
    29    33    34    2
    30    33    36    1
    31    36    37   ar
    32    37    38   ar
    33    38    39   ar
    34    39    40   ar
    35    40    41   ar
    36    28    29   ar
    37    29    30   ar
    38    16    11   ar
    39     9     1   ar
    40    30    25   ar
    41     8     3   ar
    42    41    36   ar
    43    24    19   ar
    44    10    17    1
    45    10    18    1
    46    32    35    1
@<TRIPOS>MOLECULE
*****
 41 46 0 0 0
SMALL
GASTEIGER

@<TRIPOS>ATOM
      1 C          -0.7608    2.2600   27.0707 C.ar    1  UNL1        0.1515
      2 N          -2.1316    2.6577   27.5319 N.ar    1  UNL1       -0.2248
      3 C          -2.8663    3.2347   26.3583 C.ar    1  UNL1        0.1173
      4 C          -4.2517    3.7922   26.2168 C.ar    1  UNL1        0.0238
      5 C          -4.7202    4.3085   24.8887 C.ar    1  UNL1        0.0223
      6 C          -3.8035    4.2673   23.7022 C.ar    1  UNL1        0.1006
      7 N          -2.4182    3.7098   23.8437 N.ar    1  UNL1       -0.2248
      8 C          -1.9496    3.1935   25.1717 C.ar    1  UNL1        0.1666
      9 N          -0.6484    2.5911   25.6121 N.ar    1  UNL1       -0.2754
     10 N          -1.3240   -0.2669   28.5865 N.pl3   1  UNL1       -0.3425
     11 C           0.0280    0.3766   28.6771 C.ar    1  UNL1        0.1282
     12 N           1.0984   -0.2434   29.5256 N.ar    1  UNL1       -0.2295
     13 C           2.4503    0.4000   29.6162 C.ar    1  UNL1        0.1003
     14 C           2.7318    1.6634   28.8583 C.ar    1  UNL1        0.0209
     15 C           1.6615    2.2834   28.0098 C.ar    1  UNL1        0.0074
     16 C           0.3095    1.6400   27.9192 C.ar    1  UNL1        0.0657
     17 H          -1.5088   -1.0962   29.0839 H       1  UNL1        0.1437
     18 H          -2.0265    0.1400   28.0296 H       1  UNL1        0.1437
     19 C          -6.1056    4.8660   24.7472 C.ar    1  UNL1        0.0207
     20 C          -6.6584    5.7780   25.8020 C.ar    1  UNL1        0.0032
     21 C          -8.0437    6.3355   25.6605 C.ar    1  UNL1        0.0207
     22 C          -8.8763    5.9811   24.4641 C.ar    1  UNL1        0.0989
     23 N          -8.3234    5.0691   23.4092 N.ar    1  UNL1       -0.2423
     24 C          -6.9381    4.5116   23.5508 C.ar    1  UNL1        0.0989
     25 C           0.5543    2.3604   24.7458 C.ar    1  UNL1        0.0667
     26 C           1.4722    3.5004   24.4177 C.ar    1  UNL1        0.0173
     27 C           2.6748    3.2696   23.5514 C.ar    1  UNL1       -0.0011
     28 C           2.9595    1.8988   23.0131 C.ar    1  UNL1       -0.0025
     29 C           2.0416    0.7587   23.3411 C.ar    1  UNL1       -0.0011
     30 C           0.8390    0.9895   24.2074 C.ar    1  UNL1        0.0173
     31 C           4.1621    1.6681   22.1468 C.3     1  UNL1        0.1166
     32 N           4.4322    0.3031   21.5866 N.am    1  UNL1       -0.2969
     33 C           3.9169   -0.0649   20.2267 C.2     1  UNL1        0.2461
     34 O           3.1317    0.9321   19.4272 O.2     1  UNL1       -0.2701
     35 H           4.9475   -0.3513   22.1114 H       1  UNL1        0.1501
     36 C           4.1870   -1.4299   19.6665 C.ar    1  UNL1        0.0534
     37 C           3.1799   -2.5271   19.8462 C.ar    1  UNL1        0.0045
     38 C           3.4500   -3.8921   19.2860 C.ar    1  UNL1        0.0001
     39 C           4.7271   -4.1599   18.5462 C.ar    1  UNL1        0.0000
     40 C           5.7341   -3.0628   18.3665 C.ar    1  UNL1        0.0001
     41 C           5.4641   -1.6978   18.9267 C.ar    1  UNL1        0.0045
@<TRIPOS>BOND
     1    10    11    1
     2    11    12   ar
     3    12    13   ar
     4    13    14   ar
     5    14    15   ar
     6    15    16   ar
     7    16     1    1
     8     1     2   ar
     9     2     3   ar
    10     3     4   ar
    11     4     5   ar
    12     5    19    1
    13    19    20   ar
    14    20    21   ar
    15    21    22   ar
    16    22    23   ar
    17    23    24   ar
    18     5     6   ar
    19     6     7   ar
    20     7     8   ar
    21     8     9   ar
    22     9    25    1
    23    25    26   ar
    24    26    27   ar
    25    27    28   ar
    26    28    31    1
    27    31    32    1
    28    32    33   am
    29    33    34    2
    30    33    36    1
    31    36    37   ar
    32    37    38   ar
    33    38    39   ar
    34    39    40   ar
    35    40    41   ar
    36    28    29   ar
    37    29    30   ar
    38    16    11   ar
    39     9     1   ar
    40    30    25   ar
    41     8     3   ar
    42    41    36   ar
    43    24    19   ar
    44    10    17    1
    45    10    18    1
    46    32    35    1
@<TRIPOS>MOLECULE
*****
 41 46 0 0 0
SMALL
GASTEIGER

@<TRIPOS>ATOM
      1 C          -1.0425    3.0256   22.1647 C.ar    1  UNL1        0.1515
      2 N          -1.5430    3.4762   23.5050 N.ar    1  UNL1       -0.2248
      3 C          -0.6589    2.8738   24.5565 C.ar    1  UNL1        0.1173
      4 C          -0.6720    2.9683   26.0534 C.ar    1  UNL1        0.0238
      5 C           0.3619    2.2399   26.8599 C.ar    1  UNL1        0.0223
      6 C           1.4089    1.4170   26.1694 C.ar    1  UNL1        0.1006
      7 N           1.4219    1.3225   24.6725 N.ar    1  UNL1       -0.2248
      8 C           0.3880    2.0509   23.8660 C.ar    1  UNL1        0.1666
      9 N           0.1509    2.1447   22.3879 N.ar    1  UNL1       -0.2754
     10 N          -4.0109    2.8912   21.7515 N.pl3   1  UNL1       -0.3425
     11 C          -3.1161    3.3244   20.6282 C.ar    1  UNL1        0.1282
     12 N          -3.7055    3.6904   19.2983 N.ar    1  UNL1       -0.2295
     13 C          -2.8108    4.1236   18.1750 C.ar    1  UNL1        0.1003
     14 C          -1.3266    4.1908   18.3817 C.ar    1  UNL1        0.0209
     15 C          -0.7372    3.8248   19.7116 C.ar    1  UNL1        0.0074
     16 C          -1.6319    3.3916   20.8348 C.ar    1  UNL1        0.0657
     17 H          -4.9850    2.8471   21.6158 H       1  UNL1        0.1437
     18 H          -3.6240    2.6509   22.6244 H       1  UNL1        0.1437
     19 C           0.3490    2.3344   28.3569 C.ar    1  UNL1        0.0207
     20 C           0.7737    3.6048   29.0319 C.ar    1  UNL1        0.0032
     21 C           0.7608    3.6993   30.5288 C.ar    1  UNL1        0.0207
     22 C           0.3230    2.5234   31.3509 C.ar    1  UNL1        0.0989
     23 N          -0.1018    1.2530   30.6759 N.ar    1  UNL1       -0.2423
     24 C          -0.0888    1.1585   29.1789 C.ar    1  UNL1        0.0989
     25 C           0.9645    1.4751   21.3202 C.ar    1  UNL1        0.0667
     26 C           2.2260    2.1177   20.8247 C.ar    1  UNL1        0.0173
     27 C           3.0395    1.4481   19.7571 C.ar    1  UNL1       -0.0011
     28 C           2.5915    0.1359   19.1850 C.ar    1  UNL1       -0.0025
     29 C           1.3300   -0.5067   19.6804 C.ar    1  UNL1       -0.0011
     30 C           0.5164    0.1629   20.7480 C.ar    1  UNL1        0.0173
     31 C           3.4051   -0.5336   18.1173 C.3     1  UNL1        0.1166
     32 N           4.8040   -0.9867   18.4137 N.am    1  UNL1       -0.2969
     33 C           5.0346   -2.2371   19.2095 C.2     1  UNL1        0.2461
     34 O           3.8663   -3.0344   19.7088 O.2     1  UNL1       -0.2701
     35 H           5.5708   -0.4634   18.0859 H       1  UNL1        0.1501
     36 C           6.4334   -2.6902   19.5059 C.ar    1  UNL1        0.0534
     37 C           7.5880   -2.1042   18.7483 C.ar    1  UNL1        0.0045
     38 C           8.9869   -2.5573   19.0447 C.ar    1  UNL1        0.0001
     39 C           9.2312   -3.5963   20.0986 C.ar    1  UNL1        0.0000
     40 C           8.0768   -4.1823   20.8561 C.ar    1  UNL1        0.0001
     41 C           6.6779   -3.7292   20.5597 C.ar    1  UNL1        0.0045
@<TRIPOS>BOND
     1    10    11    1
     2    11    12   ar
     3    12    13   ar
     4    13    14   ar
     5    14    15   ar
     6    15    16   ar
     7    16     1    1
     8     1     2   ar
     9     2     3   ar
    10     3     4   ar
    11     4     5   ar
    12     5    19    1
    13    19    20   ar
    14    20    21   ar
    15    21    22   ar
    16    22    23   ar
    17    23    24   ar
    18     5     6   ar
    19     6     7   ar
    20     7     8   ar
    21     8     9   ar
    22     9    25    1
    23    25    26   ar
    24    26    27   ar
    25    27    28   ar
    26    28    31    1
    27    31    32    1
    28    32    33   am
    29    33    34    2
    30    33    36    1
    31    36    37   ar
    32    37    38   ar
    33    38    39   ar
    34    39    40   ar
    35    40    41   ar
    36    28    29   ar
    37    29    30   ar
    38    16    11   ar
    39     9     1   ar
    40    30    25   ar
    41     8     3   ar
    42    41    36   ar
    43    24    19   ar
    44    10    17    1
    45    10    18    1
    46    32    35    1
@<TRIPOS>MOLECULE
*****
 41 46 0 0 0
SMALL
GASTEIGER

@<TRIPOS>ATOM
      1 C           6.6764   -3.4492   30.9325 C.ar    1  UNL1        0.1515
      2 N           6.3893   -3.3136   32.3985 N.ar    1  UNL1       -0.2248
      3 C           5.7025   -1.9980   32.6166 C.ar    1  UNL1        0.1173
      4 C           5.1845   -1.3294   33.8553 C.ar    1  UNL1        0.0238
      5 C           4.5291    0.0166   33.7629 C.ar    1  UNL1        0.0223
      6 C           4.3918    0.6941   32.4317 C.ar    1  UNL1        0.1006
      7 N           4.9098    0.0255   31.1929 N.ar    1  UNL1       -0.2248
      8 C           5.5652   -1.3205   31.2853 C.ar    1  UNL1        0.1666
      9 N           6.1671   -2.2174   30.2445 N.ar    1  UNL1       -0.2754
     10 N           9.2767   -4.4840   32.0132 N.pl3   1  UNL1       -0.3425
     11 C           8.6540   -5.1298   30.8109 C.ar    1  UNL1        0.1282
     12 N           9.3315   -6.2929   30.1491 N.ar    1  UNL1       -0.2295
     13 C           8.7089   -6.9387   28.9469 C.ar    1  UNL1        0.1003
     14 C           7.4088   -6.4213   28.4066 C.ar    1  UNL1        0.0209
     15 C           6.7313   -5.2582   29.0684 C.ar    1  UNL1        0.0074
     16 C           7.3539   -4.6124   30.2706 C.ar    1  UNL1        0.0657
     17 H          10.1300   -4.8236   32.3678 H       1  UNL1        0.1437
     18 H           8.8321   -3.7205   32.4476 H       1  UNL1        0.1437
     19 C           4.0111    0.6853   35.0017 C.ar    1  UNL1        0.0207
     20 C           4.4666    0.2182   36.3524 C.ar    1  UNL1        0.0032
     21 C           3.9486    0.8868   37.5912 C.ar    1  UNL1        0.0207
     22 C           2.9750    2.0225   37.4793 C.ar    1  UNL1        0.0989
     23 N           2.5195    2.4896   36.1286 N.ar    1  UNL1       -0.2423
     24 C           3.0376    1.8209   34.8898 C.ar    1  UNL1        0.0989
     25 C           6.2457   -1.9325   28.7739 C.ar    1  UNL1        0.0667
     26 C           4.9997   -1.9482   27.9392 C.ar    1  UNL1        0.0173
     27 C           5.0783   -1.6633   26.4686 C.ar    1  UNL1       -0.0011
     28 C           6.4032   -1.3627   25.8327 C.ar    1  UNL1       -0.0025
     29 C           7.6494   -1.3470   26.6674 C.ar    1  UNL1       -0.0011
     30 C           7.5707   -1.6319   28.1380 C.ar    1  UNL1        0.0173
     31 C           6.4819   -1.0778   24.3621 C.3     1  UNL1        0.1166
     32 N           5.2980   -0.4986   23.6460 N.am    1  UNL1       -0.2969
     33 C           4.2993   -1.4066   22.9917 C.2     1  UNL1        0.2461
     34 O           4.4845   -2.8938   23.0536 O.2     1  UNL1       -0.2701
     35 H           5.1765    0.4776   23.6054 H       1  UNL1        0.1501
     36 C           3.1154   -0.8273   22.2755 C.ar    1  UNL1        0.0534
     37 C           2.7669   -1.3027   20.8961 C.ar    1  UNL1        0.0045
     38 C           1.5831   -0.7234   20.1800 C.ar    1  UNL1        0.0001
     39 C           0.7477    0.3312   20.8433 C.ar    1  UNL1        0.0000
     40 C           1.0961    0.8065   22.2226 C.ar    1  UNL1        0.0001
     41 C           2.2800    0.2273   22.9388 C.ar    1  UNL1        0.0045
@<TRIPOS>BOND
     1    10    11    1
     2    11    12   ar
     3    12    13   ar
     4    13    14   ar
     5    14    15   ar
     6    15    16   ar
     7    16     1    1
     8     1     2   ar
     9     2     3   ar
    10     3     4   ar
    11     4     5   ar
    12     5    19    1
    13    19    20   ar
    14    20    21   ar
    15    21    22   ar
    16    22    23   ar
    17    23    24   ar
    18     5     6   ar
    19     6     7   ar
    20     7     8   ar
    21     8     9   ar
    22     9    25    1
    23    25    26   ar
    24    26    27   ar
    25    27    28   ar
    26    28    31    1
    27    31    32    1
    28    32    33   am
    29    33    34    2
    30    33    36    1
    31    36    37   ar
    32    37    38   ar
    33    38    39   ar
    34    39    40   ar
    35    40    41   ar
    36    28    29   ar
    37    29    30   ar
    38    16    11   ar
    39     9     1   ar
    40    30    25   ar
    41     8     3   ar
    42    41    36   ar
    43    24    19   ar
    44    10    17    1
    45    10    18    1
    46    32    35    1
@<TRIPOS>MOLECULE
*****
 41 46 0 0 0
SMALL
GASTEIGER

@<TRIPOS>ATOM
      1 C           6.6554   -3.4111   30.9837 C.ar    1  UNL1        0.1515
      2 N           6.3465   -3.2901   32.4465 N.ar    1  UNL1       -0.2248
      3 C           5.6784   -1.9660   32.6712 C.ar    1  UNL1        0.1173
      4 C           5.1512   -1.3053   33.9104 C.ar    1  UNL1        0.0238
      5 C           4.5202    0.0528   33.8256 C.ar    1  UNL1        0.0223
      6 C           4.4162    0.7502   32.5016 C.ar    1  UNL1        0.1006
      7 N           4.9433    0.0894   31.2625 N.ar    1  UNL1       -0.2248
      8 C           5.5744   -1.2687   31.3473 C.ar    1  UNL1        0.1666
      9 N           6.1782   -2.1618   30.3043 N.ar    1  UNL1       -0.2754
     10 N           9.2477   -4.4698   32.0603 N.pl3   1  UNL1       -0.3425
     11 C           8.6202   -5.1061   30.8555 C.ar    1  UNL1        0.1282
     12 N           9.2889   -6.2717   30.1890 N.ar    1  UNL1       -0.2295
     13 C           8.6615   -6.9080   28.9843 C.ar    1  UNL1        0.1003
     14 C           7.3654   -6.3786   28.4460 C.ar    1  UNL1        0.0209
     15 C           6.6967   -5.2130   29.1124 C.ar    1  UNL1        0.0074
     16 C           7.3241   -4.5767   30.3172 C.ar    1  UNL1        0.0657
     17 H          10.0984   -4.8173   32.4136 H       1  UNL1        0.1437
     18 H           8.8088   -3.7048   32.4978 H       1  UNL1        0.1437
     19 C           3.9930    0.7136   35.0647 C.ar    1  UNL1        0.0207
     20 C           4.4597    0.2564   36.4150 C.ar    1  UNL1        0.0032
     21 C           3.9326    0.9171   37.6541 C.ar    1  UNL1        0.0207
     22 C           2.9388    2.0352   37.5431 C.ar    1  UNL1        0.0989
     23 N           2.4721    2.4925   36.1928 N.ar    1  UNL1       -0.2423
     24 C           2.9992    1.8316   34.9537 C.ar    1  UNL1        0.0989
     25 C           6.2860   -1.8587   28.8392 C.ar    1  UNL1        0.0667
     26 C           7.6290   -1.5989   28.2238 C.ar    1  UNL1        0.0173
     27 C           7.7367   -1.2959   26.7587 C.ar    1  UNL1       -0.0011
     28 C           6.5014   -1.2526   25.9089 C.ar    1  UNL1       -0.0025
     29 C           5.1583   -1.5124   26.5243 C.ar    1  UNL1       -0.0011
     30 C           5.0506   -1.8155   27.9894 C.ar    1  UNL1        0.0173
     31 C           6.6092   -0.9496   24.4438 C.3     1  UNL1        0.1166
     32 N           5.8420   -1.7701   23.4498 N.am    1  UNL1       -0.2969
     33 C           6.0079   -1.5165   21.9807 C.2     1  UNL1        0.2461
     34 O           6.9410   -0.4425   21.5057 O.2     1  UNL1       -0.2701
     35 H           5.2295   -2.4751   23.7616 H       1  UNL1        0.1501
     36 C           5.2407   -2.3371   20.9867 C.ar    1  UNL1        0.0534
     37 C           5.8035   -3.6374   20.4939 C.ar    1  UNL1        0.0045
     38 C           5.0363   -4.4580   19.4999 C.ar    1  UNL1        0.0001
     39 C           3.7064   -3.9782   18.9986 C.ar    1  UNL1        0.0000
     40 C           3.1437   -2.6780   19.4913 C.ar    1  UNL1        0.0001
     41 C           3.9109   -1.8574   20.4853 C.ar    1  UNL1        0.0045
@<TRIPOS>BOND
     1    10    11    1
     2    11    12   ar
     3    12    13   ar
     4    13    14   ar
     5    14    15   ar
     6    15    16   ar
     7    16     1    1
     8     1     2   ar
     9     2     3   ar
    10     3     4   ar
    11     4     5   ar
    12     5    19    1
    13    19    20   ar
    14    20    21   ar
    15    21    22   ar
    16    22    23   ar
    17    23    24   ar
    18     5     6   ar
    19     6     7   ar
    20     7     8   ar
    21     8     9   ar
    22     9    25    1
    23    25    26   ar
    24    26    27   ar
    25    27    28   ar
    26    28    31    1
    27    31    32    1
    28    32    33   am
    29    33    34    2
    30    33    36    1
    31    36    37   ar
    32    37    38   ar
    33    38    39   ar
    34    39    40   ar
    35    40    41   ar
    36    28    29   ar
    37    29    30   ar
    38    16    11   ar
    39     9     1   ar
    40    30    25   ar
    41     8     3   ar
    42    41    36   ar
    43    24    19   ar
    44    10    17    1
    45    10    18    1
    46    32    35    1
@<TRIPOS>MOLECULE
*****
 41 46 0 0 0
SMALL
GASTEIGER

@<TRIPOS>ATOM
      1 C          -0.9703    3.0546   24.5578 C.ar    1  UNL1        0.1515
      2 N          -0.8047    2.8351   23.0833 N.ar    1  UNL1       -0.2248
      3 C           0.3111    1.8527   22.8833 C.ar    1  UNL1        0.1173
      4 C           0.9177    1.2611   21.6456 C.ar    1  UNL1        0.0238
      5 C           2.0482    0.2817   21.7589 C.ar    1  UNL1        0.0223
      6 C           2.5721   -0.1059   23.1099 C.ar    1  UNL1        0.1006
      7 N           1.9655    0.4857   24.3476 N.ar    1  UNL1       -0.2248
      8 C           0.8350    1.4650   24.2343 C.ar    1  UNL1        0.1666
      9 N           0.0430    2.2078   25.2692 N.ar    1  UNL1       -0.2754
     10 N          -0.9989    5.9798   23.8927 N.pl3   1  UNL1       -0.3425
     11 C          -1.9876    5.4242   24.8745 C.ar    1  UNL1        0.1282
     12 N          -2.9905    6.3312   25.5237 N.ar    1  UNL1       -0.2295
     13 C          -3.9792    5.7756   26.5054 C.ar    1  UNL1        0.1003
     14 C          -3.9649    4.3131   26.8380 C.ar    1  UNL1        0.0209
     15 C          -2.9619    3.4060   26.1888 C.ar    1  UNL1        0.0074
     16 C          -1.9733    3.9616   25.2070 C.ar    1  UNL1        0.0657
     17 H          -1.0082    6.9398   23.6744 H       1  UNL1        0.1437
     18 H          -0.3406    5.3845   23.4666 H       1  UNL1        0.1437
     19 C           2.6548   -0.3099   20.5211 C.ar    1  UNL1        0.0207
     20 C           3.2890   -1.6683   20.5724 C.ar    1  UNL1        0.0032
     21 C           3.8956   -2.2600   19.3348 C.ar    1  UNL1        0.0207
     22 C           3.8681   -1.4933   18.0457 C.ar    1  UNL1        0.0989
     23 N           3.2340   -0.1349   17.9945 N.ar    1  UNL1       -0.2423
     24 C           2.6273    0.4567   19.2322 C.ar    1  UNL1        0.0989
     25 C           0.2314    2.1194   26.7547 C.ar    1  UNL1        0.0667
     26 C           1.0060    3.1814   27.4771 C.ar    1  UNL1        0.0173
     27 C           1.1943    3.0929   28.9626 C.ar    1  UNL1       -0.0011
     28 C           0.6080    1.9424   29.7257 C.ar    1  UNL1       -0.0025
     29 C          -0.1666    0.8803   29.0034 C.ar    1  UNL1       -0.0011
     30 C          -0.3550    0.9687   27.5179 C.ar    1  UNL1        0.0173
     31 C           0.7964    1.8539   31.2112 C.3     1  UNL1        0.1166
     32 N           0.1178    2.8417   32.1134 N.am    1  UNL1       -0.2969
     33 C           0.8800    4.0196   32.6440 C.2     1  UNL1        0.2461
     34 O           2.3207    4.2098   32.2724 O.2     1  UNL1       -0.2701
     35 H          -0.8278    2.7168   32.3573 H       1  UNL1        0.1501
     36 C           0.2015    5.0073   33.5462 C.ar    1  UNL1        0.0534
     37 C           0.8394    5.3966   34.8468 C.ar    1  UNL1        0.0045
     38 C           0.1608    6.3843   35.7490 C.ar    1  UNL1        0.0001
     39 C          -1.1557    6.9827   35.3505 C.ar    1  UNL1        0.0000
     40 C          -1.7936    6.5935   34.0500 C.ar    1  UNL1        0.0001
     41 C          -1.1150    5.6058   33.1478 C.ar    1  UNL1        0.0045
@<TRIPOS>BOND
     1    10    11    1
     2    11    12   ar
     3    12    13   ar
     4    13    14   ar
     5    14    15   ar
     6    15    16   ar
     7    16     1    1
     8     1     2   ar
     9     2     3   ar
    10     3     4   ar
    11     4     5   ar
    12     5    19    1
    13    19    20   ar
    14    20    21   ar
    15    21    22   ar
    16    22    23   ar
    17    23    24   ar
    18     5     6   ar
    19     6     7   ar
    20     7     8   ar
    21     8     9   ar
    22     9    25    1
    23    25    26   ar
    24    26    27   ar
    25    27    28   ar
    26    28    31    1
    27    31    32    1
    28    32    33   am
    29    33    34    2
    30    33    36    1
    31    36    37   ar
    32    37    38   ar
    33    38    39   ar
    34    39    40   ar
    35    40    41   ar
    36    28    29   ar
    37    29    30   ar
    38    16    11   ar
    39     9     1   ar
    40    30    25   ar
    41     8     3   ar
    42    41    36   ar
    43    24    19   ar
    44    10    17    1
    45    10    18    1
    46    32    35    1
@<TRIPOS>MOLECULE
*****
 41 46 0 0 0
SMALL
GASTEIGER

@<TRIPOS>ATOM
      1 C           2.4735   -0.4103   20.0376 C.ar    1  UNL1        0.1515
      2 N           1.3006    0.2164   19.3435 N.ar    1  UNL1       -0.2248
      3 C           0.6234    1.1359   20.3161 C.ar    1  UNL1        0.1173
      4 C          -0.5826    2.0188   20.1897 C.ar    1  UNL1        0.0238
      5 C          -1.0342    2.8433   21.3586 C.ar    1  UNL1        0.0223
      6 C          -0.2799    2.7849   22.6537 C.ar    1  UNL1        0.1006
      7 N           0.9262    1.9020   22.7801 N.ar    1  UNL1       -0.2248
      8 C           1.3778    1.0775   21.6113 C.ar    1  UNL1        0.1666
      9 N           2.5212    0.1220   21.4391 N.ar    1  UNL1       -0.2754
     10 N           4.1771    0.3880   17.7008 N.pl3   1  UNL1       -0.3425
     11 C           4.2824   -0.9969   18.2674 C.ar    1  UNL1        0.1282
     12 N           5.2394   -1.9827   17.6655 N.ar    1  UNL1       -0.2295
     13 C           5.3447   -3.3676   18.2320 C.ar    1  UNL1        0.1003
     14 C           4.4929   -3.7667   19.4003 C.ar    1  UNL1        0.0209
     15 C           3.5358   -2.7809   20.0022 C.ar    1  UNL1        0.0074
     16 C           3.4305   -1.3960   19.4357 C.ar    1  UNL1        0.0657
     17 H           4.7362    0.6500   16.9340 H       1  UNL1        0.1437
     18 H           3.5489    1.0350   18.0958 H       1  UNL1        0.1437
     19 C          -2.2403    3.7262   21.2322 C.ar    1  UNL1        0.0207
     20 C          -3.2067    3.5189   20.1038 C.ar    1  UNL1        0.0032
     21 C          -4.4127    4.4017   19.9775 C.ar    1  UNL1        0.0207
     22 C          -4.6524    5.4920   20.9795 C.ar    1  UNL1        0.0989
     23 N          -3.6861    5.6993   22.1078 N.ar    1  UNL1       -0.2423
     24 C          -2.4800    4.8164   22.2342 C.ar    1  UNL1        0.0989
     25 C           3.5344   -0.2381   22.4850 C.ar    1  UNL1        0.0667
     26 C           4.8926    0.3978   22.4638 C.ar    1  UNL1        0.0173
     27 C           5.9058    0.0377   23.5096 C.ar    1  UNL1       -0.0011
     28 C           5.5607   -0.9584   24.5767 C.ar    1  UNL1       -0.0025
     29 C           4.2024   -1.5944   24.5980 C.ar    1  UNL1       -0.0011
     30 C           3.1892   -1.2343   23.5521 C.ar    1  UNL1        0.0173
     31 C           6.5739   -1.3185   25.6226 C.3     1  UNL1        0.1166
     32 N           6.7855   -2.7551   25.9986 N.am    1  UNL1       -0.2969
     33 C           7.3006   -3.7288   24.9804 C.2     1  UNL1        0.2461
     34 O           7.6040   -3.2658   23.5863 O.2     1  UNL1       -0.2701
     35 H           6.5864   -3.0589   26.9136 H       1  UNL1        0.1501
     36 C           7.5122   -5.1654   25.3564 C.ar    1  UNL1        0.0534
     37 C           7.2000   -5.6303   26.7480 C.ar    1  UNL1        0.0045
     38 C           7.4116   -7.0668   27.1241 C.ar    1  UNL1        0.0001
     39 C           7.9355   -8.0386   26.1085 C.ar    1  UNL1        0.0000
     40 C           8.2478   -7.5737   24.7169 C.ar    1  UNL1        0.0001
     41 C           8.0361   -6.1371   24.3409 C.ar    1  UNL1        0.0045
@<TRIPOS>BOND
     1    10    11    1
     2    11    12   ar
     3    12    13   ar
     4    13    14   ar
     5    14    15   ar
     6    15    16   ar
     7    16     1    1
     8     1     2   ar
     9     2     3   ar
    10     3     4   ar
    11     4     5   ar
    12     5    19    1
    13    19    20   ar
    14    20    21   ar
    15    21    22   ar
    16    22    23   ar
    17    23    24   ar
    18     5     6   ar
    19     6     7   ar
    20     7     8   ar
    21     8     9   ar
    22     9    25    1
    23    25    26   ar
    24    26    27   ar
    25    27    28   ar
    26    28    31    1
    27    31    32    1
    28    32    33   am
    29    33    34    2
    30    33    36    1
    31    36    37   ar
    32    37    38   ar
    33    38    39   ar
    34    39    40   ar
    35    40    41   ar
    36    28    29   ar
    37    29    30   ar
    38    16    11   ar
    39     9     1   ar
    40    30    25   ar
    41     8     3   ar
    42    41    36   ar
    43    24    19   ar
    44    10    17    1
    45    10    18    1
    46    32    35    1
@<TRIPOS>MOLECULE
*****
 41 46 0 0 0
SMALL
GASTEIGER

@<TRIPOS>ATOM
      1 C           1.0581    2.4727   29.8250 C.ar    1  UNL1        0.1515
      2 N           0.6506    3.0213   31.1603 N.ar    1  UNL1       -0.2248
      3 C           1.6145    2.5054   32.1873 C.ar    1  UNL1        0.1173
      4 C           1.7083    2.7134   33.6698 C.ar    1  UNL1        0.0238
      5 C           2.8055    2.0540   34.4517 C.ar    1  UNL1        0.0223
      6 C           3.8088    1.1865   33.7511 C.ar    1  UNL1        0.1006
      7 N           3.7150    0.9785   32.2685 N.ar    1  UNL1       -0.2248
      8 C           2.6179    1.6379   31.4866 C.ar    1  UNL1        0.1666
      9 N           2.2740    1.6178   30.0267 N.ar    1  UNL1       -0.2754
     10 N           0.5451    5.2916   28.9358 N.pl3   1  UNL1       -0.3425
     11 C           0.1140    4.1428   28.0730 C.ar    1  UNL1        0.1282
     12 N          -0.5736    4.4034   26.7656 N.ar    1  UNL1       -0.2295
     13 C          -1.0047    3.2546   25.9029 C.ar    1  UNL1        0.1003
     14 C          -0.7482    1.8452   26.3475 C.ar    1  UNL1        0.0209
     15 C          -0.0606    1.5846   27.6549 C.ar    1  UNL1        0.0074
     16 C           0.3705    2.7334   28.5176 C.ar    1  UNL1        0.0657
     17 H           0.3767    6.2167   28.6440 H       1  UNL1        0.1437
     18 H           0.9964    5.1206   29.7939 H       1  UNL1        0.1437
     19 C           2.8993    2.2620   35.9343 C.ar    1  UNL1        0.0207
     20 C           3.6172    1.2594   36.7883 C.ar    1  UNL1        0.0032
     21 C           3.7111    1.4673   38.2708 C.ar    1  UNL1        0.0207
     22 C           3.0870    2.6779   38.8994 C.ar    1  UNL1        0.0989
     23 N           2.3690    3.6805   38.0454 N.ar    1  UNL1       -0.2423
     24 C           2.2752    3.4725   36.5628 C.ar    1  UNL1        0.0989
     25 C           3.0157    0.8733   28.9564 C.ar    1  UNL1        0.0667
     26 C           4.0218    1.5890   28.1047 C.ar    1  UNL1        0.0173
     27 C           4.7636    0.8445   27.0344 C.ar    1  UNL1       -0.0011
     28 C           4.4993   -0.6157   26.8158 C.ar    1  UNL1       -0.0025
     29 C           3.4932   -1.3315   27.6675 C.ar    1  UNL1       -0.0011
     30 C           2.7514   -0.5870   28.7378 C.ar    1  UNL1        0.0173
     31 C           5.2410   -1.3602   25.7455 C.3     1  UNL1        0.1166
     32 N           4.6753   -1.4412   24.3587 N.am    1  UNL1       -0.2969
     33 C           4.9419   -2.6485   23.5093 C.2     1  UNL1        0.2461
     34 O           5.7743   -3.7747   24.0468 O.2     1  UNL1       -0.2701
     35 H           4.1289   -0.7021   24.0059 H       1  UNL1        0.1501
     36 C           4.3762   -2.7296   22.1225 C.ar    1  UNL1        0.0534
     37 C           3.5938   -1.5784   21.5631 C.ar    1  UNL1        0.0045
     38 C           3.0280   -1.6595   20.1763 C.ar    1  UNL1        0.0001
     39 C           3.2446   -2.8917   19.3488 C.ar    1  UNL1        0.0000
     40 C           4.0269   -4.0429   19.9081 C.ar    1  UNL1        0.0001
     41 C           4.5927   -3.9618   21.2949 C.ar    1  UNL1        0.0045
@<TRIPOS>BOND
     1    10    11    1
     2    11    12   ar
     3    12    13   ar
     4    13    14   ar
     5    14    15   ar
     6    15    16   ar
     7    16     1    1
     8     1     2   ar
     9     2     3   ar
    10     3     4   ar
    11     4     5   ar
    12     5    19    1
    13    19    20   ar
    14    20    21   ar
    15    21    22   ar
    16    22    23   ar
    17    23    24   ar
    18     5     6   ar
    19     6     7   ar
    20     7     8   ar
    21     8     9   ar
    22     9    25    1
    23    25    26   ar
    24    26    27   ar
    25    27    28   ar
    26    28    31    1
    27    31    32    1
    28    32    33   am
    29    33    34    2
    30    33    36    1
    31    36    37   ar
    32    37    38   ar
    33    38    39   ar
    34    39    40   ar
    35    40    41   ar
    36    28    29   ar
    37    29    30   ar
    38    16    11   ar
    39     9     1   ar
    40    30    25   ar
    41     8     3   ar
    42    41    36   ar
    43    24    19   ar
    44    10    17    1
    45    10    18    1
    46    32    35    1
