@<TRIPOS>MOLECULE
*****
 39 43 0 0 0
SMALL
GASTEIGER

@<TRIPOS>ATOM
      1 C           6.6229   -2.2361   32.5393 C.3     1  UNL1        0.0453
      2 C           5.3218   -1.9533   33.2300 C.3     1  UNL1        0.0275
      3 C           5.2291   -0.8361   34.2267 C.3     1  UNL1        0.0941
      4 N           6.4375   -0.0017   34.5326 N.am    1  UNL1       -0.2760
      5 C           6.3448    1.1154   35.5293 C.2     1  UNL1        0.2502
      6 O           7.5532    1.9498   35.8353 O.2     1  UNL1       -0.2699
      7 C           7.7386   -0.2846   33.8419 C.3     1  UNL1        0.0941
      8 C           7.8314   -1.4017   32.8453 C.3     1  UNL1        0.0275
      9 C           5.9006   -2.5580   27.1892 C.ar    1  UNL1        0.0689
     10 C           5.8079   -1.4408   28.1858 C.ar    1  UNL1        0.1134
     11 N           6.0795   -1.7059   29.6369 N.ar    1  UNL1       -0.2398
     12 C           6.4440   -3.0882   30.0914 C.ar    1  UNL1        0.1125
     13 C           6.7157   -3.3533   31.5427 C.ar    1  UNL1        0.0795
     14 N           7.0801   -4.7355   31.9972 N.ar    1  UNL1       -0.2268
     15 C           7.1728   -5.8527   31.0004 C.ar    1  UNL1        0.1986
     16 N           6.9011   -5.5876   29.5493 N.ar    1  UNL1       -0.2224
     17 C           6.5367   -4.2053   29.0948 C.ar    1  UNL1        0.1031
     18 C           6.2650   -3.9402   27.6437 C.ar    1  UNL1        0.0368
     19 C           4.8138   -1.4976   21.3844 C.3     1  UNL1        0.0897
     20 N           5.0855   -1.7627   22.8356 N.3     1  UNL1       -0.2686
     21 C           6.2849   -2.5680   23.2391 C.3     1  UNL1        0.0938
     22 C           6.5566   -2.8331   24.6904 C.3     1  UNL1        0.1082
     23 N           5.6289   -2.2929   25.7379 N.pl3   1  UNL1       -0.3034
     24 C           4.4295   -1.4876   25.3344 C.3     1  UNL1        0.1082
     25 C           4.1578   -1.2225   23.8832 C.3     1  UNL1        0.0938
     26 C           5.0436    1.3982   36.2200 C.ar    1  UNL1        0.0666
     27 C           4.7413    0.7569   37.5418 C.ar    1  UNL1        0.0089
     28 C           3.4402    1.0397   38.2326 C.ar    1  UNL1        0.0374
     29 C           2.4414    1.9638   37.6014 C.ar    1  UNL1        0.1480
     30 C           2.7437    2.6052   36.2795 C.ar    1  UNL1        0.0514
     31 C           4.0448    2.3224   35.5888 C.ar    1  UNL1        0.0489
     32 N           4.3471    2.9636   34.2670 N.pl3   1  UNL1       -0.3568
     33 H           3.6915    3.5702   33.8527 H       1  UNL1        0.1424
     34 H           5.2011    2.7780   33.8136 H       1  UNL1        0.1424
     35 O           1.1403    2.2466   38.2922 O.3     1  UNL1       -0.4044
     36 C           0.8375    1.6046   39.6135 C.3     1  UNL1        0.5753
     37 F           0.5348    0.9625   40.9349 F       1  UNL1       -0.1328
     38 F           0.3176    0.3896   38.9040 F       1  UNL1       -0.1328
     39 F           1.3575    2.8195   40.3230 F       1  UNL1       -0.1328
@<TRIPOS>BOND
     1    19    20    1
     2    20    21    1
     3    21    22    1
     4    22    23    1
     5    23     9    1
     6     9    10   ar
     7    10    11   ar
     8    11    12   ar
     9    12    13   ar
    10    13     1    1
    11     1     2    1
    12     2     3    1
    13     3     4    1
    14     4     5   am
    15     5     6    2
    16     5    26    1
    17    26    27   ar
    18    27    28   ar
    19    28    29   ar
    20    29    35    1
    21    35    36    1
    22    36    37    1
    23    36    38    1
    24    36    39    1
    25    29    30   ar
    26    30    31   ar
    27    31    32    1
    28     4     7    1
    29     7     8    1
    30    13    14   ar
    31    14    15   ar
    32    15    16   ar
    33    16    17   ar
    34    17    18   ar
    35    23    24    1
    36    24    25    1
    37    25    20    1
    38    18     9   ar
    39    17    12   ar
    40     8     1    1
    41    31    26   ar
    42    32    33    1
    43    32    34    1
@<TRIPOS>MOLECULE
*****
 39 43 0 0 0
SMALL
GASTEIGER

@<TRIPOS>ATOM
      1 C           2.7047   -0.5842   19.5520 C.3     1  UNL1        0.0453
      2 C           1.2621   -0.2862   19.8349 C.3     1  UNL1        0.0275
      3 C           0.6762    1.0347   19.4323 C.3     1  UNL1        0.0941
      4 N           1.5329    2.0575   18.7468 N.am    1  UNL1       -0.2760
      5 C           0.9470    3.3783   18.3442 C.2     1  UNL1        0.2502
      6 O           1.8037    4.4011   17.6586 O.2     1  UNL1       -0.2699
      7 C           2.9755    1.7594   18.4638 C.3     1  UNL1        0.0941
      8 C           3.5614    0.4386   18.8664 C.3     1  UNL1        0.0275
      9 C           5.0825   -2.4168   24.0505 C.ar    1  UNL1        0.0689
     10 C           4.4966   -1.0960   23.6479 C.ar    1  UNL1        0.1134
     11 N           3.8993   -0.9255   22.2826 N.ar    1  UNL1       -0.2398
     12 C           3.8879   -2.0757   21.3199 C.ar    1  UNL1        0.1125
     13 C           3.2906   -1.9051   19.9545 C.ar    1  UNL1        0.0795
     14 N           3.2792   -3.0553   18.9918 N.ar    1  UNL1       -0.2268
     15 C           3.8651   -4.3762   19.3945 C.ar    1  UNL1        0.1986
     16 N           4.4624   -4.5467   20.7598 N.ar    1  UNL1       -0.2224
     17 C           4.4738   -3.3965   21.7225 C.ar    1  UNL1        0.1031
     18 C           5.0711   -3.5671   23.0878 C.ar    1  UNL1        0.0368
     19 C           7.4717   -3.0993   29.5119 C.3     1  UNL1        0.0897
     20 N           6.8745   -2.9287   28.1466 N.3     1  UNL1       -0.2686
     21 C           7.3297   -3.8010   27.0144 C.3     1  UNL1        0.0938
     22 C           6.7324   -3.6304   25.6490 C.3     1  UNL1        0.1082
     23 N           5.6798   -2.5875   25.4159 N.pl3   1  UNL1       -0.3034
     24 C           5.2246   -1.7152   26.5480 C.3     1  UNL1        0.1082
     25 C           5.8218   -1.8858   27.9133 C.3     1  UNL1        0.0938
     26 C          -0.4956    3.6764   18.6271 C.ar    1  UNL1        0.0666
     27 C          -0.9965    3.6842   20.0410 C.ar    1  UNL1        0.0089
     28 C          -2.4391    3.9823   20.3239 C.ar    1  UNL1        0.0374
     29 C          -3.3808    4.2725   19.1931 C.ar    1  UNL1        0.1480
     30 C          -2.8799    4.2647   17.7791 C.ar    1  UNL1        0.0514
     31 C          -1.4373    3.9666   17.4962 C.ar    1  UNL1        0.0489
     32 N          -0.9364    3.9588   16.0823 N.pl3   1  UNL1       -0.3568
     33 H          -1.5545    4.1493   15.3401 H       1  UNL1        0.1424
     34 H           0.0104    3.7632   15.8966 H       1  UNL1        0.1424
     35 O          -4.8234    4.5706   19.4760 O.3     1  UNL1       -0.4044
     36 C          -5.8861    3.5980   19.0582 C.3     1  UNL1        0.5753
     37 F          -6.9489    2.6255   18.6404 F       1  UNL1       -0.1328
     38 F          -5.5523    2.7282   20.2337 F       1  UNL1       -0.1328
     39 F          -6.2200    4.4679   17.8827 F       1  UNL1       -0.1328
@<TRIPOS>BOND
     1    19    20    1
     2    20    21    1
     3    21    22    1
     4    22    23    1
     5    23     9    1
     6     9    10   ar
     7    10    11   ar
     8    11    12   ar
     9    12    13   ar
    10    13     1    1
    11     1     2    1
    12     2     3    1
    13     3     4    1
    14     4     5   am
    15     5     6    2
    16     5    26    1
    17    26    27   ar
    18    27    28   ar
    19    28    29   ar
    20    29    35    1
    21    35    36    1
    22    36    37    1
    23    36    38    1
    24    36    39    1
    25    29    30   ar
    26    30    31   ar
    27    31    32    1
    28     4     7    1
    29     7     8    1
    30    13    14   ar
    31    14    15   ar
    32    15    16   ar
    33    16    17   ar
    34    17    18   ar
    35    23    24    1
    36    24    25    1
    37    25    20    1
    38    18     9   ar
    39    17    12   ar
    40     8     1    1
    41    31    26   ar
    42    32    33    1
    43    32    34    1
@<TRIPOS>MOLECULE
*****
 39 43 0 0 0
SMALL
GASTEIGER

@<TRIPOS>ATOM
      1 C           7.6292   -4.9591   23.4537 C.3     1  UNL1        0.0453
      2 C           6.3572   -4.2881   23.0274 C.3     1  UNL1        0.0275
      3 C           6.3211   -3.4844   21.7613 C.3     1  UNL1        0.0941
      4 N           7.5569   -3.3519   20.9215 N.am    1  UNL1       -0.2760
      5 C           7.5207   -2.5483   19.6555 C.2     1  UNL1        0.2502
      6 O           8.7565   -2.4157   18.8157 O.2     1  UNL1       -0.2699
      7 C           8.8289   -4.0229   21.3478 C.3     1  UNL1        0.0941
      8 C           8.8651   -4.8265   22.6139 C.3     1  UNL1        0.0275
      9 C           6.6625   -3.8149   28.6504 C.ar    1  UNL1        0.0689
     10 C           6.6263   -3.0113   27.3844 C.ar    1  UNL1        0.1134
     11 N           6.9606   -3.6606   26.0742 N.ar    1  UNL1       -0.2398
     12 C           7.3311   -5.1134   26.0300 C.ar    1  UNL1        0.1125
     13 C           7.6655   -5.7627   24.7197 C.ar    1  UNL1        0.0795
     14 N           8.0360   -7.2155   24.6756 N.ar    1  UNL1       -0.2268
     15 C           8.0722   -8.0191   25.9417 C.ar    1  UNL1        0.1986
     16 N           7.7379   -7.3698   27.2519 N.ar    1  UNL1       -0.2224
     17 C           7.3673   -5.9170   27.2960 C.ar    1  UNL1        0.1031
     18 C           7.0330   -5.2677   28.6062 C.ar    1  UNL1        0.0368
     19 C           5.3252   -1.2179   33.8913 C.3     1  UNL1        0.0897
     20 N           5.6595   -1.8671   32.5812 N.3     1  UNL1       -0.2686
     21 C           6.2017   -3.2654   32.5538 C.3     1  UNL1        0.0938
     22 C           6.5360   -3.9147   31.2435 C.3     1  UNL1        0.1082
     23 N           6.3282   -3.1656   29.9607 N.pl3   1  UNL1       -0.3034
     24 C           5.7860   -1.7673   29.9881 C.3     1  UNL1        0.1082
     25 C           5.4517   -1.1180   31.2982 C.3     1  UNL1        0.0938
     26 C           6.2487   -1.8773   19.2292 C.ar    1  UNL1        0.0666
     27 C           5.3261   -2.5621   18.2650 C.ar    1  UNL1        0.0089
     28 C           4.0541   -1.8911   17.8387 C.ar    1  UNL1        0.0374
     29 C           3.7047   -0.5352   18.3766 C.ar    1  UNL1        0.1480
     30 C           4.6273    0.1497   19.3408 C.ar    1  UNL1        0.0514
     31 C           5.8993   -0.5213   19.7671 C.ar    1  UNL1        0.0489
     32 N           6.8218    0.1636   20.7313 N.pl3   1  UNL1       -0.3568
     33 H           6.5925    1.0536   21.0844 H       1  UNL1        0.1424
     34 H           7.6567   -0.2768   21.0111 H       1  UNL1        0.1424
     35 O           2.4327    0.1358   17.9503 O.3     1  UNL1       -0.4044
     36 C           1.2968    0.2752   18.9200 C.3     1  UNL1        0.5753
     37 F           0.1609    0.4146   19.8896 F       1  UNL1       -0.1328
     38 F           1.7294   -0.9855   19.6080 F       1  UNL1       -0.1328
     39 F           0.8642    1.5359   18.2319 F       1  UNL1       -0.1328
@<TRIPOS>BOND
     1    19    20    1
     2    20    21    1
     3    21    22    1
     4    22    23    1
     5    23     9    1
     6     9    10   ar
     7    10    11   ar
     8    11    12   ar
     9    12    13   ar
    10    13     1    1
    11     1     2    1
    12     2     3    1
    13     3     4    1
    14     4     5   am
    15     5     6    2
    16     5    26    1
    17    26    27   ar
    18    27    28   ar
    19    28    29   ar
    20    29    35    1
    21    35    36    1
    22    36    37    1
    23    36    38    1
    24    36    39    1
    25    29    30   ar
    26    30    31   ar
    27    31    32    1
    28     4     7    1
    29     7     8    1
    30    13    14   ar
    31    14    15   ar
    32    15    16   ar
    33    16    17   ar
    34    17    18   ar
    35    23    24    1
    36    24    25    1
    37    25    20    1
    38    18     9   ar
    39    17    12   ar
    40     8     1    1
    41    31    26   ar
    42    32    33    1
    43    32    34    1
@<TRIPOS>MOLECULE
*****
 39 43 0 0 0
SMALL
GASTEIGER

@<TRIPOS>ATOM
      1 C           7.5453   -4.2955   25.7736 C.3     1  UNL1        0.0453
      2 C           6.1590   -3.9914   25.2880 C.3     1  UNL1        0.0275
      3 C           5.9600   -3.3073   23.9679 C.3     1  UNL1        0.0941
      4 N           7.1472   -2.9272   23.1336 N.am    1  UNL1       -0.2760
      5 C           6.9481   -2.2431   21.8137 C.2     1  UNL1        0.2502
      6 O           8.1353   -1.8630   20.9793 O.2     1  UNL1       -0.2699
      7 C           8.5334   -3.2313   23.6193 C.3     1  UNL1        0.0941
      8 C           8.7325   -3.9154   24.9392 C.3     1  UNL1        0.0275
      9 C           6.4898   -2.9334   30.9001 C.ar    1  UNL1        0.0689
     10 C           6.2908   -2.2493   29.5801 C.ar    1  UNL1        0.1134
     11 N           6.7089   -2.9314   28.3113 N.ar    1  UNL1       -0.2398
     12 C           7.3262   -4.2975   28.3625 C.ar    1  UNL1        0.1125
     13 C           7.7443   -4.9796   27.0936 C.ar    1  UNL1        0.0795
     14 N           8.3616   -6.3457   27.1447 N.ar    1  UNL1       -0.2268
     15 C           8.5607   -7.0298   28.4648 C.ar    1  UNL1        0.1986
     16 N           8.1425   -6.3478   29.7336 N.ar    1  UNL1       -0.2224
     17 C           7.5252   -4.9816   29.6824 C.ar    1  UNL1        0.1031
     18 C           7.1071   -4.2996   30.9512 C.ar    1  UNL1        0.0368
     19 C           4.8171   -0.2053   35.9755 C.3     1  UNL1        0.0897
     20 N           5.2353   -0.8873   34.7067 N.3     1  UNL1       -0.2686
     21 C           6.5854   -0.6089   34.1154 C.3     1  UNL1        0.0938
     22 C           7.0036   -1.2910   32.8465 C.3     1  UNL1        0.1082
     23 N           6.0716   -2.2514   32.1689 N.pl3   1  UNL1       -0.3034
     24 C           4.7215   -2.5297   32.7602 C.3     1  UNL1        0.1082
     25 C           4.3033   -1.8477   34.0290 C.3     1  UNL1        0.0938
     26 C           5.5618   -1.9391   21.3280 C.ar    1  UNL1        0.0666
     27 C           4.8570   -0.7014   21.7983 C.ar    1  UNL1        0.0089
     28 C           3.4707   -0.3973   21.3127 C.ar    1  UNL1        0.0374
     29 C           2.7893   -1.3310   20.3567 C.ar    1  UNL1        0.1480
     30 C           3.4942   -2.5688   19.8864 C.ar    1  UNL1        0.0514
     31 C           4.8804   -2.8729   20.3720 C.ar    1  UNL1        0.0489
     32 N           5.5852   -4.1106   19.9018 N.pl3   1  UNL1       -0.3568
     33 H           5.1380   -4.7234   19.2744 H       1  UNL1        0.1424
     34 H           6.4951   -4.3101   20.2205 H       1  UNL1        0.1424
     35 O           1.4031   -1.0270   19.8711 O.3     1  UNL1       -0.4044
     36 C           1.1340    0.2412   19.1165 C.3     1  UNL1        0.5753
     37 F           0.8649    1.5093   18.3620 F       1  UNL1       -0.1328
     38 F           2.2962   -0.0493   18.2139 F       1  UNL1       -0.1328
     39 F          -0.0282    0.5316   20.0192 F       1  UNL1       -0.1328
@<TRIPOS>BOND
     1    19    20    1
     2    20    21    1
     3    21    22    1
     4    22    23    1
     5    23     9    1
     6     9    10   ar
     7    10    11   ar
     8    11    12   ar
     9    12    13   ar
    10    13     1    1
    11     1     2    1
    12     2     3    1
    13     3     4    1
    14     4     5   am
    15     5     6    2
    16     5    26    1
    17    26    27   ar
    18    27    28   ar
    19    28    29   ar
    20    29    35    1
    21    35    36    1
    22    36    37    1
    23    36    38    1
    24    36    39    1
    25    29    30   ar
    26    30    31   ar
    27    31    32    1
    28     4     7    1
    29     7     8    1
    30    13    14   ar
    31    14    15   ar
    32    15    16   ar
    33    16    17   ar
    34    17    18   ar
    35    23    24    1
    36    24    25    1
    37    25    20    1
    38    18     9   ar
    39    17    12   ar
    40     8     1    1
    41    31    26   ar
    42    32    33    1
    43    32    34    1
@<TRIPOS>MOLECULE
*****
 39 43 0 0 0
SMALL
GASTEIGER

@<TRIPOS>ATOM
      1 C          -0.1463    3.3905   18.3687 C.3     1  UNL1        0.0453
      2 C           0.1895    1.9564   18.6527 C.3     1  UNL1        0.0275
      3 C           1.6216    1.5101   18.6667 C.3     1  UNL1        0.0941
      4 N           2.7177    2.4978   18.3966 N.am    1  UNL1       -0.2760
      5 C           4.1496    2.0514   18.4106 C.2     1  UNL1        0.2502
      6 O           5.2458    3.0392   18.1405 O.2     1  UNL1       -0.2699
      7 C           2.3818    3.9319   18.1126 C.3     1  UNL1        0.0941
      8 C           0.9499    4.3782   18.0986 C.3     1  UNL1        0.0275
      9 C          -3.7057    4.6937   22.2263 C.ar    1  UNL1        0.0689
     10 C          -2.2738    4.2474   22.2403 C.ar    1  UNL1        0.1134
     11 N          -1.5647    3.9618   20.9498 N.ar    1  UNL1       -0.2398
     12 C          -2.2875    4.1225   19.6453 C.ar    1  UNL1        0.1125
     13 C          -1.5783    3.8369   18.3547 C.ar    1  UNL1        0.0795
     14 N          -2.3011    3.9976   17.0502 N.ar    1  UNL1       -0.2268
     15 C          -3.7331    4.4440   17.0363 C.ar    1  UNL1        0.1986
     16 N          -4.4422    4.7296   18.3268 N.ar    1  UNL1       -0.2224
     17 C          -3.7194    4.5689   19.6313 C.ar    1  UNL1        0.1031
     18 C          -4.4286    4.8545   20.9218 C.ar    1  UNL1        0.0368
     19 C          -6.5426    5.8364   27.3884 C.3     1  UNL1        0.0897
     20 N          -5.8334    5.5507   26.0979 N.3     1  UNL1       -0.2686
     21 C          -4.7603    4.5038   26.0476 C.3     1  UNL1        0.0938
     22 C          -4.0511    4.2181   24.7570 C.3     1  UNL1        0.1082
     23 N          -4.4150    4.9794   23.5169 N.pl3   1  UNL1       -0.3034
     24 C          -5.4880    6.0263   23.5672 C.3     1  UNL1        0.1082
     25 C          -6.1972    6.3120   24.8577 C.3     1  UNL1        0.0938
     26 C           4.4855    0.6174   18.6946 C.ar    1  UNL1        0.0666
     27 C           4.5370   -0.3772   17.5730 C.ar    1  UNL1        0.0089
     28 C           4.8729   -1.8112   17.8570 C.ar    1  UNL1        0.0374
     29 C           5.1572   -2.2507   19.2627 C.ar    1  UNL1        0.1480
     30 C           5.1056   -1.2562   20.3844 C.ar    1  UNL1        0.0514
     31 C           4.7698    0.1779   20.1004 C.ar    1  UNL1        0.0489
     32 N           4.7182    1.1725   21.2220 N.pl3   1  UNL1       -0.3568
     33 H           4.9048    0.8840   22.1446 H       1  UNL1        0.1424
     34 H           4.4978    2.1137   21.0356 H       1  UNL1        0.1424
     35 O           5.4930   -3.6848   19.5467 O.3     1  UNL1       -0.4044
     36 C           4.3986   -4.7056   19.6475 C.3     1  UNL1        0.5753
     37 F           3.3043   -5.7264   19.7483 F       1  UNL1       -0.1328
     38 F           4.1363   -4.2845   21.0631 F       1  UNL1       -0.1328
     39 F           4.6610   -5.1267   18.2320 F       1  UNL1       -0.1328
@<TRIPOS>BOND
     1    19    20    1
     2    20    21    1
     3    21    22    1
     4    22    23    1
     5    23     9    1
     6     9    10   ar
     7    10    11   ar
     8    11    12   ar
     9    12    13   ar
    10    13     1    1
    11     1     2    1
    12     2     3    1
    13     3     4    1
    14     4     5   am
    15     5     6    2
    16     5    26    1
    17    26    27   ar
    18    27    28   ar
    19    28    29   ar
    20    29    35    1
    21    35    36    1
    22    36    37    1
    23    36    38    1
    24    36    39    1
    25    29    30   ar
    26    30    31   ar
    27    31    32    1
    28     4     7    1
    29     7     8    1
    30    13    14   ar
    31    14    15   ar
    32    15    16   ar
    33    16    17   ar
    34    17    18   ar
    35    23    24    1
    36    24    25    1
    37    25    20    1
    38    18     9   ar
    39    17    12   ar
    40     8     1    1
    41    31    26   ar
    42    32    33    1
    43    32    34    1
@<TRIPOS>MOLECULE
*****
 39 43 0 0 0
SMALL
GASTEIGER

@<TRIPOS>ATOM
      1 C           7.0456   -2.9146   28.3066 C.3     1  UNL1        0.0453
      2 C           6.1568   -3.3656   27.1856 C.3     1  UNL1        0.0275
      3 C           6.3628   -2.8254   25.8014 C.3     1  UNL1        0.0941
      4 N           7.4576   -1.8344   25.5383 N.am    1  UNL1       -0.2760
      5 C           7.6635   -1.2943   24.1542 C.2     1  UNL1        0.2502
      6 O           8.7584   -0.3032   23.8910 O.2     1  UNL1       -0.2699
      7 C           8.3464   -1.3834   26.6593 C.3     1  UNL1        0.0941
      8 C           8.1404   -1.9235   28.0434 C.3     1  UNL1        0.0275
      9 C           5.0455   -0.8388   32.8827 C.ar    1  UNL1        0.0689
     10 C           5.2515   -0.2988   31.4985 C.ar    1  UNL1        0.1134
     11 N           5.8495   -1.1707   30.4346 N.ar    1  UNL1       -0.2398
     12 C           6.2416   -2.5827   30.7548 C.ar    1  UNL1        0.1125
     13 C           6.8396   -3.4547   29.6907 C.ar    1  UNL1        0.0795
     14 N           7.2317   -4.8667   30.0109 N.ar    1  UNL1       -0.2268
     15 C           7.0257   -5.4067   31.3951 C.ar    1  UNL1        0.1986
     16 N           6.4276   -4.5348   32.4591 N.ar    1  UNL1       -0.2224
     17 C           6.0356   -3.1228   32.1389 C.ar    1  UNL1        0.1031
     18 C           5.4376   -2.2508   33.2028 C.ar    1  UNL1        0.0368
     19 C           2.6534    2.6490   37.1386 C.3     1  UNL1        0.0897
     20 N           3.2514    1.7770   36.0747 N.3     1  UNL1       -0.2686
     21 C           4.1846    0.6653   36.4530 C.3     1  UNL1        0.0938
     22 C           4.7827   -0.2067   35.3889 C.3     1  UNL1        0.1082
     23 N           4.4475    0.0331   33.9467 N.pl3   1  UNL1       -0.3034
     24 C           3.5142    1.1449   33.5684 C.3     1  UNL1        0.1082
     25 C           2.9162    2.0168   34.6324 C.3     1  UNL1        0.0938
     26 C           6.7747   -1.7453   23.0331 C.ar    1  UNL1        0.0666
     27 C           7.1894   -2.8947   22.1632 C.ar    1  UNL1        0.0089
     28 C           6.3006   -3.3456   21.0422 C.ar    1  UNL1        0.0374
     29 C           4.9971   -2.6472   20.7911 C.ar    1  UNL1        0.1480
     30 C           4.5824   -1.4978   21.6611 C.ar    1  UNL1        0.0514
     31 C           5.4712   -1.0468   22.7821 C.ar    1  UNL1        0.0489
     32 N           5.0565    0.1026   23.6521 N.pl3   1  UNL1       -0.3568
     33 H           4.2009    0.5610   23.4874 H       1  UNL1        0.1424
     34 H           5.6398    0.3986   24.3879 H       1  UNL1        0.1424
     35 O           4.1083   -3.0982   19.6701 O.3     1  UNL1       -0.4044
     36 C           4.3994   -4.3829   18.9526 C.3     1  UNL1        0.5753
     37 F           4.6904   -5.6676   18.2351 F       1  UNL1       -0.1328
     38 F           5.2667   -3.6423   17.9784 F       1  UNL1       -0.1328
     39 F           3.5320   -5.1235   19.9269 F       1  UNL1       -0.1328
@<TRIPOS>BOND
     1    19    20    1
     2    20    21    1
     3    21    22    1
     4    22    23    1
     5    23     9    1
     6     9    10   ar
     7    10    11   ar
     8    11    12   ar
     9    12    13   ar
    10    13     1    1
    11     1     2    1
    12     2     3    1
    13     3     4    1
    14     4     5   am
    15     5     6    2
    16     5    26    1
    17    26    27   ar
    18    27    28   ar
    19    28    29   ar
    20    29    35    1
    21    35    36    1
    22    36    37    1
    23    36    38    1
    24    36    39    1
    25    29    30   ar
    26    30    31   ar
    27    31    32    1
    28     4     7    1
    29     7     8    1
    30    13    14   ar
    31    14    15   ar
    32    15    16   ar
    33    16    17   ar
    34    17    18   ar
    35    23    24    1
    36    24    25    1
    37    25    20    1
    38    18     9   ar
    39    17    12   ar
    40     8     1    1
    41    31    26   ar
    42    32    33    1
    43    32    34    1
@<TRIPOS>MOLECULE
*****
 39 43 0 0 0
SMALL
GASTEIGER

@<TRIPOS>ATOM
      1 C           6.1186   -0.9261   31.7772 C.3     1  UNL1        0.0453
      2 C           4.8426   -0.7387   32.5432 C.3     1  UNL1        0.0275
      3 C           4.8252    0.1205   33.7727 C.3     1  UNL1        0.0941
      4 N           6.0837    0.7924   34.2360 N.am    1  UNL1       -0.2760
      5 C           6.0663    1.6516   35.4654 C.2     1  UNL1        0.2502
      6 O           7.3248    2.3235   35.9288 O.2     1  UNL1       -0.2699
      7 C           7.3597    0.6050   33.4700 C.3     1  UNL1        0.0941
      8 C           7.3772   -0.2542   32.2406 C.3     1  UNL1        0.0275
      9 C           3.8937   -0.4920   26.8669 C.ar    1  UNL1        0.0689
     10 C           3.8763    0.3672   28.0963 C.ar    1  UNL1        0.1134
     11 N           4.6237   -0.0639   29.3232 N.ar    1  UNL1       -0.2398
     12 C           5.3886   -1.3542   29.3208 C.ar    1  UNL1        0.1125
     13 C           6.1361   -1.7853   30.5478 C.ar    1  UNL1        0.0795
     14 N           6.9010   -3.0756   30.5454 N.ar    1  UNL1       -0.2268
     15 C           6.9184   -3.9348   29.3159 C.ar    1  UNL1        0.1986
     16 N           6.1710   -3.5037   28.0890 N.ar    1  UNL1       -0.2224
     17 C           5.4061   -2.2134   28.0914 C.ar    1  UNL1        0.1031
     18 C           4.6586   -1.7823   26.8645 C.ar    1  UNL1        0.0368
     19 C           0.9040    1.2323   21.9589 C.3     1  UNL1        0.0897
     20 N           1.6514    0.8012   23.1859 N.3     1  UNL1       -0.2686
     21 C           1.3520    1.4401   24.5096 C.3     1  UNL1        0.0938
     22 C           2.0994    1.0090   25.7366 C.3     1  UNL1        0.1082
     23 N           3.1463   -0.0609   25.6399 N.pl3   1  UNL1       -0.3034
     24 C           3.4457   -0.6998   24.3162 C.3     1  UNL1        0.1082
     25 C           2.6983   -0.2687   23.0892 C.3     1  UNL1        0.0938
     26 C           4.7903    1.8389   36.2314 C.ar    1  UNL1        0.0666
     27 C           4.4672    0.9340   37.3832 C.ar    1  UNL1        0.0089
     28 C           3.1912    1.1214   38.1493 C.ar    1  UNL1        0.0374
     29 C           2.2383    2.2137   37.7635 C.ar    1  UNL1        0.1480
     30 C           2.5614    3.1187   36.6116 C.ar    1  UNL1        0.0514
     31 C           3.8374    2.9313   35.8456 C.ar    1  UNL1        0.0489
     32 N           4.1604    3.8362   34.6938 N.pl3   1  UNL1       -0.3568
     33 H           3.5350    4.5531   34.4406 H       1  UNL1        0.1424
     34 H           4.9979    3.7132   34.1910 H       1  UNL1        0.1424
     35 O           0.9624    2.4010   38.5295 O.3     1  UNL1       -0.4044
     36 C           0.7281    1.6321   39.7959 C.3     1  UNL1        0.5753
     37 F           0.4938    0.8633   41.0624 F       1  UNL1       -0.1328
     38 F           0.2931    0.4422   38.9930 F       1  UNL1       -0.1328
     39 F           1.1631    2.8221   40.5989 F       1  UNL1       -0.1328
@<TRIPOS>BOND
     1    19    20    1
     2    20    21    1
     3    21    22    1
     4    22    23    1
     5    23     9    1
     6     9    10   ar
     7    10    11   ar
     8    11    12   ar
     9    12    13   ar
    10    13     1    1
    11     1     2    1
    12     2     3    1
    13     3     4    1
    14     4     5   am
    15     5     6    2
    16     5    26    1
    17    26    27   ar
    18    27    28   ar
    19    28    29   ar
    20    29    35    1
    21    35    36    1
    22    36    37    1
    23    36    38    1
    24    36    39    1
    25    29    30   ar
    26    30    31   ar
    27    31    32    1
    28     4     7    1
    29     7     8    1
    30    13    14   ar
    31    14    15   ar
    32    15    16   ar
    33    16    17   ar
    34    17    18   ar
    35    23    24    1
    36    24    25    1
    37    25    20    1
    38    18     9   ar
    39    17    12   ar
    40     8     1    1
    41    31    26   ar
    42    32    33    1
    43    32    34    1
@<TRIPOS>MOLECULE
*****
 39 43 0 0 0
SMALL
GASTEIGER

@<TRIPOS>ATOM
      1 C           1.9630    2.0993   24.4857 C.3     1  UNL1        0.0453
      2 C           2.0168    0.7428   23.8476 C.3     1  UNL1        0.0275
      3 C           2.8787    0.5152   22.6411 C.3     1  UNL1        0.0941
      4 N           3.6867    1.6439   22.0729 N.am    1  UNL1       -0.2760
      5 C           4.5486    1.4162   20.8665 C.2     1  UNL1        0.2502
      6 O           5.3567    2.5450   20.2982 O.2     1  UNL1       -0.2699
      7 C           3.6329    3.0004   22.7110 C.3     1  UNL1        0.0941
      8 C           2.7711    3.2281   23.9173 C.3     1  UNL1        0.0275
      9 C          -3.1155    3.8179   25.1957 C.ar    1  UNL1        0.0689
     10 C          -2.2537    3.5902   23.9893 C.ar    1  UNL1        0.1134
     11 N          -0.8481    3.0933   24.1548 N.ar    1  UNL1       -0.2398
     12 C          -0.3044    2.8240   25.5266 C.ar    1  UNL1        0.1125
     13 C           1.1012    2.3270   25.6920 C.ar    1  UNL1        0.0795
     14 N           1.6449    2.0577   27.0638 N.ar    1  UNL1       -0.2268
     15 C           0.7830    2.2854   28.2702 C.ar    1  UNL1        0.1986
     16 N          -0.6226    2.7824   28.1048 N.ar    1  UNL1       -0.2224
     17 C          -1.1663    3.0517   26.7330 C.ar    1  UNL1        0.1031
     18 C          -2.5718    3.5487   26.5675 C.ar    1  UNL1        0.0368
     19 C          -8.7378    5.8060   24.5341 C.3     1  UNL1        0.0897
     20 N          -7.3323    5.3090   24.6995 N.3     1  UNL1       -0.2686
     21 C          -6.7270    4.4116   23.6610 C.3     1  UNL1        0.0938
     22 C          -5.3214    3.9146   23.8265 C.3     1  UNL1        0.1082
     23 N          -4.5211    4.3150   25.0303 N.pl3   1  UNL1       -0.3034
     24 C          -5.1264    5.2123   26.0687 C.3     1  UNL1        0.1082
     25 C          -6.5319    5.7093   25.9034 C.3     1  UNL1        0.0938
     26 C           4.6024    0.0598   20.2284 C.ar    1  UNL1        0.0666
     27 C           5.2911   -1.0726   20.9307 C.ar    1  UNL1        0.0089
     28 C           5.3449   -2.4291   20.2926 C.ar    1  UNL1        0.0374
     29 C           4.7100   -2.6531   18.9522 C.ar    1  UNL1        0.1480
     30 C           4.0212   -1.5207   18.2499 C.ar    1  UNL1        0.0514
     31 C           3.9674   -0.1642   18.8880 C.ar    1  UNL1        0.0489
     32 N           3.2787    0.9682   18.1857 N.pl3   1  UNL1       -0.3568
     33 H           2.8619    0.8212   17.3060 H       1  UNL1        0.1424
     34 H           3.2434    1.8585   18.6045 H       1  UNL1        0.1424
     35 O           4.7638   -4.0096   18.3141 O.3     1  UNL1       -0.4044
     36 C           4.0959   -5.1774   18.9774 C.3     1  UNL1        0.5753
     37 F           3.4280   -6.3453   19.6407 F       1  UNL1       -0.1328
     38 F           2.9049   -4.3201   19.2878 F       1  UNL1       -0.1328
     39 F           5.2869   -6.0348   18.6670 F       1  UNL1       -0.1328
@<TRIPOS>BOND
     1    19    20    1
     2    20    21    1
     3    21    22    1
     4    22    23    1
     5    23     9    1
     6     9    10   ar
     7    10    11   ar
     8    11    12   ar
     9    12    13   ar
    10    13     1    1
    11     1     2    1
    12     2     3    1
    13     3     4    1
    14     4     5   am
    15     5     6    2
    16     5    26    1
    17    26    27   ar
    18    27    28   ar
    19    28    29   ar
    20    29    35    1
    21    35    36    1
    22    36    37    1
    23    36    38    1
    24    36    39    1
    25    29    30   ar
    26    30    31   ar
    27    31    32    1
    28     4     7    1
    29     7     8    1
    30    13    14   ar
    31    14    15   ar
    32    15    16   ar
    33    16    17   ar
    34    17    18   ar
    35    23    24    1
    36    24    25    1
    37    25    20    1
    38    18     9   ar
    39    17    12   ar
    40     8     1    1
    41    31    26   ar
    42    32    33    1
    43    32    34    1
@<TRIPOS>MOLECULE
*****
 39 43 0 0 0
SMALL
GASTEIGER

@<TRIPOS>ATOM
      1 C           4.3304    1.1182   30.8451 C.3     1  UNL1        0.0453
      2 C           3.5638    0.7260   32.0734 C.3     1  UNL1        0.0275
      3 C           3.7891    1.4576   33.3634 C.3     1  UNL1        0.0941
      4 N           4.7808    2.5812   33.4251 N.am    1  UNL1       -0.2760
      5 C           5.0060    3.3127   34.7151 C.2     1  UNL1        0.2502
      6 O           5.9978    4.4364   34.7769 O.2     1  UNL1       -0.2699
      7 C           5.5474    2.9733   32.1969 C.3     1  UNL1        0.0941
      8 C           5.3222    2.2418   30.9069 C.3     1  UNL1        0.0275
      9 C           6.4304   -3.3600   28.6576 C.ar    1  UNL1        0.0689
     10 C           6.6556   -2.6285   29.9476 C.ar    1  UNL1        0.1134
     11 N           5.8806   -1.3796   30.2467 N.ar    1  UNL1       -0.2398
     12 C           4.8803   -0.8623   29.2559 C.ar    1  UNL1        0.1125
     13 C           4.1052    0.3867   29.5551 C.ar    1  UNL1        0.0795
     14 N           3.1049    0.9040   28.5642 N.ar    1  UNL1       -0.2268
     15 C           2.8797    0.1725   27.2742 C.ar    1  UNL1        0.1986
     16 N           3.6548   -1.0764   26.9750 N.ar    1  UNL1       -0.2224
     17 C           4.6551   -1.5938   27.9659 C.ar    1  UNL1        0.1031
     18 C           5.4302   -2.8426   27.6667 C.ar    1  UNL1        0.0368
     19 C           9.5308   -8.3556   27.4608 C.3     1  UNL1        0.0897
     20 N           8.7557   -7.1068   27.7600 N.3     1  UNL1       -0.2686
     21 C           8.2489   -6.2514   26.6368 C.3     1  UNL1        0.0938
     22 C           7.4738   -5.0025   26.9360 C.3     1  UNL1        0.1082
     23 N           7.2055   -4.6089   28.3583 N.pl3   1  UNL1       -0.3034
     24 C           7.7124   -5.4643   29.4815 C.3     1  UNL1        0.1082
     25 C           8.4874   -6.7131   29.1824 C.3     1  UNL1        0.0938
     26 C           4.2395    2.9206   35.9434 C.ar    1  UNL1        0.0666
     27 C           4.7788    1.8607   36.8575 C.ar    1  UNL1        0.0089
     28 C           4.0122    1.4685   38.0858 C.ar    1  UNL1        0.0374
     29 C           2.7064    2.1364   38.3999 C.ar    1  UNL1        0.1480
     30 C           2.1670    3.1964   37.4858 C.ar    1  UNL1        0.0514
     31 C           2.9336    3.5885   36.2575 C.ar    1  UNL1        0.0489
     32 N           2.3943    4.6484   35.3434 N.pl3   1  UNL1       -0.3568
     33 H           1.5372    5.0868   35.5496 H       1  UNL1        0.1424
     34 H           2.8974    4.9058   34.5373 H       1  UNL1        0.1424
     35 O           1.9398    1.7442   39.6282 O.3     1  UNL1       -0.4044
     36 C           1.2437    0.4169   39.6859 C.3     1  UNL1        0.5753
     37 F           0.5475   -0.9105   39.7436 F       1  UNL1       -0.1328
     38 F           0.0373    1.0211   39.0306 F       1  UNL1       -0.1328
     39 F           2.4500   -0.1874   40.3412 F       1  UNL1       -0.1328
@<TRIPOS>BOND
     1    19    20    1
     2    20    21    1
     3    21    22    1
     4    22    23    1
     5    23     9    1
     6     9    10   ar
     7    10    11   ar
     8    11    12   ar
     9    12    13   ar
    10    13     1    1
    11     1     2    1
    12     2     3    1
    13     3     4    1
    14     4     5   am
    15     5     6    2
    16     5    26    1
    17    26    27   ar
    18    27    28   ar
    19    28    29   ar
    20    29    35    1
    21    35    36    1
    22    36    37    1
    23    36    38    1
    24    36    39    1
    25    29    30   ar
    26    30    31   ar
    27    31    32    1
    28     4     7    1
    29     7     8    1
    30    13    14   ar
    31    14    15   ar
    32    15    16   ar
    33    16    17   ar
    34    17    18   ar
    35    23    24    1
    36    24    25    1
    37    25    20    1
    38    18     9   ar
    39    17    12   ar
    40     8     1    1
    41    31    26   ar
    42    32    33    1
    43    32    34    1
