@<TRIPOS>MOLECULE
*****
 30 34 0 0 0
SMALL
GASTEIGER

@<TRIPOS>ATOM
      1 O         -14.3076   -5.4092   20.0630 O.3     1  UNL1       -0.4725
      2 C         -14.2408   -6.6193   19.1791 C.3     1  UNL1        0.2026
      3 C         -15.2924   -7.6822   19.0585 C.ar    1  UNL1        0.0155
      4 C         -16.6251   -7.8557   19.7247 C.ar    1  UNL1        0.0103
      5 C         -17.4776   -9.0458   19.3978 C.ar    1  UNL1        0.0575
      6 CL        -18.8103   -9.2194   20.0639 Cl      1  UNL1       -0.0823
      7 C         -16.9975  -10.0623   18.4047 C.ar    1  UNL1        0.0111
      8 C         -15.6648   -9.8887   17.7385 C.ar    1  UNL1       -0.0036
      9 C         -14.8123   -8.6987   18.0655 C.ar    1  UNL1       -0.0212
     10 C         -13.4640   -8.2640   17.5723 C.3     1  UNL1        0.0461
     11 C         -13.1108   -6.9789   18.2606 C.3     1  UNL1        0.1066
     12 N         -11.8491   -6.1916   18.0647 N.3     1  UNL1       -0.2703
     13 C         -11.5780   -5.2230   16.9519 C.3     1  UNL1        0.0722
     14 C         -10.1984   -4.6674   17.1466 C.3     1  UNL1        0.0188
     15 C          -9.6168   -5.2926   18.3799 C.3     1  UNL1        0.0188
     16 C         -10.6370   -6.2346   18.9472 C.3     1  UNL1        0.0722
     17 C         -13.3691   -1.3412   18.3837 C.ar    1  UNL1        0.0672
     18 C         -12.4327   -1.9818   19.3650 C.ar    1  UNL1        0.0208
     19 C         -12.7455   -3.3378   19.9247 C.ar    1  UNL1        0.0393
     20 C         -13.9948   -4.0533   19.5033 C.ar    1  UNL1        0.1494
     21 C         -14.9312   -3.4126   18.5220 C.ar    1  UNL1        0.0930
     22 CL        -16.1804   -4.1280   18.1006 Cl      1  UNL1       -0.0790
     23 C         -14.6183   -2.0566   17.9623 C.ar    1  UNL1        0.0320
     24 C         -14.9977    1.4159   19.0125 C.3     1  UNL1        0.0742
     25 C         -13.8048    1.2821   18.1130 C.ar    1  UNL1        0.1473
     26 N         -13.1510    2.3921   17.3446 N.ar    1  UNL1       -0.1333
     27 N         -11.9984    1.8109   16.5807 N.ar    1  UNL1       -0.1333
     28 C         -11.9398    0.3416   16.8769 C.ar    1  UNL1        0.1473
     29 C         -10.9402   -0.6303   16.3234 C.3     1  UNL1        0.0742
     30 N         -13.0562    0.0148   17.8240 N.ar    1  UNL1       -0.2807
@<TRIPOS>BOND
     1    24    25    1
     2    25    26   ar
     3    26    27   ar
     4    27    28   ar
     5    28    29    1
     6    28    30   ar
     7    30    17    1
     8    17    18   ar
     9    18    19   ar
    10    19    20   ar
    11    20     1    1
    12     2     1    1
    13     2     3    1
    14     3     4   ar
    15     4     5   ar
    16     5     6    1
    17     5     7   ar
    18     7     8   ar
    19     8     9   ar
    20     9    10    1
    21    10    11    1
    22    11    12    1
    23    12    13    1
    24    13    14    1
    25    14    15    1
    26    15    16    1
    27    20    21   ar
    28    21    22    1
    29    21    23   ar
    30    30    25   ar
    31    23    17   ar
    32    11     2    1
    33    16    12    1
    34     9     3   ar
@<TRIPOS>MOLECULE
*****
 30 34 0 0 0
SMALL
GASTEIGER

@<TRIPOS>ATOM
      1 O         -14.1706   -5.1640   20.2897 O.3     1  UNL1       -0.4725
      2 C         -14.0509   -6.2996   19.3171 C.3     1  UNL1        0.2026
      3 C         -15.0436   -7.4085   19.1300 C.ar    1  UNL1        0.0155
      4 C         -16.3536   -7.7061   19.7972 C.ar    1  UNL1        0.0103
      5 C         -17.1439   -8.9150   19.3925 C.ar    1  UNL1        0.0575
      6 CL        -18.4540   -9.2126   20.0598 Cl      1  UNL1       -0.0823
      7 C         -16.6241   -9.8265   18.3206 C.ar    1  UNL1        0.0111
      8 C         -15.3140   -9.5290   17.6534 C.ar    1  UNL1       -0.0036
      9 C         -14.5238   -8.3200   18.0581 C.ar    1  UNL1       -0.0212
     10 C         -13.2099   -7.7744   17.5827 C.3     1  UNL1        0.0461
     11 C         -12.9176   -6.5257   18.3608 C.3     1  UNL1        0.1066
     12 N         -11.7050   -5.6559   18.2092 N.3     1  UNL1       -0.2703
     13 C         -10.5444   -5.5883   19.1571 C.3     1  UNL1        0.0722
     14 C          -9.5622   -4.5916   18.6168 C.3     1  UNL1        0.0188
     15 C         -10.1157   -4.0432   17.3351 C.3     1  UNL1        0.0188
     16 C         -11.4401   -4.7010   17.0832 C.3     1  UNL1        0.0722
     17 C         -16.4171   -1.4397   19.1353 C.ar    1  UNL1        0.0672
     18 C         -17.1635   -2.7128   19.4042 C.ar    1  UNL1        0.0208
     19 C         -16.4146   -3.9542   19.7890 C.ar    1  UNL1        0.0393
     20 C         -14.9194   -3.9226   19.9049 C.ar    1  UNL1        0.1494
     21 C         -14.1731   -2.6495   19.6360 C.ar    1  UNL1        0.0930
     22 CL        -12.6779   -2.6179   19.7519 Cl      1  UNL1       -0.0790
     23 C         -14.9219   -1.4081   19.2512 C.ar    1  UNL1        0.0320
     24 C         -17.1611    1.0436   21.1174 C.3     1  UNL1        0.0742
     25 C         -17.5080    0.9431   19.6615 C.ar    1  UNL1        0.1473
     26 N         -18.2577    1.9665   18.8611 N.ar    1  UNL1       -0.1333
     27 N         -18.3790    1.4575   17.4554 N.ar    1  UNL1       -0.1333
     28 C         -17.7043    0.1196   17.3869 C.ar    1  UNL1        0.1473
     29 C         -17.5884   -0.7482   16.1688 C.3     1  UNL1        0.0742
     30 N         -17.1660   -0.1983   18.7504 N.ar    1  UNL1       -0.2807
@<TRIPOS>BOND
     1    24    25    1
     2    25    26   ar
     3    26    27   ar
     4    27    28   ar
     5    28    29    1
     6    28    30   ar
     7    30    17    1
     8    17    18   ar
     9    18    19   ar
    10    19    20   ar
    11    20     1    1
    12     2     1    1
    13     2     3    1
    14     3     4   ar
    15     4     5   ar
    16     5     6    1
    17     5     7   ar
    18     7     8   ar
    19     8     9   ar
    20     9    10    1
    21    10    11    1
    22    11    12    1
    23    12    13    1
    24    13    14    1
    25    14    15    1
    26    15    16    1
    27    20    21   ar
    28    21    22    1
    29    21    23   ar
    30    30    25   ar
    31    23    17   ar
    32    11     2    1
    33    16    12    1
    34     9     3   ar
@<TRIPOS>MOLECULE
*****
 30 34 0 0 0
SMALL
GASTEIGER

@<TRIPOS>ATOM
      1 O         -13.9376   -2.3885   18.3873 O.3     1  UNL1       -0.4725
      2 C         -12.6010   -2.3337   17.7086 C.3     1  UNL1        0.2026
      3 C         -11.5725   -3.4256   17.6974 C.ar    1  UNL1        0.0155
      4 C         -11.5567   -4.7958   18.3073 C.ar    1  UNL1        0.0103
      5 C         -10.3626   -5.6848   18.1236 C.ar    1  UNL1        0.0575
      6 CL        -10.3467   -7.0551   18.7335 Cl      1  UNL1       -0.0823
      7 C          -9.1842   -5.2034   17.3300 C.ar    1  UNL1        0.0111
      8 C          -9.2000   -3.8331   16.7201 C.ar    1  UNL1       -0.0036
      9 C         -10.3942   -2.9442   16.9038 C.ar    1  UNL1       -0.0212
     10 C         -10.6944   -1.5549   16.4245 C.3     1  UNL1        0.0461
     11 C         -12.0584   -1.1776   16.9219 C.3     1  UNL1        0.1066
     12 N         -12.7569    0.1268   16.6758 N.3     1  UNL1       -0.2703
     13 C         -14.0954    0.3004   16.0213 C.3     1  UNL1        0.0722
     14 C         -14.4054    1.7675   15.9820 C.3     1  UNL1        0.0188
     15 C         -13.2585    2.5006   16.6123 C.3     1  UNL1        0.0188
     16 C         -12.2398    1.4866   17.0411 C.3     1  UNL1        0.0722
     17 C         -16.1054   -6.3128   18.7748 C.ar    1  UNL1        0.0672
     18 C         -16.0213   -5.6309   17.4414 C.ar    1  UNL1        0.0208
     19 C         -15.2987   -4.3228   17.3122 C.ar    1  UNL1        0.0393
     20 C         -14.6601   -3.6965   18.5165 C.ar    1  UNL1        0.1494
     21 C         -14.7443   -4.3785   19.8499 C.ar    1  UNL1        0.0930
     22 CL        -14.1058   -3.7523   21.0541 Cl      1  UNL1       -0.0790
     23 C         -15.4669   -5.6866   19.9790 C.ar    1  UNL1        0.0320
     24 C         -19.1901   -6.7107   19.7624 C.3     1  UNL1        0.0742
     25 C         -18.2458   -7.8039   19.3579 C.ar    1  UNL1        0.1473
     26 N         -18.5538   -9.2718   19.3363 N.ar    1  UNL1       -0.1333
     27 N         -17.3262   -9.9960   18.8690 N.ar    1  UNL1       -0.1333
     28 C         -16.2596   -8.9758   18.6018 C.ar    1  UNL1        0.1473
     29 C         -14.8687   -9.2604   18.1174 C.3     1  UNL1        0.0742
     30 N         -16.8280   -7.6209   18.9039 N.ar    1  UNL1       -0.2807
@<TRIPOS>BOND
     1    24    25    1
     2    25    26   ar
     3    26    27   ar
     4    27    28   ar
     5    28    29    1
     6    28    30   ar
     7    30    17    1
     8    17    18   ar
     9    18    19   ar
    10    19    20   ar
    11    20     1    1
    12     2     1    1
    13     2     3    1
    14     3     4   ar
    15     4     5   ar
    16     5     6    1
    17     5     7   ar
    18     7     8   ar
    19     8     9   ar
    20     9    10    1
    21    10    11    1
    22    11    12    1
    23    12    13    1
    24    13    14    1
    25    14    15    1
    26    15    16    1
    27    20    21   ar
    28    21    22    1
    29    21    23   ar
    30    30    25   ar
    31    23    17   ar
    32    11     2    1
    33    16    12    1
    34     9     3   ar
@<TRIPOS>MOLECULE
*****
 30 34 0 0 0
SMALL
GASTEIGER

@<TRIPOS>ATOM
      1 O           0.0780    0.8124   21.7029 O.3     1  UNL1       -0.4725
      2 C           0.0672    2.1503   22.3812 C.3     1  UNL1        0.2026
      3 C          -0.0089    2.3884   23.8602 C.ar    1  UNL1        0.0155
      4 C          -0.0910    1.4473   25.0254 C.ar    1  UNL1        0.0103
      5 C          -0.1567    1.9881   26.4229 C.ar    1  UNL1        0.0575
      6 CL         -0.2387    1.0470   27.5882 Cl      1  UNL1       -0.0823
      7 C          -0.1404    3.4699   26.6553 C.ar    1  UNL1        0.0111
      8 C          -0.0584    4.4109   25.4901 C.ar    1  UNL1       -0.0036
      9 C           0.0074    3.8702   24.0926 C.ar    1  UNL1       -0.0212
     10 C           0.0935    4.5479   22.7572 C.3     1  UNL1        0.0461
     11 C           0.1305    3.4849   21.6994 C.3     1  UNL1        0.1066
     12 N           0.2158    3.7160   20.2198 N.3     1  UNL1       -0.2703
     13 C          -0.8955    3.5209   19.2314 C.3     1  UNL1        0.0722
     14 C          -0.3708    3.8671   17.8695 C.3     1  UNL1        0.0188
     15 C           1.0649    4.2763   18.0162 C.3     1  UNL1        0.0188
     16 C           1.4274    4.1829   19.4687 C.3     1  UNL1        0.0722
     17 C           3.6623   -0.4631   19.2997 C.ar    1  UNL1        0.0672
     18 C           2.4254    0.0208   18.6024 C.ar    1  UNL1        0.0208
     19 C           1.2307    0.4460   19.4036 C.ar    1  UNL1        0.0393
     20 C           1.2727    0.3873   20.9019 C.ar    1  UNL1        0.1494
     21 C           2.5096   -0.0966   21.5990 C.ar    1  UNL1        0.0930
     22 CL          2.5518   -0.1553   23.0973 Cl      1  UNL1       -0.0790
     23 C           3.7044   -0.5218   20.7979 C.ar    1  UNL1        0.0320
     24 C           5.7723    1.5242   17.8004 C.3     1  UNL1        0.0742
     25 C           5.8269    0.0252   17.8094 C.ar    1  UNL1        0.1473
     26 N           6.8610   -0.8235   17.1308 N.ar    1  UNL1       -0.1333
     27 N           6.5302   -2.2615   17.4006 N.ar    1  UNL1       -0.1333
     28 C           5.2917   -2.3015   18.2459 C.ar    1  UNL1        0.1473
     29 C           4.6079   -3.5377   18.7501 C.3     1  UNL1        0.0742
     30 N           4.8571   -0.8882   18.4985 N.ar    1  UNL1       -0.2807
@<TRIPOS>BOND
     1    24    25    1
     2    25    26   ar
     3    26    27   ar
     4    27    28   ar
     5    28    29    1
     6    28    30   ar
     7    30    17    1
     8    17    18   ar
     9    18    19   ar
    10    19    20   ar
    11    20     1    1
    12     2     1    1
    13     2     3    1
    14     3     4   ar
    15     4     5   ar
    16     5     6    1
    17     5     7   ar
    18     7     8   ar
    19     8     9   ar
    20     9    10    1
    21    10    11    1
    22    11    12    1
    23    12    13    1
    24    13    14    1
    25    14    15    1
    26    15    16    1
    27    20    21   ar
    28    21    22    1
    29    21    23   ar
    30    30    25   ar
    31    23    17   ar
    32    11     2    1
    33    16    12    1
    34     9     3   ar
@<TRIPOS>MOLECULE
*****
 30 34 0 0 0
SMALL
GASTEIGER

@<TRIPOS>ATOM
      1 O         -14.8989   -2.7855   17.8406 O.3     1  UNL1       -0.4725
      2 C         -13.4401   -2.5911   18.1306 C.3     1  UNL1        0.2026
      3 C         -12.4369   -3.6794   18.3739 C.ar    1  UNL1        0.0155
      4 C         -12.5640   -5.1737   18.4016 C.ar    1  UNL1        0.0103
      5 C         -11.3593   -6.0239   18.6774 C.ar    1  UNL1        0.0575
      6 CL        -11.4864   -7.5183   18.7051 Cl      1  UNL1       -0.0823
      7 C         -10.0276   -5.3797   18.9254 C.ar    1  UNL1        0.0111
      8 C          -9.9005   -3.8853   18.8977 C.ar    1  UNL1       -0.0036
      9 C         -11.1052   -3.0352   18.6219 C.ar    1  UNL1       -0.0212
     10 C         -11.2854   -1.5488   18.5319 C.3     1  UNL1        0.0461
     11 C         -12.7284   -1.2743   18.2283 C.3     1  UNL1        0.1066
     12 N         -13.3506    0.0793   18.0530 N.3     1  UNL1       -0.2703
     13 C         -12.8509    1.1694   17.1519 C.3     1  UNL1        0.0722
     14 C         -13.7731    2.3443   17.2901 C.3     1  UNL1        0.0188
     15 C         -14.8428    1.9803   18.2767 C.3     1  UNL1        0.0188
     16 C         -14.5817    0.5805   18.7482 C.3     1  UNL1        0.0722
     17 C         -16.7100   -6.8986   18.0693 C.ar    1  UNL1        0.0672
     18 C         -16.3371   -6.3163   16.7381 C.ar    1  UNL1        0.0208
     19 C         -15.7334   -4.9453   16.6620 C.ar    1  UNL1        0.0393
     20 C         -15.5026   -4.1565   17.9168 C.ar    1  UNL1        0.1494
     21 C         -15.8755   -4.7389   19.2479 C.ar    1  UNL1        0.0930
     22 CL        -15.6447   -3.9503   20.5028 Cl      1  UNL1       -0.0790
     23 C         -16.4792   -6.1099   19.3241 C.ar    1  UNL1        0.0320
     24 C         -15.0717   -9.7206   18.0309 C.3     1  UNL1        0.0742
     25 C         -16.5608   -9.5668   18.1278 C.ar    1  UNL1        0.1473
     26 N         -17.5580  -10.6831   18.2242 N.ar    1  UNL1       -0.1333
     27 N         -18.9274  -10.0758   18.3013 N.ar    1  UNL1       -0.1333
     28 C         -18.7764   -8.5842   18.2527 C.ar    1  UNL1        0.1473
     29 C         -19.8923   -7.5830   18.3026 C.3     1  UNL1        0.0742
     30 N         -17.3137   -8.2696   18.1455 N.ar    1  UNL1       -0.2807
@<TRIPOS>BOND
     1    24    25    1
     2    25    26   ar
     3    26    27   ar
     4    27    28   ar
     5    28    29    1
     6    28    30   ar
     7    30    17    1
     8    17    18   ar
     9    18    19   ar
    10    19    20   ar
    11    20     1    1
    12     2     1    1
    13     2     3    1
    14     3     4   ar
    15     4     5   ar
    16     5     6    1
    17     5     7   ar
    18     7     8   ar
    19     8     9   ar
    20     9    10    1
    21    10    11    1
    22    11    12    1
    23    12    13    1
    24    13    14    1
    25    14    15    1
    26    15    16    1
    27    20    21   ar
    28    21    22    1
    29    21    23   ar
    30    30    25   ar
    31    23    17   ar
    32    11     2    1
    33    16    12    1
    34     9     3   ar
@<TRIPOS>MOLECULE
*****
 30 34 0 0 0
SMALL
GASTEIGER

@<TRIPOS>ATOM
      1 O           3.3081    1.2091   24.8212 O.3     1  UNL1       -0.4725
      2 C           1.8987    1.3233   25.3219 C.3     1  UNL1        0.2026
      3 C           1.4114    0.9222   26.6826 C.ar    1  UNL1        0.0155
      4 C           2.1167    0.3324   27.8678 C.ar    1  UNL1        0.0103
      5 C           1.3513    0.0301   29.1219 C.ar    1  UNL1        0.0575
      6 CL          2.0566   -0.5597   30.3072 Cl      1  UNL1       -0.0823
      7 C          -0.1192    0.3175   29.1909 C.ar    1  UNL1        0.0111
      8 C          -0.8245    0.9073   28.0057 C.ar    1  UNL1       -0.0036
      9 C          -0.0592    1.2096   26.7516 C.ar    1  UNL1       -0.0212
     10 C          -0.4807    1.7883   25.4334 C.3     1  UNL1        0.0461
     11 C           0.7294    1.8585   24.5498 C.3     1  UNL1        0.1066
     12 N           0.7641    2.3736   23.1415 N.3     1  UNL1       -0.2703
     13 C           0.4075    1.5961   21.9093 C.3     1  UNL1        0.0722
     14 C           0.5844    2.4986   20.7243 C.3     1  UNL1        0.0188
     15 C           1.0503    3.8339   21.2241 C.3     1  UNL1        0.0188
     16 C           1.1613    3.7567   22.7180 C.3     1  UNL1        0.0722
     17 C           4.1036   -0.3476   20.6746 C.ar    1  UNL1        0.0672
     18 C           3.4171   -1.2192   21.6840 C.ar    1  UNL1        0.0208
     19 C           3.1519   -0.7003   23.0662 C.ar    1  UNL1        0.0393
     20 C           3.5733    0.6902   23.4390 C.ar    1  UNL1        0.1494
     21 C           4.2598    1.5618   22.4296 C.ar    1  UNL1        0.0930
     22 CL          4.6811    2.9523   22.8022 Cl      1  UNL1       -0.0790
     23 C           4.5249    1.0429   21.0474 C.ar    1  UNL1        0.0320
     24 C           2.4221    0.4154   17.9840 C.3     1  UNL1        0.0742
     25 C           3.5959   -0.5158   18.0557 C.ar    1  UNL1        0.1473
     26 N           4.2028   -1.2598   16.9032 N.ar    1  UNL1       -0.1333
     27 N           5.3508   -2.0702   17.4278 N.ar    1  UNL1       -0.1333
     28 C           5.4534   -1.8272   18.9044 C.ar    1  UNL1        0.1473
     29 C           6.4633   -2.4377   19.8304 C.3     1  UNL1        0.0742
     30 N           4.3688   -0.8665   19.2924 N.ar    1  UNL1       -0.2807
@<TRIPOS>BOND
     1    24    25    1
     2    25    26   ar
     3    26    27   ar
     4    27    28   ar
     5    28    29    1
     6    28    30   ar
     7    30    17    1
     8    17    18   ar
     9    18    19   ar
    10    19    20   ar
    11    20     1    1
    12     2     1    1
    13     2     3    1
    14     3     4   ar
    15     4     5   ar
    16     5     6    1
    17     5     7   ar
    18     7     8   ar
    19     8     9   ar
    20     9    10    1
    21    10    11    1
    22    11    12    1
    23    12    13    1
    24    13    14    1
    25    14    15    1
    26    15    16    1
    27    20    21   ar
    28    21    22    1
    29    21    23   ar
    30    30    25   ar
    31    23    17   ar
    32    11     2    1
    33    16    12    1
    34     9     3   ar
@<TRIPOS>MOLECULE
*****
 30 34 0 0 0
SMALL
GASTEIGER

@<TRIPOS>ATOM
      1 O           6.6715   -2.5343   23.5155 O.3     1  UNL1       -0.4725
      2 C           7.4114   -3.7200   22.9709 C.3     1  UNL1        0.2026
      3 C           7.7242   -4.9830   23.7172 C.ar    1  UNL1        0.0155
      4 C           7.4227   -5.4208   25.1198 C.ar    1  UNL1        0.0103
      5 C           7.8715   -6.7702   25.5971 C.ar    1  UNL1        0.0575
      6 CL          7.5700   -7.2080   26.9998 Cl      1  UNL1       -0.0823
      7 C           8.6218   -7.6816   24.6719 C.ar    1  UNL1        0.0111
      8 C           8.9234   -7.2438   23.2692 C.ar    1  UNL1       -0.0036
      9 C           8.4745   -5.8945   22.7919 C.ar    1  UNL1       -0.0212
     10 C           8.6255   -5.1948   21.4737 C.3     1  UNL1        0.0461
     11 C           7.9685   -3.8509   21.5843 C.3     1  UNL1        0.1066
     12 N           7.8834   -2.8191   20.4989 N.3     1  UNL1       -0.2703
     13 C           6.8205   -2.7348   19.4439 C.3     1  UNL1        0.0722
     14 C           7.1265   -1.5540   18.5709 C.3     1  UNL1        0.0188
     15 C           8.3786   -0.9085   19.0864 C.3     1  UNL1        0.0188
     16 C           8.8464   -1.6904   20.2779 C.3     1  UNL1        0.0722
     17 C           3.5148   -0.5137   21.0251 C.ar    1  UNL1        0.0672
     18 C           3.3285   -1.9366   21.4619 C.ar    1  UNL1        0.0208
     19 C           4.3808   -2.6101   22.2921 C.ar    1  UNL1        0.0393
     20 C           5.6193   -1.8608   22.6854 C.ar    1  UNL1        0.1494
     21 C           5.8055   -0.4379   22.2485 C.ar    1  UNL1        0.0930
     22 CL          7.0440    0.3114   22.6418 Cl      1  UNL1       -0.0790
     23 C           4.7532    0.2356   21.4184 C.ar    1  UNL1        0.0320
     24 C           3.4553   -0.3513   17.7664 C.3     1  UNL1        0.0742
     25 C           2.4351    0.2345   18.6972 C.ar    1  UNL1        0.1473
     26 N           1.2085    0.9977   18.2934 N.ar    1  UNL1       -0.1333
     27 N           0.4779    1.3947   19.5418 N.ar    1  UNL1       -0.1333
     28 C           1.2528    0.8769   20.7170 C.ar    1  UNL1        0.1473
     29 C           0.8831    1.0463   22.1609 C.3     1  UNL1        0.0742
     30 N           2.4625    0.1598   20.1950 N.ar    1  UNL1       -0.2807
@<TRIPOS>BOND
     1    24    25    1
     2    25    26   ar
     3    26    27   ar
     4    27    28   ar
     5    28    29    1
     6    28    30   ar
     7    30    17    1
     8    17    18   ar
     9    18    19   ar
    10    19    20   ar
    11    20     1    1
    12     2     1    1
    13     2     3    1
    14     3     4   ar
    15     4     5   ar
    16     5     6    1
    17     5     7   ar
    18     7     8   ar
    19     8     9   ar
    20     9    10    1
    21    10    11    1
    22    11    12    1
    23    12    13    1
    24    13    14    1
    25    14    15    1
    26    15    16    1
    27    20    21   ar
    28    21    22    1
    29    21    23   ar
    30    30    25   ar
    31    23    17   ar
    32    11     2    1
    33    16    12    1
    34     9     3   ar
@<TRIPOS>MOLECULE
*****
 30 34 0 0 0
SMALL
GASTEIGER

@<TRIPOS>ATOM
      1 O          -1.1170    4.4448   23.4466 O.3     1  UNL1       -0.4725
      2 C          -2.4256    4.1012   22.7988 C.3     1  UNL1        0.2026
      3 C          -3.7858    4.3015   23.3986 C.ar    1  UNL1        0.0155
      4 C          -4.2283    4.8593   24.7188 C.ar    1  UNL1        0.0103
      5 C          -5.6896    4.9366   25.0484 C.ar    1  UNL1        0.0575
      6 CL         -6.1322    5.4944   26.3686 Cl      1  UNL1       -0.0823
      7 C          -6.7083    4.4561   24.0577 C.ar    1  UNL1        0.0111
      8 C          -6.2658    3.8983   22.7375 C.ar    1  UNL1       -0.0036
      9 C          -4.8045    3.8210   22.4080 C.ar    1  UNL1       -0.0212
     10 C          -4.0739    3.3238   21.1960 C.3     1  UNL1        0.0461
     11 C          -2.6036    3.4969   21.4375 C.3     1  UNL1        0.1066
     12 N          -1.5044    3.1302   20.4850 N.3     1  UNL1       -0.2703
     13 C          -0.4660    2.0700   20.7030 C.3     1  UNL1        0.0722
     14 C           0.4296    2.0439   19.5000 C.3     1  UNL1        0.0188
     15 C          -0.0553    3.0880   18.5384 C.3     1  UNL1        0.0188
     16 C          -1.2506    3.7594   19.1472 C.3     1  UNL1        0.0722
     17 C           0.4139    1.9686   26.8780 C.ar    1  UNL1        0.0672
     18 C           0.3571    1.3838   25.4978 C.ar    1  UNL1        0.0208
     19 C          -0.1533    2.2093   24.3541 C.ar    1  UNL1        0.0393
     20 C          -0.6067    3.6195   24.5904 C.ar    1  UNL1        0.1494
     21 C          -0.5498    4.2042   25.9706 C.ar    1  UNL1        0.0930
     22 CL         -1.0033    5.6143   26.2070 Cl      1  UNL1       -0.0790
     23 C          -0.0395    3.3787   27.1143 C.ar    1  UNL1        0.0320
     24 C          -1.3695   -0.0156   28.7572 C.3     1  UNL1        0.0742
     25 C           0.1046    0.2311   28.8856 C.ar    1  UNL1        0.1473
     26 N           1.0176   -0.3909   29.9002 N.ar    1  UNL1       -0.1333
     27 N           2.4016    0.1368   29.6635 N.ar    1  UNL1       -0.1333
     28 C           2.3440    1.0849   28.5025 C.ar    1  UNL1        0.1473
     29 C           3.5026    1.8419   27.9239 C.3     1  UNL1        0.0742
     30 N           0.9243    1.1432   28.0218 N.ar    1  UNL1       -0.2807
@<TRIPOS>BOND
     1    24    25    1
     2    25    26   ar
     3    26    27   ar
     4    27    28   ar
     5    28    29    1
     6    28    30   ar
     7    30    17    1
     8    17    18   ar
     9    18    19   ar
    10    19    20   ar
    11    20     1    1
    12     2     1    1
    13     2     3    1
    14     3     4   ar
    15     4     5   ar
    16     5     6    1
    17     5     7   ar
    18     7     8   ar
    19     8     9   ar
    20     9    10    1
    21    10    11    1
    22    11    12    1
    23    12    13    1
    24    13    14    1
    25    14    15    1
    26    15    16    1
    27    20    21   ar
    28    21    22    1
    29    21    23   ar
    30    30    25   ar
    31    23    17   ar
    32    11     2    1
    33    16    12    1
    34     9     3   ar
@<TRIPOS>MOLECULE
*****
 30 34 0 0 0
SMALL
GASTEIGER

@<TRIPOS>ATOM
      1 O          -7.4527  -18.7005   23.2607 O.3     1  UNL1       -0.4725
      2 C          -8.5229  -17.6622   23.0976 C.3     1  UNL1        0.2026
      3 C          -9.5685  -17.6351   22.0224 C.ar    1  UNL1        0.0155
      4 C          -9.8496  -18.5561   20.8723 C.ar    1  UNL1        0.0103
      5 C         -10.9894  -18.2668   19.9411 C.ar    1  UNL1        0.0575
      6 CL        -11.2705  -19.1878   18.7910 Cl      1  UNL1       -0.0823
      7 C         -11.8481  -17.0566   20.1600 C.ar    1  UNL1        0.0111
      8 C         -11.5670  -16.1356   21.3101 C.ar    1  UNL1       -0.0036
      9 C         -10.4272  -16.4248   22.2413 C.ar    1  UNL1       -0.0212
     10 C          -9.9123  -15.7040   23.4518 C.3     1  UNL1        0.0461
     11 C          -8.7354  -16.4687   23.9810 C.3     1  UNL1        0.1066
     12 N          -7.9150  -16.1039   25.1827 N.3     1  UNL1       -0.2703
     13 C          -6.5745  -15.4311   25.1639 C.3     1  UNL1        0.0722
     14 C          -6.1221  -15.2593   26.5837 C.3     1  UNL1        0.0188
     15 C          -7.1830  -15.8260   27.4800 C.3     1  UNL1        0.0188
     16 C          -8.2911  -16.3480   26.6141 C.3     1  UNL1        0.0722
     17 C          -3.6008  -18.3423   20.9620 C.ar    1  UNL1        0.0672
     18 C          -3.7843  -17.5809   22.2413 C.ar    1  UNL1        0.0208
     19 C          -5.0683  -17.7003   23.0076 C.ar    1  UNL1        0.0393
     20 C          -6.1688  -18.5811   22.4945 C.ar    1  UNL1        0.1494
     21 C          -5.9853  -19.3425   21.2152 C.ar    1  UNL1        0.0930
     22 CL         -7.0857  -20.2232   20.7021 Cl      1  UNL1       -0.0790
     23 C          -4.7013  -19.2230   20.4490 C.ar    1  UNL1        0.0320
     24 C          -0.6655  -19.3523   21.9685 C.3     1  UNL1        0.0742
     25 C          -0.9676  -18.6871   20.6584 C.ar    1  UNL1        0.1473
     26 N           0.0265  -18.3694   19.5809 N.ar    1  UNL1       -0.1333
     27 N          -0.7084  -17.7088   18.4524 N.ar    1  UNL1       -0.1333
     28 C          -2.1566  -17.6182   18.8324 C.ar    1  UNL1        0.1473
     29 C          -3.2524  -17.0268   17.9959 C.3     1  UNL1        0.0742
     30 N          -2.3168  -18.2229   20.1958 N.ar    1  UNL1       -0.2807
@<TRIPOS>BOND
     1    24    25    1
     2    25    26   ar
     3    26    27   ar
     4    27    28   ar
     5    28    29    1
     6    28    30   ar
     7    30    17    1
     8    17    18   ar
     9    18    19   ar
    10    19    20   ar
    11    20     1    1
    12     2     1    1
    13     2     3    1
    14     3     4   ar
    15     4     5   ar
    16     5     6    1
    17     5     7   ar
    18     7     8   ar
    19     8     9   ar
    20     9    10    1
    21    10    11    1
    22    11    12    1
    23    12    13    1
    24    13    14    1
    25    14    15    1
    26    15    16    1
    27    20    21   ar
    28    21    22    1
    29    21    23   ar
    30    30    25   ar
    31    23    17   ar
    32    11     2    1
    33    16    12    1
    34     9     3   ar
