@<TRIPOS>MOLECULE
*****
 44 49 0 0 0
SMALL
GASTEIGER

@<TRIPOS>ATOM
      1 C           2.3354    0.9748   28.3586 C.2     1  UNL1        0.3752
      2 N           3.0344    0.6260   29.6391 N.2     1  UNL1       -0.0308
      3 C           2.4225    1.4425   30.7386 C.2     1  UNL1        0.2333
      4 C           2.7070    1.5191   32.2093 C.2     1  UNL1        0.0645
      5 C           1.9144    2.4493   33.0791 C.2     1  UNL1        0.0506
      6 C           0.8373    3.3028   32.4781 C.2     1  UNL1       -0.0025
      7 C           0.5527    3.2262   31.0073 C.3     1  UNL1        0.1050
      8 C           1.3454    2.2961   30.1376 C.2     1  UNL1        0.2179
      9 N           1.2916    2.0070   28.6667 N.2     1  UNL1       -0.0347
     10 C           3.2155   -0.7690   24.3046 C.ar    1  UNL1       -0.0225
     11 C           2.2418    0.3641   24.4384 C.ar    1  UNL1       -0.0040
     12 C           1.9484    0.9454   25.7897 C.ar    1  UNL1        0.0074
     13 C           2.6288    0.3935   27.0073 C.ar    1  UNL1        0.0884
     14 C           3.6025   -0.7396   26.8736 C.ar    1  UNL1        0.0074
     15 C           3.8958   -1.3208   25.5222 C.ar    1  UNL1       -0.0040
     16 C           4.0956   -2.5128   20.2507 C.3     1  UNL1        0.0056
     17 C           4.7516   -3.0856   21.4720 C.3     1  UNL1        0.0007
     18 C           4.4582   -2.5043   22.8233 C.3     1  UNL1        0.0044
     19 C           3.5089   -1.3503   22.9533 C.3     1  UNL1        0.0223
     20 C           2.8529   -0.7775   21.7320 C.3     1  UNL1        0.0044
     21 C           3.1463   -1.3588   20.3807 C.3     1  UNL1        0.0007
     22 C           4.3890   -3.0941   18.8994 C.3     1  UNL1        0.0417
     23 O           6.5232   -2.4210   17.5795 O.co2   1  UNL1       -0.5492
     24 C           5.0573   -2.2550   17.8510 C.2     1  UNL1        0.0503
     25 O           4.2598   -1.2498   17.0741 O.co2   1  UNL1       -0.5492
     26 N           2.1989    2.5259   34.5499 N.am    1  UNL1       -0.2792
     27 C           3.3104    3.3977   35.0544 C.2     1  UNL1        0.2703
     28 O           4.1375    4.1929   34.0880 O.2     1  UNL1       -0.2681
     29 H           1.6561    2.0041   35.1841 H       1  UNL1        0.1552
     30 C           3.5949    3.4744   36.5251 C.ar    1  UNL1        0.1763
     31 N           3.5353    4.7115   37.3713 N.ar    1  UNL1       -0.2037
     32 C           3.8925    4.3291   38.7771 C.ar    1  UNL1        0.2298
     33 O           4.1730    2.8557   38.7997 O.2     1  UNL1       -0.4304
     34 C           3.9890    2.3275   37.4079 C.ar    1  UNL1        0.2404
     35 C           3.9579    5.2572   39.9537 C.ar    1  UNL1        0.0536
     36 C           3.9870    4.7014   41.3466 C.ar    1  UNL1        0.0046
     37 C           4.0523    5.6295   42.5233 C.ar    1  UNL1        0.0002
     38 C           4.0886    7.1134   42.3069 C.ar    1  UNL1        0.0000
     39 C           4.0595    7.6692   40.9140 C.ar    1  UNL1        0.0002
     40 C           3.9942    6.7411   39.7374 C.ar    1  UNL1        0.0046
     41 C           4.1678    0.9025   36.9749 C.3     1  UNL1        0.4528
     42 F           4.3466   -0.5224   36.5419 F       1  UNL1       -0.1631
     43 F           2.9301    0.5178   37.7298 F       1  UNL1       -0.1631
     44 F           5.4056    1.2872   36.2200 F       1  UNL1       -0.1631
@<TRIPOS>UNITY_ATOM_ATTR
23 1
charge -1
@<TRIPOS>BOND
     1    23    24   ar
     2    24    25   ar
     3    24    22    1
     4    22    16    1
     5    16    17    1
     6    17    18    1
     7    18    19    1
     8    19    10    1
     9    10    11   ar
    10    11    12   ar
    11    12    13   ar
    12    13     1    1
    13     1     2    2
    14     2     3    1
    15     3     4    2
    16     4     5    1
    17     5    26    1
    18    26    27   am
    19    27    28    2
    20    27    30    1
    21    30    31   ar
    22    31    32   ar
    23    32    35    1
    24    35    36   ar
    25    36    37   ar
    26    37    38   ar
    27    38    39   ar
    28    39    40   ar
    29    32    33   ar
    30    33    34   ar
    31    34    41    1
    32    41    42    1
    33    41    43    1
    34    41    44    1
    35     5     6    2
    36     6     7    1
    37     7     8    1
    38     8     9    2
    39    13    14   ar
    40    14    15   ar
    41    19    20    1
    42    20    21    1
    43    21    16    1
    44    15    10   ar
    45     9     1    1
    46     8     3    1
    47    34    30   ar
    48    40    35   ar
    49    26    29    1
@<TRIPOS>MOLECULE
*****
 44 49 0 0 0
SMALL
GASTEIGER

@<TRIPOS>ATOM
      1 C           6.3387   -2.0767   32.4250 C.2     1  UNL1        0.3752
      2 N           6.0698   -1.6037   31.0272 N.2     1  UNL1       -0.0308
      3 C           6.2581   -2.7674   30.0996 C.2     1  UNL1        0.2333
      4 C           6.1285   -2.8954   28.6108 C.2     1  UNL1        0.0645
      5 C           6.3841   -4.2158   27.9465 C.2     1  UNL1        0.0506
      6 C           6.7693   -5.4081   28.7711 C.2     1  UNL1       -0.0025
      7 C           6.8989   -5.2801   30.2600 C.3     1  UNL1        0.1050
      8 C           6.6433   -3.9597   30.9243 C.2     1  UNL1        0.2179
      9 N           6.6931   -3.5328   32.3614 N.2     1  UNL1       -0.0347
     10 C           6.1204    0.4320   36.1544 C.ar    1  UNL1       -0.0225
     11 C           4.8936   -0.2665   35.6475 C.ar    1  UNL1       -0.0040
     12 C           4.9663   -1.1027   34.4044 C.ar    1  UNL1        0.0074
     13 C           6.2659   -1.2405   33.6681 C.ar    1  UNL1        0.0884
     14 C           7.4927   -0.5419   34.1750 C.ar    1  UNL1        0.0074
     15 C           7.4199    0.2943   35.4181 C.ar    1  UNL1       -0.0040
     16 C           5.9021    2.9408   39.8838 C.3     1  UNL1        0.0056
     17 C           4.6411    2.4708   39.2212 C.3     1  UNL1        0.0007
     18 C           4.7139    1.6346   37.9780 C.3     1  UNL1        0.0044
     19 C           6.0476    1.2683   37.3975 C.3     1  UNL1        0.0223
     20 C           7.3085    1.7383   38.0602 C.3     1  UNL1        0.0044
     21 C           7.2358    2.5745   39.3033 C.3     1  UNL1        0.0007
     22 C           5.8293    3.7770   41.1270 C.3     1  UNL1        0.0417
     23 O           5.2701    6.2822   40.7253 O.co2   1  UNL1       -0.5492
     24 C           4.8623    4.9210   41.2058 C.2     1  UNL1        0.0503
     25 O           3.4875    4.7038   41.7651 O.co2   1  UNL1       -0.5492
     26 N           6.2545   -4.3439   26.4576 N.am    1  UNL1       -0.2792
     27 C           7.4600   -4.1698   25.5821 C.2     1  UNL1        0.2703
     28 O           8.7951   -3.8676   26.1956 O.2     1  UNL1       -0.2681
     29 H           5.3783   -4.5422   26.0550 H       1  UNL1        0.1552
     30 C           7.3305   -4.2978   24.0933 C.ar    1  UNL1        0.1763
     31 N           6.7287   -3.2804   23.1699 N.ar    1  UNL1       -0.2037
     32 C           6.8063   -3.8196   21.7723 C.ar    1  UNL1        0.2298
     33 O           7.4561   -5.1703   21.8319 O.2     1  UNL1       -0.4304
     34 C           7.7801   -5.4658   23.2663 C.ar    1  UNL1        0.2404
     35 C           6.3195   -3.1293   20.5327 C.ar    1  UNL1        0.0536
     36 C           4.8488   -3.0426   20.2509 C.ar    1  UNL1        0.0046
     37 C           4.3619   -2.3523   19.0113 C.ar    1  UNL1        0.0002
     38 C           5.3460   -1.7487   18.0535 C.ar    1  UNL1        0.0000
     39 C           6.8168   -1.8354   18.3353 C.ar    1  UNL1        0.0002
     40 C           7.3035   -2.5257   19.5749 C.ar    1  UNL1        0.0046
     41 C           8.4381   -6.7108   23.7831 C.3     1  UNL1        0.4528
     42 F           9.0961   -7.9557   24.2999 F       1  UNL1       -0.1631
     43 F           9.5352   -6.5502   22.7730 F       1  UNL1       -0.1631
     44 F           7.3409   -6.8713   24.7933 F       1  UNL1       -0.1631
@<TRIPOS>UNITY_ATOM_ATTR
23 1
charge -1
@<TRIPOS>BOND
     1    23    24   ar
     2    24    25   ar
     3    24    22    1
     4    22    16    1
     5    16    17    1
     6    17    18    1
     7    18    19    1
     8    19    10    1
     9    10    11   ar
    10    11    12   ar
    11    12    13   ar
    12    13     1    1
    13     1     2    2
    14     2     3    1
    15     3     4    2
    16     4     5    1
    17     5    26    1
    18    26    27   am
    19    27    28    2
    20    27    30    1
    21    30    31   ar
    22    31    32   ar
    23    32    35    1
    24    35    36   ar
    25    36    37   ar
    26    37    38   ar
    27    38    39   ar
    28    39    40   ar
    29    32    33   ar
    30    33    34   ar
    31    34    41    1
    32    41    42    1
    33    41    43    1
    34    41    44    1
    35     5     6    2
    36     6     7    1
    37     7     8    1
    38     8     9    2
    39    13    14   ar
    40    14    15   ar
    41    19    20    1
    42    20    21    1
    43    21    16    1
    44    15    10   ar
    45     9     1    1
    46     8     3    1
    47    34    30   ar
    48    40    35   ar
    49    26    29    1
@<TRIPOS>MOLECULE
*****
 44 49 0 0 0
SMALL
GASTEIGER

@<TRIPOS>ATOM
      1 C          -8.0315    4.8826   24.1124 C.2     1  UNL1        0.3752
      2 N          -7.4356    3.9939   23.0611 N.2     1  UNL1       -0.0308
      3 C          -5.9426    4.1119   23.1462 C.2     1  UNL1        0.2333
      4 C          -4.8386    3.4679   22.3612 C.2     1  UNL1        0.0645
      5 C          -3.4077    3.7855   22.6800 C.2     1  UNL1        0.0506
      6 C          -3.0809    4.7471   23.7839 C.2     1  UNL1       -0.0025
      7 C          -4.1850    5.3911   24.5690 C.3     1  UNL1        0.1050
      8 C          -5.6158    5.0734   24.2501 C.2     1  UNL1        0.2179
      9 N          -6.9068    5.5498   24.8472 N.2     1  UNL1       -0.0347
     10 C         -12.4222    5.4479   24.9199 C.ar    1  UNL1       -0.0225
     11 C         -11.5298    6.6424   24.7565 C.ar    1  UNL1       -0.0040
     12 C         -10.0662    6.4540   24.4873 C.ar    1  UNL1        0.0074
     13 C          -9.4950    5.0710   24.3816 C.ar    1  UNL1        0.0884
     14 C         -10.3874    3.8765   24.5450 C.ar    1  UNL1        0.0074
     15 C         -11.8510    4.0650   24.8142 C.ar    1  UNL1       -0.0040
     16 C         -16.8129    6.0132   25.7275 C.3     1  UNL1        0.0056
     17 C         -16.3498    4.8821   24.8580 C.3     1  UNL1        0.0007
     18 C         -14.8862    4.6937   24.5888 C.3     1  UNL1        0.0044
     19 C         -13.8858    5.6363   25.1891 C.3     1  UNL1        0.0223
     20 C         -14.3489    6.7674   26.0586 C.3     1  UNL1        0.0044
     21 C         -15.8125    6.9559   26.3278 C.3     1  UNL1        0.0007
     22 C         -18.2765    6.2016   25.9966 C.3     1  UNL1        0.0417
     23 O         -20.1991    4.7490   26.9679 O.co2   1  UNL1       -0.5492
     24 C         -18.9202    5.5088   27.1609 C.2     1  UNL1        0.0503
     25 O         -18.2851    5.5757   28.5181 O.co2   1  UNL1       -0.5492
     26 N          -2.3036    3.1415   21.8950 N.am    1  UNL1       -0.2792
     27 C          -2.0040    3.6076   20.5010 C.2     1  UNL1        0.2703
     28 O          -2.8085    4.7176   19.8922 O.2     1  UNL1       -0.2681
     29 H          -1.7756    2.4130   22.2946 H       1  UNL1        0.1552
     30 C          -0.8999    2.9637   19.7160 C.ar    1  UNL1        0.1763
     31 N          -0.1180    1.7510   20.1258 N.ar    1  UNL1       -0.2037
     32 C           0.8813    1.4572   19.0464 C.ar    1  UNL1        0.2298
     33 O           0.7169    2.4884   17.9694 O.2     1  UNL1       -0.4304
     34 C          -0.3839    3.4194   18.3833 C.ar    1  UNL1        0.2404
     35 C           1.8711    0.3301   19.0442 C.ar    1  UNL1        0.0536
     36 C           1.8398   -0.6976   20.1364 C.ar    1  UNL1        0.0046
     37 C           2.8296   -1.8247   20.1343 C.ar    1  UNL1        0.0002
     38 C           3.8508   -1.9240   19.0400 C.ar    1  UNL1        0.0000
     39 C           3.8821   -0.8962   17.9479 C.ar    1  UNL1        0.0002
     40 C           2.8922    0.2308   17.9500 C.ar    1  UNL1        0.0046
     41 C          -0.8814    4.5990   17.6017 C.3     1  UNL1        0.4528
     42 F          -1.3788    5.7787   16.8201 F       1  UNL1       -0.1631
     43 F           0.0739    5.4902   18.3387 F       1  UNL1       -0.1631
     44 F          -1.8366    3.7078   16.8646 F       1  UNL1       -0.1631
@<TRIPOS>UNITY_ATOM_ATTR
23 1
charge -1
@<TRIPOS>BOND
     1    23    24   ar
     2    24    25   ar
     3    24    22    1
     4    22    16    1
     5    16    17    1
     6    17    18    1
     7    18    19    1
     8    19    10    1
     9    10    11   ar
    10    11    12   ar
    11    12    13   ar
    12    13     1    1
    13     1     2    2
    14     2     3    1
    15     3     4    2
    16     4     5    1
    17     5    26    1
    18    26    27   am
    19    27    28    2
    20    27    30    1
    21    30    31   ar
    22    31    32   ar
    23    32    35    1
    24    35    36   ar
    25    36    37   ar
    26    37    38   ar
    27    38    39   ar
    28    39    40   ar
    29    32    33   ar
    30    33    34   ar
    31    34    41    1
    32    41    42    1
    33    41    43    1
    34    41    44    1
    35     5     6    2
    36     6     7    1
    37     7     8    1
    38     8     9    2
    39    13    14   ar
    40    14    15   ar
    41    19    20    1
    42    20    21    1
    43    21    16    1
    44    15    10   ar
    45     9     1    1
    46     8     3    1
    47    34    30   ar
    48    40    35   ar
    49    26    29    1
@<TRIPOS>MOLECULE
*****
 44 49 0 0 0
SMALL
GASTEIGER

@<TRIPOS>ATOM
      1 C           3.0462    0.6228   28.6118 C.2     1  UNL1        0.3752
      2 N           4.1822    0.8318   29.5688 N.2     1  UNL1       -0.0308
      3 C           3.6127    1.3375   30.8610 C.2     1  UNL1        0.2333
      4 C           4.2569    1.7171   32.1614 C.2     1  UNL1        0.0645
      5 C           3.4130    2.2002   33.3035 C.2     1  UNL1        0.0506
      6 C           1.9250    2.3038   33.1452 C.2     1  UNL1       -0.0025
      7 C           1.2808    1.9242   31.8448 C.3     1  UNL1        0.1050
      8 C           2.1247    1.4411   30.7027 C.2     1  UNL1        0.2179
      9 N           1.7746    0.9994   29.3127 N.2     1  UNL1       -0.0347
     10 C           3.3922   -0.8715   24.3813 C.ar    1  UNL1       -0.0225
     11 C           2.5451    0.3283   24.6860 C.ar    1  UNL1       -0.0040
     12 C           2.4297    0.8264   26.0962 C.ar    1  UNL1        0.0074
     13 C           3.1615    0.1247   27.2016 C.ar    1  UNL1        0.0884
     14 C           4.0087   -1.0750   26.8969 C.ar    1  UNL1        0.0074
     15 C           4.1240   -1.5731   25.4867 C.ar    1  UNL1       -0.0040
     16 C           3.7382   -2.3657   20.1507 C.3     1  UNL1        0.0056
     17 C           2.9011   -1.1585   20.4536 C.3     1  UNL1        0.0007
     18 C           2.7858   -0.6604   21.8638 C.3     1  UNL1        0.0044
     19 C           3.5075   -1.3695   22.9711 C.3     1  UNL1        0.0223
     20 C           4.3446   -2.5768   22.6682 C.3     1  UNL1        0.0044
     21 C           4.4599   -3.0749   21.2580 C.3     1  UNL1        0.0007
     22 C           3.8535   -2.8638   18.7406 C.3     1  UNL1        0.0417
     23 O           6.2219   -2.4879   17.7407 O.co2   1  UNL1       -0.5492
     24 C           4.7575   -2.1640   17.7695 C.2     1  UNL1        0.0503
     25 O           4.1972   -1.1401   16.8273 O.co2   1  UNL1       -0.5492
     26 N           4.0571    2.5798   34.6039 N.am    1  UNL1       -0.2792
     27 C           4.4822    1.5137   35.5697 C.2     1  UNL1        0.2703
     28 O           4.2631    0.0679   35.2350 O.2     1  UNL1       -0.2681
     29 H           4.2009    3.5287   34.8235 H       1  UNL1        0.1552
     30 C           5.1263    1.8932   36.8700 C.ar    1  UNL1        0.1763
     31 N           4.5150    2.7481   37.9403 N.ar    1  UNL1       -0.2037
     32 C           5.5056    2.8677   39.0602 C.ar    1  UNL1        0.2298
     33 O           6.7293    2.0867   38.6821 O.2     1  UNL1       -0.4304
     34 C           6.4948    1.4845   37.3285 C.ar    1  UNL1        0.2404
     35 C           5.3075    3.6338   40.3345 C.ar    1  UNL1        0.0536
     36 C           6.3106    3.5169   41.4437 C.ar    1  UNL1        0.0046
     37 C           6.1125    4.2829   42.7180 C.ar    1  UNL1        0.0002
     38 C           4.9112    5.1660   42.8832 C.ar    1  UNL1        0.0000
     39 C           3.9082    5.2829   41.7741 C.ar    1  UNL1        0.0002
     40 C           4.1063    4.5168   40.4997 C.ar    1  UNL1        0.0046
     41 C           7.4594    0.6245   36.5671 C.3     1  UNL1        0.4528
     42 F           8.4241   -0.2355   35.8056 F       1  UNL1       -0.1631
     43 F           6.7569   -0.6039   37.0645 F       1  UNL1       -0.1631
     44 F           8.1619    1.8529   36.0697 F       1  UNL1       -0.1631
@<TRIPOS>UNITY_ATOM_ATTR
23 1
charge -1
@<TRIPOS>BOND
     1    23    24   ar
     2    24    25   ar
     3    24    22    1
     4    22    16    1
     5    16    17    1
     6    17    18    1
     7    18    19    1
     8    19    10    1
     9    10    11   ar
    10    11    12   ar
    11    12    13   ar
    12    13     1    1
    13     1     2    2
    14     2     3    1
    15     3     4    2
    16     4     5    1
    17     5    26    1
    18    26    27   am
    19    27    28    2
    20    27    30    1
    21    30    31   ar
    22    31    32   ar
    23    32    35    1
    24    35    36   ar
    25    36    37   ar
    26    37    38   ar
    27    38    39   ar
    28    39    40   ar
    29    32    33   ar
    30    33    34   ar
    31    34    41    1
    32    41    42    1
    33    41    43    1
    34    41    44    1
    35     5     6    2
    36     6     7    1
    37     7     8    1
    38     8     9    2
    39    13    14   ar
    40    14    15   ar
    41    19    20    1
    42    20    21    1
    43    21    16    1
    44    15    10   ar
    45     9     1    1
    46     8     3    1
    47    34    30   ar
    48    40    35   ar
    49    26    29    1
@<TRIPOS>MOLECULE
*****
 44 49 0 0 0
SMALL
GASTEIGER

@<TRIPOS>ATOM
      1 C           2.1509    1.9592   29.2836 C.2     1  UNL1        0.3752
      2 N           3.0492    1.9709   30.4848 N.2     1  UNL1       -0.0308
      3 C           2.3742    2.7686   31.5608 C.2     1  UNL1        0.2333
      4 C           2.7874    3.1189   32.9596 C.2     1  UNL1        0.0645
      5 C           1.8851    3.9505   33.8222 C.2     1  UNL1        0.0506
      6 C           0.5695    4.4318   33.2860 C.2     1  UNL1       -0.0025
      7 C           0.1562    4.0816   31.8873 C.3     1  UNL1        0.1050
      8 C           1.0585    3.2500   31.0247 C.2     1  UNL1        0.2179
      9 N           0.9206    2.7497   29.6173 N.2     1  UNL1       -0.0347
     10 C           2.9980   -0.0879   25.3668 C.ar    1  UNL1       -0.0225
     11 C           2.1196    1.1274   25.4033 C.ar    1  UNL1       -0.0040
     12 C           1.8373    1.8098   26.7089 C.ar    1  UNL1        0.0074
     13 C           2.4333    1.2768   27.9780 C.ar    1  UNL1        0.0884
     14 C           3.3116    0.0615   27.9415 C.ar    1  UNL1        0.0074
     15 C           3.5940   -0.6209   26.6359 C.ar    1  UNL1       -0.0040
     16 C           3.8451   -2.1350   21.4499 C.3     1  UNL1        0.0056
     17 C           4.4504   -2.6612   22.7175 C.3     1  UNL1        0.0007
     18 C           4.1680   -1.9788   24.0231 C.3     1  UNL1        0.0044
     19 C           3.2804   -0.7703   24.0611 C.3     1  UNL1        0.0223
     20 C           2.6751   -0.2441   22.7936 C.3     1  UNL1        0.0044
     21 C           2.9575   -0.9265   21.4880 C.3     1  UNL1        0.0007
     22 C           4.1275   -2.8174   20.1443 C.3     1  UNL1        0.0417
     23 O           6.1971   -4.3761   20.3371 O.co2   1  UNL1       -0.5492
     24 C           4.7225   -4.1943   20.1309 C.2     1  UNL1        0.0503
     25 O           3.8429   -5.3893   19.9114 O.co2   1  UNL1       -0.5492
     26 N           2.2984    4.3008   35.2210 N.am    1  UNL1       -0.2792
     27 C           2.5089    3.2155   36.2348 C.2     1  UNL1        0.2703
     28 O           2.3061    1.7799   35.8498 O.2     1  UNL1       -0.2681
     29 H           2.4314    5.2430   35.4736 H       1  UNL1        0.1552
     30 C           2.9221    3.5658   37.6336 C.ar    1  UNL1        0.1763
     31 N           3.8989    4.6356   38.0226 N.ar    1  UNL1       -0.2037
     32 C           4.0116    4.6387   39.5183 C.ar    1  UNL1        0.2298
     33 O           3.1044    3.5708   40.0538 O.2     1  UNL1       -0.4304
     34 C           2.4311    2.9077   38.8889 C.ar    1  UNL1        0.2404
     35 C           4.8791    5.5498   40.3352 C.ar    1  UNL1        0.0536
     36 C           4.6109    5.7263   41.8004 C.ar    1  UNL1        0.0046
     37 C           5.4784    6.6373   42.6174 C.ar    1  UNL1        0.0002
     38 C           6.6142    7.3719   41.9691 C.ar    1  UNL1        0.0000
     39 C           6.8825    7.1954   40.5038 C.ar    1  UNL1        0.0002
     40 C           6.0150    6.2843   39.6869 C.ar    1  UNL1        0.0046
     41 C           1.4407    1.7838   38.9659 C.3     1  UNL1        0.4528
     42 F           0.4502    0.6599   39.0429 F       1  UNL1       -0.1631
     43 F           2.5668    0.7935   38.9968 F       1  UNL1       -0.1631
     44 F           0.3145    2.7741   38.9349 F       1  UNL1       -0.1631
@<TRIPOS>UNITY_ATOM_ATTR
23 1
charge -1
@<TRIPOS>BOND
     1    23    24   ar
     2    24    25   ar
     3    24    22    1
     4    22    16    1
     5    16    17    1
     6    17    18    1
     7    18    19    1
     8    19    10    1
     9    10    11   ar
    10    11    12   ar
    11    12    13   ar
    12    13     1    1
    13     1     2    2
    14     2     3    1
    15     3     4    2
    16     4     5    1
    17     5    26    1
    18    26    27   am
    19    27    28    2
    20    27    30    1
    21    30    31   ar
    22    31    32   ar
    23    32    35    1
    24    35    36   ar
    25    36    37   ar
    26    37    38   ar
    27    38    39   ar
    28    39    40   ar
    29    32    33   ar
    30    33    34   ar
    31    34    41    1
    32    41    42    1
    33    41    43    1
    34    41    44    1
    35     5     6    2
    36     6     7    1
    37     7     8    1
    38     8     9    2
    39    13    14   ar
    40    14    15   ar
    41    19    20    1
    42    20    21    1
    43    21    16    1
    44    15    10   ar
    45     9     1    1
    46     8     3    1
    47    34    30   ar
    48    40    35   ar
    49    26    29    1
@<TRIPOS>MOLECULE
*****
 44 49 0 0 0
SMALL
GASTEIGER

@<TRIPOS>ATOM
      1 C           6.0011   -1.3587   32.6909 C.2     1  UNL1        0.3752
      2 N           5.5405   -1.0742   31.2920 N.2     1  UNL1       -0.0308
      3 C           5.9259   -2.2403   30.4308 C.2     1  UNL1        0.2333
      4 C           5.7308   -2.5167   28.9695 C.2     1  UNL1        0.0645
      5 C           6.2346   -3.7983   28.3749 C.2     1  UNL1        0.0506
      6 C           6.9335   -4.8035   29.2415 C.2     1  UNL1       -0.0025
      7 C           7.1286   -4.5271   30.7028 C.3     1  UNL1        0.1050
      8 C           6.6248   -3.2455   31.2975 C.2     1  UNL1        0.2179
      9 N           6.6713   -2.7006   32.6943 N.2     1  UNL1       -0.0347
     10 C           5.4665    1.3399   36.2520 C.ar    1  UNL1       -0.0225
     11 C           4.6216    0.1087   36.1105 C.ar    1  UNL1       -0.0040
     12 C           4.7998   -0.7909   34.9234 C.ar    1  UNL1        0.0074
     13 C           5.8229   -0.4591   33.8779 C.ar    1  UNL1        0.0884
     14 C           6.6678    0.7721   34.0195 C.ar    1  UNL1        0.0074
     15 C           6.4896    1.6717   35.2065 C.ar    1  UNL1       -0.0040
     16 C           4.9318    4.0385   39.8131 C.3     1  UNL1        0.0056
     17 C           3.7730    3.2370   39.2989 C.3     1  UNL1        0.0007
     18 C           3.9512    2.3374   38.1118 C.3     1  UNL1        0.0044
     19 C           5.2882    2.2395   37.4391 C.3     1  UNL1        0.0223
     20 C           6.4471    3.0411   37.9533 C.3     1  UNL1        0.0044
     21 C           6.2688    3.9406   39.1404 C.3     1  UNL1        0.0007
     22 C           4.7536    4.9381   41.0002 C.3     1  UNL1        0.0417
     23 O           5.2125    5.4825   43.4988 O.co2   1  UNL1       -0.5492
     24 C           5.3496    4.5602   42.3238 C.2     1  UNL1        0.0503
     25 O           6.0829    3.2601   42.4723 O.co2   1  UNL1       -0.5492
     26 N           6.0395   -4.0748   26.9135 N.am    1  UNL1       -0.2792
     27 C           7.0499   -3.5890   25.9169 C.2     1  UNL1        0.2703
     28 O           8.2553   -2.8267   26.3817 O.2     1  UNL1       -0.2681
     29 H           5.2484   -4.5750   26.6084 H       1  UNL1        0.1552
     30 C           6.8548   -3.8654   24.4556 C.ar    1  UNL1        0.1763
     31 N           6.0049   -3.0661   23.5128 N.ar    1  UNL1       -0.2037
     32 C           6.1002   -3.6963   22.1550 C.ar    1  UNL1        0.2298
     33 O           7.0091   -4.8852   22.2585 O.2     1  UNL1       -0.4304
     34 C           7.4755   -4.9896   23.6804 C.ar    1  UNL1        0.2404
     35 C           5.4082   -3.2211   20.9119 C.ar    1  UNL1        0.0536
     36 C           4.1500   -2.4114   21.0168 C.ar    1  UNL1        0.0046
     37 C           3.4579   -1.9362   19.7738 C.ar    1  UNL1        0.0002
     38 C           4.0242   -2.2708   18.4256 C.ar    1  UNL1        0.0000
     39 C           5.2824   -3.0806   18.3207 C.ar    1  UNL1        0.0002
     40 C           5.9745   -3.5557   19.5638 C.ar    1  UNL1        0.0046
     41 C           8.4001   -6.0348   24.2304 C.3     1  UNL1        0.4528
     42 F           9.3247   -7.0800   24.7804 F       1  UNL1       -0.1631
     43 F           7.2709   -6.6124   25.0311 F       1  UNL1       -0.1631
     44 F           9.5293   -5.4573   23.4296 F       1  UNL1       -0.1631
@<TRIPOS>UNITY_ATOM_ATTR
23 1
charge -1
@<TRIPOS>BOND
     1    23    24   ar
     2    24    25   ar
     3    24    22    1
     4    22    16    1
     5    16    17    1
     6    17    18    1
     7    18    19    1
     8    19    10    1
     9    10    11   ar
    10    11    12   ar
    11    12    13   ar
    12    13     1    1
    13     1     2    2
    14     2     3    1
    15     3     4    2
    16     4     5    1
    17     5    26    1
    18    26    27   am
    19    27    28    2
    20    27    30    1
    21    30    31   ar
    22    31    32   ar
    23    32    35    1
    24    35    36   ar
    25    36    37   ar
    26    37    38   ar
    27    38    39   ar
    28    39    40   ar
    29    32    33   ar
    30    33    34   ar
    31    34    41    1
    32    41    42    1
    33    41    43    1
    34    41    44    1
    35     5     6    2
    36     6     7    1
    37     7     8    1
    38     8     9    2
    39    13    14   ar
    40    14    15   ar
    41    19    20    1
    42    20    21    1
    43    21    16    1
    44    15    10   ar
    45     9     1    1
    46     8     3    1
    47    34    30   ar
    48    40    35   ar
    49    26    29    1
@<TRIPOS>MOLECULE
*****
 44 49 0 0 0
SMALL
GASTEIGER

@<TRIPOS>ATOM
      1 C          -8.0017    5.1314   24.1387 C.2     1  UNL1        0.3752
      2 N          -7.2336    3.9944   23.5329 N.2     1  UNL1       -0.0308
      3 C          -5.7851    4.3823   23.4936 C.2     1  UNL1        0.2333
      4 C          -4.5655    3.6597   23.0035 C.2     1  UNL1        0.0645
      5 C          -3.2188    4.3139   23.0948 C.2     1  UNL1        0.0506
      6 C          -3.0918    5.6908   23.6763 C.2     1  UNL1       -0.0025
      7 C          -4.3114    6.4134   24.1664 C.3     1  UNL1        0.1050
      8 C          -5.6581    5.7591   24.0751 C.2     1  UNL1        0.2179
      9 N          -7.0280    6.2221   24.4737 N.2     1  UNL1       -0.0347
     10 C         -12.4468    5.2499   24.8294 C.ar    1  UNL1       -0.0225
     11 C         -11.7280    3.9338   24.7946 C.ar    1  UNL1       -0.0040
     12 C         -10.2464    3.8943   24.5643 C.ar    1  UNL1        0.0074
     13 C          -9.4834    5.1709   24.3689 C.ar    1  UNL1        0.0884
     14 C         -10.2022    6.4870   24.4038 C.ar    1  UNL1        0.0074
     15 C         -11.6839    6.5265   24.6340 C.ar    1  UNL1       -0.0040
     16 C         -16.8919    5.3683   25.5202 C.3     1  UNL1        0.0056
     17 C         -16.3486    4.8596   24.2179 C.3     1  UNL1        0.0007
     18 C         -14.8669    4.8201   23.9877 C.3     1  UNL1        0.0044
     19 C         -13.9285    5.2893   25.0597 C.3     1  UNL1        0.0223
     20 C         -14.4719    5.7981   26.3619 C.3     1  UNL1        0.0044
     21 C         -15.9536    5.8376   26.5922 C.3     1  UNL1        0.0007
     22 C         -18.3736    5.4078   25.7504 C.3     1  UNL1        0.0417
     23 O         -20.0796    5.4815   23.7923 O.co2   1  UNL1       -0.5492
     24 C         -19.2985    4.6989   24.8060 C.2     1  UNL1        0.0503
     25 O         -19.4425    3.2074   24.8753 O.co2   1  UNL1       -0.5492
     26 N          -1.9991    3.5913   22.6046 N.am    1  UNL1       -0.2792
     27 C          -1.8560    3.2642   21.1478 C.2     1  UNL1        0.2703
     28 O          -2.9327    3.6597   20.1810 O.2     1  UNL1       -0.2681
     29 H          -1.2925    3.3317   23.2392 H       1  UNL1        0.1552
     30 C          -0.6364    2.5416   20.6576 C.ar    1  UNL1        0.1763
     31 N           0.0095    1.3570   21.3130 N.ar    1  UNL1       -0.2037
     32 C           1.1966    0.9600   20.4864 C.ar    1  UNL1        0.2298
     33 O           1.2844    1.8993   19.3202 O.2     1  UNL1       -0.4304
     34 C           0.1516    2.8767   19.4260 C.ar    1  UNL1        0.2404
     35 C           2.1317   -0.1767   20.7754 C.ar    1  UNL1        0.0536
     36 C           2.5177   -1.1271   19.6809 C.ar    1  UNL1        0.0046
     37 C           3.4528   -2.2638   19.9698 C.ar    1  UNL1        0.0002
     38 C           4.0020   -2.4501   21.3533 C.ar    1  UNL1        0.0000
     39 C           3.6159   -1.4998   22.4477 C.ar    1  UNL1        0.0002
     40 C           2.6808   -0.3631   22.1587 C.ar    1  UNL1        0.0046
     41 C          -0.1418    3.9933   18.4683 C.3     1  UNL1        0.4528
     42 F          -0.4352    5.1099   17.5106 F       1  UNL1       -0.1631
     43 F           0.4482    4.9772   19.4347 F       1  UNL1       -0.1631
     44 F          -0.7318    3.0095   17.5019 F       1  UNL1       -0.1631
@<TRIPOS>UNITY_ATOM_ATTR
23 1
charge -1
@<TRIPOS>BOND
     1    23    24   ar
     2    24    25   ar
     3    24    22    1
     4    22    16    1
     5    16    17    1
     6    17    18    1
     7    18    19    1
     8    19    10    1
     9    10    11   ar
    10    11    12   ar
    11    12    13   ar
    12    13     1    1
    13     1     2    2
    14     2     3    1
    15     3     4    2
    16     4     5    1
    17     5    26    1
    18    26    27   am
    19    27    28    2
    20    27    30    1
    21    30    31   ar
    22    31    32   ar
    23    32    35    1
    24    35    36   ar
    25    36    37   ar
    26    37    38   ar
    27    38    39   ar
    28    39    40   ar
    29    32    33   ar
    30    33    34   ar
    31    34    41    1
    32    41    42    1
    33    41    43    1
    34    41    44    1
    35     5     6    2
    36     6     7    1
    37     7     8    1
    38     8     9    2
    39    13    14   ar
    40    14    15   ar
    41    19    20    1
    42    20    21    1
    43    21    16    1
    44    15    10   ar
    45     9     1    1
    46     8     3    1
    47    34    30   ar
    48    40    35   ar
    49    26    29    1
@<TRIPOS>MOLECULE
*****
 44 49 0 0 0
SMALL
GASTEIGER

@<TRIPOS>ATOM
      1 C           2.7412    2.1233   34.2716 C.2     1  UNL1        0.3752
      2 N           1.6179    2.7648   33.5123 N.2     1  UNL1       -0.0308
      3 C           1.4783    2.0514   32.2002 C.2     1  UNL1        0.2333
      4 C           0.5409    2.2476   31.0458 C.2     1  UNL1        0.0645
      5 C           0.6406    1.3614   29.8397 C.2     1  UNL1        0.0506
      6 C           1.6778    0.2789   29.7881 C.2     1  UNL1       -0.0025
      7 C           2.6152    0.0827   30.9425 C.3     1  UNL1        0.1050
      8 C           2.5155    0.9690   32.1485 C.2     1  UNL1        0.2179
      9 N           3.2960    1.0134   33.4287 N.2     1  UNL1       -0.0347
     10 C           4.1923    3.3185   38.3601 C.ar    1  UNL1       -0.0225
     11 C           2.8699    3.8177   37.8580 C.ar    1  UNL1       -0.0040
     12 C           2.3862    3.4193   36.4951 C.ar    1  UNL1        0.0074
     13 C           3.2249    2.5217   35.6344 C.ar    1  UNL1        0.0884
     14 C           4.5472    2.0225   36.1365 C.ar    1  UNL1        0.0074
     15 C           5.0309    2.4209   37.4994 C.ar    1  UNL1       -0.0040
     16 C           5.6433    4.5137   42.4486 C.3     1  UNL1        0.0056
     17 C           6.4495    3.5622   41.6152 C.3     1  UNL1        0.0007
     18 C           5.9658    3.1638   40.2523 C.3     1  UNL1        0.0044
     19 C           4.6759    3.7169   39.7229 C.3     1  UNL1        0.0223
     20 C           3.8698    4.6684   40.5564 C.3     1  UNL1        0.0044
     21 C           4.3534    5.0668   41.9192 C.3     1  UNL1        0.0007
     22 C           6.1270    4.9121   43.8115 C.3     1  UNL1        0.0417
     23 O           8.3193    3.6891   44.4807 O.co2   1  UNL1       -0.5492
     24 C           6.8491    3.9176   44.6714 C.2     1  UNL1        0.0503
     25 O           6.1011    3.1516   45.7219 O.co2   1  UNL1       -0.5492
     26 N          -0.2968    1.5575   28.6853 N.am    1  UNL1       -0.2792
     27 C          -0.1326    2.7412   27.7786 C.2     1  UNL1        0.2703
     28 O           0.9690    3.7286   28.0264 O.2     1  UNL1       -0.2681
     29 H          -1.0199    0.9094   28.5226 H       1  UNL1        0.1552
     30 C          -1.0700    2.9374   26.6242 C.ar    1  UNL1        0.1763
     31 N          -2.4584    3.4997   26.7016 N.ar    1  UNL1       -0.2037
     32 C          -3.0301    3.5156   25.3149 C.ar    1  UNL1        0.2298
     33 O          -1.9950    2.9630   24.3804 O.2     1  UNL1       -0.4304
     34 C          -0.7836    2.6056   25.1896 C.ar    1  UNL1        0.2404
     35 C          -4.3969    3.9992   24.9302 C.ar    1  UNL1        0.0536
     36 C          -5.0038    3.5730   23.6263 C.ar    1  UNL1        0.0046
     37 C          -6.3707    4.0565   23.2415 C.ar    1  UNL1        0.0002
     38 C          -7.1306    4.9663   24.1607 C.ar    1  UNL1        0.0000
     39 C          -6.5237    5.3925   25.4646 C.ar    1  UNL1        0.0002
     40 C          -5.1569    4.9089   25.8493 C.ar    1  UNL1        0.0046
     41 C           0.4905    2.0194   24.6576 C.3     1  UNL1        0.4528
     42 F           1.7646    1.4333   24.1256 F       1  UNL1       -0.1631
     43 F           1.0027    3.3985   24.3647 F       1  UNL1       -0.1631
     44 F          -0.0217    0.6404   24.9505 F       1  UNL1       -0.1631
@<TRIPOS>UNITY_ATOM_ATTR
23 1
charge -1
@<TRIPOS>BOND
     1    23    24   ar
     2    24    25   ar
     3    24    22    1
     4    22    16    1
     5    16    17    1
     6    17    18    1
     7    18    19    1
     8    19    10    1
     9    10    11   ar
    10    11    12   ar
    11    12    13   ar
    12    13     1    1
    13     1     2    2
    14     2     3    1
    15     3     4    2
    16     4     5    1
    17     5    26    1
    18    26    27   am
    19    27    28    2
    20    27    30    1
    21    30    31   ar
    22    31    32   ar
    23    32    35    1
    24    35    36   ar
    25    36    37   ar
    26    37    38   ar
    27    38    39   ar
    28    39    40   ar
    29    32    33   ar
    30    33    34   ar
    31    34    41    1
    32    41    42    1
    33    41    43    1
    34    41    44    1
    35     5     6    2
    36     6     7    1
    37     7     8    1
    38     8     9    2
    39    13    14   ar
    40    14    15   ar
    41    19    20    1
    42    20    21    1
    43    21    16    1
    44    15    10   ar
    45     9     1    1
    46     8     3    1
    47    34    30   ar
    48    40    35   ar
    49    26    29    1
@<TRIPOS>MOLECULE
*****
 44 49 0 0 0
SMALL
GASTEIGER

@<TRIPOS>ATOM
      1 C           1.4155    2.2125   31.6655 C.2     1  UNL1        0.3752
      2 N           2.2507    2.2893   30.4219 N.2     1  UNL1       -0.0308
      3 C           1.4327    1.7615   29.2807 C.2     1  UNL1        0.2333
      4 C           1.7356    1.5958   27.8210 C.2     1  UNL1        0.0645
      5 C           0.6976    1.0272   26.8996 C.2     1  UNL1        0.0506
      6 C          -0.6433    0.6242   27.4378 C.2     1  UNL1       -0.0025
      7 C          -0.9462    0.7899   28.8975 C.3     1  UNL1        0.1050
      8 C           0.0919    1.3586   29.8190 C.2     1  UNL1        0.2179
      9 N           0.0812    1.6373   31.2928 N.2     1  UNL1       -0.0347
     10 C           2.6888    3.4845   35.7899 C.ar    1  UNL1       -0.0225
     11 C           1.7332    4.3333   35.0048 C.ar    1  UNL1       -0.0040
     12 C           1.3088    3.9093   33.6300 C.ar    1  UNL1        0.0074
     13 C           1.8399    2.6365   33.0403 C.ar    1  UNL1        0.0884
     14 C           2.7955    1.7877   33.8253 C.ar    1  UNL1        0.0074
     15 C           3.2200    2.2117   35.2001 C.ar    1  UNL1       -0.0040
     16 C           3.9622    4.7564   39.9143 C.3     1  UNL1        0.0056
     17 C           4.4379    5.5195   38.7138 C.3     1  UNL1        0.0007
     18 C           4.0135    5.0955   37.3390 C.3     1  UNL1        0.0044
     19 C           3.1133    3.9085   37.1647 C.3     1  UNL1        0.0223
     20 C           2.6375    3.1454   38.3652 C.3     1  UNL1        0.0044
     21 C           3.0620    3.5693   39.7400 C.3     1  UNL1        0.0007
     22 C           4.3866    5.1804   41.2891 C.3     1  UNL1        0.0417
     23 O           5.9672    3.1238   41.4385 O.co2   1  UNL1       -0.5492
     24 C           5.3537    4.3392   42.0682 C.2     1  UNL1        0.0503
     25 O           5.7074    4.7134   43.4771 O.co2   1  UNL1       -0.5492
     26 N           1.0004    0.8614   25.4398 N.am    1  UNL1       -0.2792
     27 C           0.4737    1.8550   24.4471 C.2     1  UNL1        0.2703
     28 O          -0.3558    3.0142   24.9141 O.2     1  UNL1       -0.2681
     29 H           1.5448    0.1006   25.1333 H       1  UNL1        0.1552
     30 C           0.7765    1.6893   22.9873 C.ar    1  UNL1        0.1763
     31 N           1.6557    0.6347   22.3835 N.ar    1  UNL1       -0.2037
     32 C           1.6759    0.8427   20.8981 C.ar    1  UNL1        0.2298
     33 O           0.8090    2.0259   20.5840 O.2     1  UNL1       -0.4304
     34 C           0.2532    2.5491   21.8752 C.ar    1  UNL1        0.2404
     35 C           2.4304    0.0132   19.9018 C.ar    1  UNL1        0.0536
     36 C           2.7484    0.5733   18.5471 C.ar    1  UNL1        0.0046
     37 C           3.5029   -0.2562   17.5507 C.ar    1  UNL1        0.0002
     38 C           3.9394   -1.6459   17.9091 C.ar    1  UNL1        0.0000
     39 C           3.6213   -2.2059   19.2638 C.ar    1  UNL1        0.0002
     40 C           2.8668   -1.3764   20.2601 C.ar    1  UNL1        0.0046
     41 C          -0.6648    3.7256   22.0275 C.3     1  UNL1        0.4528
     42 F          -1.5828    4.9021   22.1798 F       1  UNL1       -0.1631
     43 F           0.5091    4.5987   22.3587 F       1  UNL1       -0.1631
     44 F          -1.8387    2.8525   21.6963 F       1  UNL1       -0.1631
@<TRIPOS>UNITY_ATOM_ATTR
23 1
charge -1
@<TRIPOS>BOND
     1    23    24   ar
     2    24    25   ar
     3    24    22    1
     4    22    16    1
     5    16    17    1
     6    17    18    1
     7    18    19    1
     8    19    10    1
     9    10    11   ar
    10    11    12   ar
    11    12    13   ar
    12    13     1    1
    13     1     2    2
    14     2     3    1
    15     3     4    2
    16     4     5    1
    17     5    26    1
    18    26    27   am
    19    27    28    2
    20    27    30    1
    21    30    31   ar
    22    31    32   ar
    23    32    35    1
    24    35    36   ar
    25    36    37   ar
    26    37    38   ar
    27    38    39   ar
    28    39    40   ar
    29    32    33   ar
    30    33    34   ar
    31    34    41    1
    32    41    42    1
    33    41    43    1
    34    41    44    1
    35     5     6    2
    36     6     7    1
    37     7     8    1
    38     8     9    2
    39    13    14   ar
    40    14    15   ar
    41    19    20    1
    42    20    21    1
    43    21    16    1
    44    15    10   ar
    45     9     1    1
    46     8     3    1
    47    34    30   ar
    48    40    35   ar
    49    26    29    1
