@<TRIPOS>MOLECULE
*****
 21 22 0 0 0
SMALL
GASTEIGER

@<TRIPOS>ATOM
      1 O          -7.1655  -18.3831   22.8459 O.3     1  UNL1       -0.4728
      2 C          -6.2644  -19.1757   21.9459 C.ar    1  UNL1        0.1386
      3 C          -6.8463  -20.1900   21.0066 C.ar    1  UNL1        0.0369
      4 C          -5.9452  -20.9826   20.1066 C.ar    1  UNL1        0.0031
      5 C          -4.4622  -20.7607   20.1460 C.ar    1  UNL1        0.0002
      6 C          -3.8803  -19.7463   21.0854 C.ar    1  UNL1        0.0029
      7 C          -2.3974  -19.5245   21.1249 C.ar    1  UNL1        0.0001
      8 C          -1.8155  -18.5101   22.0642 C.ar    1  UNL1        0.0000
      9 C          -2.7166  -17.7176   22.9642 C.ar    1  UNL1        0.0001
     10 C          -4.1996  -17.9394   22.9248 C.ar    1  UNL1        0.0030
     11 C          -4.7814  -18.9538   21.9854 C.ar    1  UNL1        0.0340
     12 C          -8.1404  -17.4058   22.2591 C.3     1  UNL1        0.2358
     13 C          -8.4407  -16.1233   22.9768 C.3     1  UNL1        0.1697
     14 O          -9.8312  -15.8453   23.4658 O.3     1  UNL1       -0.3793
     15 H          -9.8528  -14.9804   23.9043 H       1  UNL1        0.2106
     16 C          -7.3503  -15.1188   23.2055 C.3     1  UNL1        0.1020
     17 N          -7.2038  -14.4633   24.5467 N.3     1  UNL1       -0.2964
     18 H          -6.5006  -13.7320   24.4417 H       1  UNL1        0.1233
     19 C          -7.8427  -15.7107   26.7343 C.3     1  UNL1        0.0171
     20 C          -6.8052  -15.2791   25.7407 C.3     1  UNL1        0.0541
     21 C          -5.3692  -15.6632   25.9410 C.3     1  UNL1        0.0171
@<TRIPOS>BOND
     1    19    20    1
     2    20    21    1
     3    20    17    1
     4    17    16    1
     5    16    13    1
     6    13    14    1
     7    13    12    1
     8    12     1    1
     9     1     2    1
    10     2     3   ar
    11     3     4   ar
    12     4     5   ar
    13     5     6   ar
    14     6     7   ar
    15     7     8   ar
    16     8     9   ar
    17     9    10   ar
    18    10    11   ar
    19    11     2   ar
    20    11     6   ar
    21    17    18    1
    22    14    15    1
@<TRIPOS>MOLECULE
*****
 21 22 0 0 0
SMALL
GASTEIGER

@<TRIPOS>ATOM
      1 O          -6.5673  -18.2721   21.6213 O.3     1  UNL1       -0.4728
      2 C          -7.9181  -18.7506   21.1783 C.ar    1  UNL1        0.1386
      3 C          -8.0933  -19.3409   19.8106 C.ar    1  UNL1        0.0369
      4 C          -9.4441  -19.8194   19.3676 C.ar    1  UNL1        0.0031
      5 C         -10.6198  -19.7076   20.2923 C.ar    1  UNL1        0.0002
      6 C         -10.4447  -19.1172   21.6601 C.ar    1  UNL1        0.0029
      7 C         -11.6204  -19.0053   22.5849 C.ar    1  UNL1        0.0001
      8 C         -11.4452  -18.4150   23.9526 C.ar    1  UNL1        0.0000
      9 C         -10.0944  -17.9365   24.3956 C.ar    1  UNL1        0.0001
     10 C          -8.9187  -18.0484   23.4709 C.ar    1  UNL1        0.0030
     11 C          -9.0938  -18.6387   22.1031 C.ar    1  UNL1        0.0340
     12 C          -5.4129  -19.2284   21.6736 C.3     1  UNL1        0.2358
     13 C          -4.3612  -19.1938   20.6046 C.3     1  UNL1        0.1697
     14 O          -4.5912  -18.4017   19.3517 O.3     1  UNL1       -0.3793
     15 H          -3.8194  -18.4854   18.7701 H       1  UNL1        0.2106
     16 C          -3.0796  -19.9513   20.7884 C.3     1  UNL1        0.1020
     17 N          -1.8822  -19.2673   21.3786 N.3     1  UNL1       -0.2964
     18 H          -2.0668  -19.1590   22.3759 H       1  UNL1        0.1233
     19 C          -0.5566  -17.8226   19.6741 C.3     1  UNL1        0.0171
     20 C          -1.4595  -17.9219   20.8678 C.3     1  UNL1        0.0541
     21 C          -1.9396  -16.6757   21.5506 C.3     1  UNL1        0.0171
@<TRIPOS>BOND
     1    19    20    1
     2    20    21    1
     3    20    17    1
     4    17    16    1
     5    16    13    1
     6    13    14    1
     7    13    12    1
     8    12     1    1
     9     1     2    1
    10     2     3   ar
    11     3     4   ar
    12     4     5   ar
    13     5     6   ar
    14     6     7   ar
    15     7     8   ar
    16     8     9   ar
    17     9    10   ar
    18    10    11   ar
    19    11     2   ar
    20    11     6   ar
    21    17    18    1
    22    14    15    1
@<TRIPOS>MOLECULE
*****
 21 22 0 0 0
SMALL
GASTEIGER

@<TRIPOS>ATOM
      1 O          -7.1379  -18.2872   22.7491 O.3     1  UNL1       -0.4728
      2 C          -6.2377  -19.1163   21.8817 C.ar    1  UNL1        0.1386
      3 C          -6.8248  -20.1257   20.9403 C.ar    1  UNL1        0.0369
      4 C          -5.9247  -20.9548   20.0729 C.ar    1  UNL1        0.0031
      5 C          -4.4374  -20.7745   20.1469 C.ar    1  UNL1        0.0002
      6 C          -3.8503  -19.7650   21.0884 C.ar    1  UNL1        0.0029
      7 C          -2.3630  -19.5846   21.1624 C.ar    1  UNL1        0.0001
      8 C          -1.7759  -18.5752   22.1038 C.ar    1  UNL1        0.0000
      9 C          -2.6760  -17.7461   22.9711 C.ar    1  UNL1        0.0001
     10 C          -4.1633  -17.9264   22.8971 C.ar    1  UNL1        0.0030
     11 C          -4.7504  -18.9359   21.9557 C.ar    1  UNL1        0.0340
     12 C          -8.5320  -17.9698   22.2958 C.3     1  UNL1        0.2358
     13 C          -9.0130  -16.5490   22.2882 C.3     1  UNL1        0.1697
     14 O          -8.2769  -15.5123   21.4924 O.3     1  UNL1       -0.3793
     15 H          -8.7160  -14.6535   21.5957 H       1  UNL1        0.2106
     16 C         -10.2301  -16.1650   23.0764 C.3     1  UNL1        0.1020
     17 N         -11.4787  -15.7338   22.3657 N.3     1  UNL1       -0.2964
     18 H         -12.2316  -15.7559   23.0535 H       1  UNL1        0.1233
     19 C         -11.7300  -15.9574   19.7895 C.3     1  UNL1        0.0171
     20 C         -11.9626  -16.4981   21.1692 C.3     1  UNL1        0.0541
     21 C         -12.6791  -17.8030   21.3524 C.3     1  UNL1        0.0171
@<TRIPOS>BOND
     1    19    20    1
     2    20    21    1
     3    20    17    1
     4    17    16    1
     5    16    13    1
     6    13    14    1
     7    13    12    1
     8    12     1    1
     9     1     2    1
    10     2     3   ar
    11     3     4   ar
    12     4     5   ar
    13     5     6   ar
    14     6     7   ar
    15     7     8   ar
    16     8     9   ar
    17     9    10   ar
    18    10    11   ar
    19    11     2   ar
    20    11     6   ar
    21    17    18    1
    22    14    15    1
@<TRIPOS>MOLECULE
*****
 21 22 0 0 0
SMALL
GASTEIGER

@<TRIPOS>ATOM
      1 O          -8.1257  -19.6911   21.4221 O.3     1  UNL1       -0.4728
      2 C          -9.2354  -19.4882   22.4108 C.ar    1  UNL1        0.1386
      3 C          -9.1766  -20.1575   23.7519 C.ar    1  UNL1        0.0369
      4 C         -10.2863  -19.9547   24.7406 C.ar    1  UNL1        0.0031
      5 C         -11.4547  -19.0826   24.3882 C.ar    1  UNL1        0.0002
      6 C         -11.5135  -18.4132   23.0471 C.ar    1  UNL1        0.0029
      7 C         -12.6819  -17.5411   22.6947 C.ar    1  UNL1        0.0001
      8 C         -12.7406  -16.8719   21.3536 C.ar    1  UNL1        0.0000
      9 C         -11.6310  -17.0747   20.3649 C.ar    1  UNL1        0.0001
     10 C         -10.4626  -17.9468   20.7173 C.ar    1  UNL1        0.0030
     11 C         -10.4038  -18.6161   22.0583 C.ar    1  UNL1        0.0340
     12 C          -6.7025  -19.7449   21.8926 C.3     1  UNL1        0.2358
     13 C          -5.6009  -19.2389   21.0092 C.3     1  UNL1        0.1697
     14 O          -5.9316  -18.4942   19.7499 O.3     1  UNL1       -0.3793
     15 H          -5.1109  -18.2396   19.2998 H       1  UNL1        0.2106
     16 C          -4.1685  -19.4777   21.3852 C.3     1  UNL1        0.1020
     17 N          -3.0926  -19.3730   20.3452 N.3     1  UNL1       -0.2964
     18 H          -2.3638  -20.0365   20.6078 H       1  UNL1        0.1233
     19 C          -2.0035  -17.6757   18.7073 C.3     1  UNL1        0.0171
     20 C          -2.4133  -18.0587   20.0985 C.3     1  UNL1        0.0541
     21 C          -2.1438  -17.1273   21.2429 C.3     1  UNL1        0.0171
@<TRIPOS>BOND
     1    19    20    1
     2    20    21    1
     3    20    17    1
     4    17    16    1
     5    16    13    1
     6    13    14    1
     7    13    12    1
     8    12     1    1
     9     1     2    1
    10     2     3   ar
    11     3     4   ar
    12     4     5   ar
    13     5     6   ar
    14     6     7   ar
    15     7     8   ar
    16     8     9   ar
    17     9    10   ar
    18    10    11   ar
    19    11     2   ar
    20    11     6   ar
    21    17    18    1
    22    14    15    1
@<TRIPOS>MOLECULE
*****
 21 22 0 0 0
SMALL
GASTEIGER

@<TRIPOS>ATOM
      1 O          -6.6636  -18.1935   21.4499 O.3     1  UNL1       -0.4728
      2 C          -8.0307  -18.7078   21.1085 C.ar    1  UNL1        0.1386
      3 C          -8.2901  -19.3101   19.7595 C.ar    1  UNL1        0.0369
      4 C          -9.6572  -19.8244   19.4181 C.ar    1  UNL1        0.0031
      5 C         -10.7649  -19.7363   20.4257 C.ar    1  UNL1        0.0002
      6 C         -10.5055  -19.1340   21.7748 C.ar    1  UNL1        0.0029
      7 C         -11.6131  -19.0459   22.7824 C.ar    1  UNL1        0.0001
      8 C         -11.3537  -18.4436   24.1314 C.ar    1  UNL1        0.0000
      9 C          -9.9866  -17.9293   24.4728 C.ar    1  UNL1        0.0001
     10 C          -8.8789  -18.0173   23.4652 C.ar    1  UNL1        0.0030
     11 C          -9.1384  -18.6197   22.1162 C.ar    1  UNL1        0.0340
     12 C          -5.6401  -19.1180   22.0396 C.3     1  UNL1        0.2358
     13 C          -4.3586  -18.5654   22.5894 C.3     1  UNL1        0.1697
     14 O          -3.0551  -19.2359   22.2711 O.3     1  UNL1       -0.3793
     15 H          -2.3307  -18.7554   22.7016 H       1  UNL1        0.2106
     16 C          -4.3805  -17.3423   23.4575 C.3     1  UNL1        0.1020
     17 N          -5.4645  -16.3199   23.2855 N.3     1  UNL1       -0.2964
     18 H          -5.0941  -15.5995   22.6657 H       1  UNL1        0.1233
     19 C          -5.2707  -15.6183   25.7796 C.3     1  UNL1        0.0171
     20 C          -6.0261  -15.6134   24.4836 C.3     1  UNL1        0.0541
     21 C          -7.3430  -14.9020   24.3858 C.3     1  UNL1        0.0171
@<TRIPOS>BOND
     1    19    20    1
     2    20    21    1
     3    20    17    1
     4    17    16    1
     5    16    13    1
     6    13    14    1
     7    13    12    1
     8    12     1    1
     9     1     2    1
    10     2     3   ar
    11     3     4   ar
    12     4     5   ar
    13     5     6   ar
    14     6     7   ar
    15     7     8   ar
    16     8     9   ar
    17     9    10   ar
    18    10    11   ar
    19    11     2   ar
    20    11     6   ar
    21    17    18    1
    22    14    15    1
@<TRIPOS>MOLECULE
*****
 21 22 0 0 0
SMALL
GASTEIGER

@<TRIPOS>ATOM
      1 O          -6.9617  -17.5056   22.9107 O.3     1  UNL1       -0.4728
      2 C          -6.3080  -18.5455   22.0497 C.ar    1  UNL1        0.1386
      3 C          -7.1493  -19.4656   21.2157 C.ar    1  UNL1        0.0369
      4 C          -6.4956  -20.5055   20.3546 C.ar    1  UNL1        0.0031
      5 C          -5.0007  -20.6252   20.3276 C.ar    1  UNL1        0.0002
      6 C          -4.1593  -19.7051   21.1616 C.ar    1  UNL1        0.0029
      7 C          -2.6644  -19.8248   21.1346 C.ar    1  UNL1        0.0001
      8 C          -1.8232  -18.9047   21.9686 C.ar    1  UNL1        0.0000
      9 C          -2.4768  -17.8648   22.8296 C.ar    1  UNL1        0.0001
     10 C          -3.9718  -17.7451   22.8567 C.ar    1  UNL1        0.0030
     11 C          -4.8130  -18.6652   22.0227 C.ar    1  UNL1        0.0340
     12 C          -8.3873  -17.1123   22.6599 C.3     1  UNL1        0.2358
     13 C          -9.3080  -16.8526   23.8153 C.3     1  UNL1        0.1697
     14 O         -10.0262  -15.5400   23.9216 O.3     1  UNL1       -0.3793
     15 H         -10.5764  -15.5363   24.7205 H       1  UNL1        0.2106
     16 C          -9.5105  -17.9055   24.8643 C.3     1  UNL1        0.1020
     17 N         -10.7565  -18.7406   24.8580 N.3     1  UNL1       -0.2964
     18 H         -10.4760  -19.6900   25.1036 H       1  UNL1        0.1233
     19 C         -11.1389  -19.7270   22.4851 C.3     1  UNL1        0.0171
     20 C         -11.5848  -18.8426   23.6116 C.3     1  UNL1        0.0541
     21 C         -12.8589  -18.0602   23.4917 C.3     1  UNL1        0.0171
@<TRIPOS>BOND
     1    19    20    1
     2    20    21    1
     3    20    17    1
     4    17    16    1
     5    16    13    1
     6    13    14    1
     7    13    12    1
     8    12     1    1
     9     1     2    1
    10     2     3   ar
    11     3     4   ar
    12     4     5   ar
    13     5     6   ar
    14     6     7   ar
    15     7     8   ar
    16     8     9   ar
    17     9    10   ar
    18    10    11   ar
    19    11     2   ar
    20    11     6   ar
    21    17    18    1
    22    14    15    1
@<TRIPOS>MOLECULE
*****
 21 22 0 0 0
SMALL
GASTEIGER

@<TRIPOS>ATOM
      1 O          -9.5126  -19.0698   24.1755 O.3     1  UNL1       -0.4728
      2 C          -9.6524  -19.2292   22.6906 C.ar    1  UNL1        0.1386
      3 C         -11.0135  -19.3713   22.0764 C.ar    1  UNL1        0.0369
      4 C         -11.1533  -19.5308   20.5915 C.ar    1  UNL1        0.0031
      5 C          -9.9321  -19.5481   19.7207 C.ar    1  UNL1        0.0002
      6 C          -8.5709  -19.4060   20.3349 C.ar    1  UNL1        0.0029
      7 C          -7.3497  -19.4234   19.4642 C.ar    1  UNL1        0.0001
      8 C          -5.9886  -19.2813   20.0784 C.ar    1  UNL1        0.0000
      9 C          -5.8488  -19.1219   21.5633 C.ar    1  UNL1        0.0001
     10 C          -7.0700  -19.1045   22.4340 C.ar    1  UNL1        0.0030
     11 C          -8.4311  -19.2466   21.8198 C.ar    1  UNL1        0.0340
     12 C          -9.6472  -17.7127   24.8001 C.3     1  UNL1        0.2358
     13 C          -9.4899  -16.4809   23.9587 C.3     1  UNL1        0.1697
     14 O         -10.6668  -15.9284   23.2106 O.3     1  UNL1       -0.3793
     15 H         -10.3955  -15.1366   22.7204 H       1  UNL1        0.2106
     16 C          -8.1557  -15.8016   23.8654 C.3     1  UNL1        0.1020
     17 N          -7.7017  -14.8865   24.9637 N.3     1  UNL1       -0.2964
     18 H          -7.1372  -14.1584   24.5258 H       1  UNL1        0.1233
     19 C          -7.5897  -15.9413   27.3353 C.3     1  UNL1        0.0171
     20 C          -6.8971  -15.4290   26.1074 C.3     1  UNL1        0.0541
     21 C          -5.3998  -15.4593   26.0233 C.3     1  UNL1        0.0171
@<TRIPOS>BOND
     1    19    20    1
     2    20    21    1
     3    20    17    1
     4    17    16    1
     5    16    13    1
     6    13    14    1
     7    13    12    1
     8    12     1    1
     9     1     2    1
    10     2     3   ar
    11     3     4   ar
    12     4     5   ar
    13     5     6   ar
    14     6     7   ar
    15     7     8   ar
    16     8     9   ar
    17     9    10   ar
    18    10    11   ar
    19    11     2   ar
    20    11     6   ar
    21    17    18    1
    22    14    15    1
@<TRIPOS>MOLECULE
*****
 21 22 0 0 0
SMALL
GASTEIGER

@<TRIPOS>ATOM
      1 O          -8.4212  -17.9177   22.7177 O.3     1  UNL1       -0.4728
      2 C          -6.9244  -17.8377   22.7749 C.ar    1  UNL1        0.1386
      3 C          -6.2611  -16.7993   23.6303 C.ar    1  UNL1        0.0369
      4 C          -4.7643  -16.7193   23.6875 C.ar    1  UNL1        0.0031
      5 C          -3.9309  -17.6775   22.8894 C.ar    1  UNL1        0.0002
      6 C          -4.5943  -18.7159   22.0339 C.ar    1  UNL1        0.0029
      7 C          -3.7609  -19.6742   21.2357 C.ar    1  UNL1        0.0001
      8 C          -4.4242  -20.7125   20.3803 C.ar    1  UNL1        0.0000
      9 C          -5.9210  -20.7926   20.3231 C.ar    1  UNL1        0.0001
     10 C          -6.7544  -19.8343   21.1213 C.ar    1  UNL1        0.0030
     11 C          -6.0910  -18.7960   21.9767 C.ar    1  UNL1        0.0340
     12 C          -9.2124  -18.0817   23.9814 C.3     1  UNL1        0.2358
     13 C         -10.0829  -19.2886   24.1700 C.3     1  UNL1        0.1697
     14 O         -10.0699  -20.0261   25.4761 O.3     1  UNL1       -0.3793
     15 H         -10.6846  -20.7751   25.4306 H       1  UNL1        0.2106
     16 C         -10.9665  -19.7580   23.0524 C.3     1  UNL1        0.1020
     17 N         -11.2795  -18.8404   21.9078 N.3     1  UNL1       -0.2964
     18 H         -10.4076  -18.3741   21.6574 H       1  UNL1        0.1233
     19 C         -13.2500  -17.7962   23.2407 C.3     1  UNL1        0.0171
     20 C         -12.3142  -17.7664   22.0689 C.3     1  UNL1        0.0541
     21 C         -12.4130  -16.6627   21.0580 C.3     1  UNL1        0.0171
@<TRIPOS>BOND
     1    19    20    1
     2    20    21    1
     3    20    17    1
     4    17    16    1
     5    16    13    1
     6    13    14    1
     7    13    12    1
     8    12     1    1
     9     1     2    1
    10     2     3   ar
    11     3     4   ar
    12     4     5   ar
    13     5     6   ar
    14     6     7   ar
    15     7     8   ar
    16     8     9   ar
    17     9    10   ar
    18    10    11   ar
    19    11     2   ar
    20    11     6   ar
    21    17    18    1
    22    14    15    1
@<TRIPOS>MOLECULE
*****
 21 22 0 0 0
SMALL
GASTEIGER

@<TRIPOS>ATOM
      1 O          -8.4307  -19.9488   21.5772 O.3     1  UNL1       -0.4728
      2 C          -9.6701  -19.1527   21.2942 C.ar    1  UNL1        0.1386
      3 C          -9.9054  -18.5936   19.9224 C.ar    1  UNL1        0.0369
      4 C         -11.1448  -17.7975   19.6394 C.ar    1  UNL1        0.0031
      5 C         -12.1489  -17.5605   20.7282 C.ar    1  UNL1        0.0002
      6 C         -11.9136  -18.1196   22.1001 C.ar    1  UNL1        0.0029
      7 C         -12.9177  -17.8827   23.1890 C.ar    1  UNL1        0.0001
      8 C         -12.6824  -18.4418   24.5608 C.ar    1  UNL1        0.0000
      9 C         -11.4430  -19.2379   24.8438 C.ar    1  UNL1        0.0001
     10 C         -10.4389  -19.4749   23.7549 C.ar    1  UNL1        0.0030
     11 C         -10.6742  -18.9157   22.3831 C.ar    1  UNL1        0.0340
     12 C          -7.1955  -19.2609   22.0782 C.3     1  UNL1        0.2358
     13 C          -6.0955  -18.9046   21.1225 C.3     1  UNL1        0.1697
     14 O          -6.4230  -18.5351   19.7062 O.3     1  UNL1       -0.3793
     15 H          -5.6039  -18.3347   19.2267 H       1  UNL1        0.2106
     16 C          -4.6681  -18.9179   21.5834 C.3     1  UNL1        0.1020
     17 N          -3.5638  -18.6209   20.6126 N.3     1  UNL1       -0.2964
     18 H          -3.1917  -19.5198   20.3060 H       1  UNL1        0.1233
     19 C          -2.5031  -16.8978   22.2422 C.3     1  UNL1        0.0171
     20 C          -2.3908  -17.7905   21.0420 C.3     1  UNL1        0.0541
     21 C          -1.1056  -17.8527   20.2712 C.3     1  UNL1        0.0171
@<TRIPOS>BOND
     1    19    20    1
     2    20    21    1
     3    20    17    1
     4    17    16    1
     5    16    13    1
     6    13    14    1
     7    13    12    1
     8    12     1    1
     9     1     2    1
    10     2     3   ar
    11     3     4   ar
    12     4     5   ar
    13     5     6   ar
    14     6     7   ar
    15     7     8   ar
    16     8     9   ar
    17     9    10   ar
    18    10    11   ar
    19    11     2   ar
    20    11     6   ar
    21    17    18    1
    22    14    15    1
