@<TRIPOS>MOLECULE
*****
 34 36 0 0 0
SMALL
GASTEIGER

@<TRIPOS>ATOM
      1 O           8.7636   -9.6142   27.9490 O.2     1  UNL1       -0.2701
      2 C           7.5390   -9.1388   27.2249 C.2     1  UNL1        0.2462
      3 N           6.2910   -9.9710   27.2355 N.am    1  UNL1       -0.2969
      4 H           5.4872   -9.6590   26.7603 H       1  UNL1        0.1501
      5 C           7.5623   -7.8314   26.4901 C.ar    1  UNL1        0.0557
      6 C           7.1514   -6.5701   27.1904 C.ar    1  UNL1        0.0060
      7 C           7.1747   -5.2626   26.4556 C.ar    1  UNL1        0.0226
      8 C           7.6090   -5.2163   25.0206 C.ar    1  UNL1        0.1525
      9 C           8.0200   -6.4776   24.3203 C.ar    1  UNL1        0.1590
     10 F           8.4543   -6.4314   22.8854 F       1  UNL1       -0.2027
     11 C           7.9966   -7.7851   25.0552 C.ar    1  UNL1        0.0355
     12 S           7.6324   -3.9089   24.2858 S.O2    1  UNL1        0.0772
     13 O           6.1375   -3.9482   24.1684 O.2     1  UNL1       -0.1498
     14 O           9.1272   -3.8695   24.4033 O.2     1  UNL1       -0.1498
     15 N           7.6557   -2.6014   23.5511 N.pl3   1  UNL1       -0.1925
     16 H           7.9785   -1.7885   24.0030 H       1  UNL1        0.1758
     17 C           7.1873   -2.5324   22.1277 C.ar    1  UNL1        0.1977
     18 N           6.0856   -1.6598   21.6034 N.ar    1  UNL1       -0.1997
     19 C           5.9557   -1.9120   20.1305 C.ar    1  UNL1        0.2082
     20 N           6.9771   -2.9405   19.7445 N.ar    1  UNL1       -0.1840
     21 S           7.7383   -3.3239   20.9789 S.2     1  UNL1        0.0508
     22 C           6.2676  -11.2785   27.9703 C.3     1  UNL1        0.1166
     23 C           5.0380  -12.1370   27.9347 C.ar    1  UNL1       -0.0015
     24 C           4.7954  -13.0518   26.7710 C.ar    1  UNL1        0.0006
     25 C           3.5659  -13.9102   26.7355 C.ar    1  UNL1        0.0378
     26 C           2.5789  -13.8538   27.8637 C.ar    1  UNL1        0.1572
     27 C           2.8215  -12.9390   29.0273 C.ar    1  UNL1        0.0915
     28 CL          1.8346  -12.8826   30.1555 Cl      1  UNL1       -0.0791
     29 C           4.0511  -12.0806   29.0629 C.ar    1  UNL1        0.0118
     30 O           1.3494  -14.7123   27.8281 O.3     1  UNL1       -0.4036
     31 C           1.3780  -16.0884   28.4242 C.3     1  UNL1        0.5753
     32 F           1.4065  -17.4647   29.0203 F       1  UNL1       -0.1328
     33 F          -0.0999  -16.2156   28.2015 F       1  UNL1       -0.1328
     34 F           2.8558  -15.9613   28.6469 F       1  UNL1       -0.1328
@<TRIPOS>BOND
     1     1     2    2
     2     2     3   am
     3     3    22    1
     4    22    23    1
     5    23    24   ar
     6    24    25   ar
     7    25    26   ar
     8    26    30    1
     9    30    31    1
    10    31    32    1
    11    31    33    1
    12    31    34    1
    13    26    27   ar
    14    27    28    1
    15    27    29   ar
    16     2     5    1
    17     5     6   ar
    18     6     7   ar
    19     7     8   ar
    20     8    12    1
    21    12    13    2
    22    12    14    2
    23    12    15    1
    24    15    17    1
    25    17    18   ar
    26    18    19   ar
    27    19    20   ar
    28    20    21   ar
    29     8     9   ar
    30     9    10    1
    31     9    11   ar
    32    29    23   ar
    33    11     5   ar
    34    21    17   ar
    35     3     4    1
    36    15    16    1
@<TRIPOS>MOLECULE
*****
 34 36 0 0 0
SMALL
GASTEIGER

@<TRIPOS>ATOM
      1 O           9.3795  -10.3707   27.7531 O.2     1  UNL1       -0.2701
      2 C           8.1284   -9.5563   27.6060 C.2     1  UNL1        0.2462
      3 N           6.7861  -10.2161   27.7214 N.am    1  UNL1       -0.2969
      4 H           5.9650   -9.6816   27.6249 H       1  UNL1        0.1501
      5 C           8.2195   -8.0823   27.3436 C.ar    1  UNL1        0.0557
      6 C           9.0572   -7.2125   28.2332 C.ar    1  UNL1        0.0060
      7 C           9.1483   -5.7384   27.9707 C.ar    1  UNL1        0.0226
      8 C           8.4016   -5.1342   26.8185 C.ar    1  UNL1        0.1525
      9 C           7.5639   -6.0041   25.9289 C.ar    1  UNL1        0.1590
     10 F           6.8172   -5.3999   24.7768 F       1  UNL1       -0.2027
     11 C           7.4728   -7.4782   26.1914 C.ar    1  UNL1        0.0355
     12 S           8.4927   -3.6602   26.5561 S.O2    1  UNL1        0.0772
     13 O           9.5352   -3.9114   25.5073 O.2     1  UNL1       -0.1498
     14 O           7.4502   -3.4090   27.6049 O.2     1  UNL1       -0.1498
     15 N           8.5838   -2.1862   26.2936 N.pl3   1  UNL1       -0.1925
     16 H           9.4543   -1.7295   26.3476 H       1  UNL1        0.1758
     17 C           7.3486   -1.4080   25.9488 C.ar    1  UNL1        0.1977
     18 N           6.5301   -0.5863   26.9000 N.ar    1  UNL1       -0.1997
     19 C           5.3907    0.0146   26.1314 C.ar    1  UNL1        0.2082
     20 N           5.5052   -0.4357   24.7051 N.ar    1  UNL1       -0.1840
     21 S           6.7152   -1.3149   24.5923 S.2     1  UNL1        0.0508
     22 C           6.6950  -11.6901   27.9839 C.3     1  UNL1        0.1166
     23 C           5.3717  -12.3893   27.8842 C.ar    1  UNL1       -0.0015
     24 C           5.0641  -13.2463   26.6922 C.ar    1  UNL1        0.0006
     25 C           3.7408  -13.9454   26.5926 C.ar    1  UNL1        0.0378
     26 C           2.7250  -13.7876   27.6850 C.ar    1  UNL1        0.1572
     27 C           3.0326  -12.9306   28.8770 C.ar    1  UNL1        0.0915
     28 CL          2.0168  -12.7728   29.9694 Cl      1  UNL1       -0.0791
     29 C           4.3559  -12.2315   28.9766 C.ar    1  UNL1        0.0118
     30 O           1.4017  -14.4868   27.5853 O.3     1  UNL1       -0.4036
     31 C           1.1999  -15.8103   28.2616 C.3     1  UNL1        0.5753
     32 F           0.9982  -17.1340   28.9379 F       1  UNL1       -0.1328
     33 F           2.6805  -16.0492   28.2358 F       1  UNL1       -0.1328
     34 F          -0.2807  -15.5715   28.2874 F       1  UNL1       -0.1328
@<TRIPOS>BOND
     1     1     2    2
     2     2     3   am
     3     3    22    1
     4    22    23    1
     5    23    24   ar
     6    24    25   ar
     7    25    26   ar
     8    26    30    1
     9    30    31    1
    10    31    32    1
    11    31    33    1
    12    31    34    1
    13    26    27   ar
    14    27    28    1
    15    27    29   ar
    16     2     5    1
    17     5     6   ar
    18     6     7   ar
    19     7     8   ar
    20     8    12    1
    21    12    13    2
    22    12    14    2
    23    12    15    1
    24    15    17    1
    25    17    18   ar
    26    18    19   ar
    27    19    20   ar
    28    20    21   ar
    29     8     9   ar
    30     9    10    1
    31     9    11   ar
    32    29    23   ar
    33    11     5   ar
    34    21    17   ar
    35     3     4    1
    36    15    16    1
@<TRIPOS>MOLECULE
*****
 34 36 0 0 0
SMALL
GASTEIGER

@<TRIPOS>ATOM
      1 O          -1.8677    3.7524   19.1888 O.2     1  UNL1       -0.2701
      2 C          -1.5837    3.0440   20.4801 C.2     1  UNL1        0.2462
      3 N          -0.5739    1.9355   20.5211 N.am    1  UNL1       -0.2969
      4 H          -0.3875    1.4705   21.3686 H       1  UNL1        0.1501
      5 C          -2.3095    3.4439   21.7304 C.ar    1  UNL1        0.0557
      6 C          -1.5742    3.5089   23.0362 C.ar    1  UNL1        0.0060
      7 C          -2.3000    3.9089   24.2865 C.ar    1  UNL1        0.0226
      8 C          -3.7612    4.2439   24.2309 C.ar    1  UNL1        0.1525
      9 C          -4.4964    4.1789   22.9251 C.ar    1  UNL1        0.1590
     10 F          -5.9574    4.5138   22.8695 F       1  UNL1       -0.2027
     11 C          -3.7705    3.7789   21.6748 C.ar    1  UNL1        0.0355
     12 S          -4.4869    4.6438   25.4812 S.O2    1  UNL1        0.0772
     13 O          -5.1367    3.2930   25.5361 O.2     1  UNL1       -0.1498
     14 O          -3.8372    5.9946   25.4263 O.2     1  UNL1       -0.1498
     15 N          -5.2127    5.0438   26.7315 N.pl3   1  UNL1       -0.1925
     16 H          -4.8733    4.7582   27.6104 H       1  UNL1        0.1758
     17 C          -6.4557    5.8788   26.6426 C.ar    1  UNL1        0.1977
     18 N          -7.2498    6.1483   25.3989 N.ar    1  UNL1       -0.1997
     19 C          -8.4076    7.0270   25.7695 C.ar    1  UNL1        0.2082
     20 N          -8.3290    7.3006   27.2422 N.ar    1  UNL1       -0.1840
     21 S          -7.1227    6.5910   27.7818 S.2     1  UNL1        0.0508
     22 C           0.1519    1.5356   19.2708 C.3     1  UNL1        0.1166
     23 C           1.2903    0.5614   19.3434 C.ar    1  UNL1       -0.0015
     24 C           1.4453   -0.3227   20.5452 C.ar    1  UNL1        0.0006
     25 C           2.5836   -1.2968   20.6178 C.ar    1  UNL1        0.0378
     26 C           3.5669   -1.3868   19.4886 C.ar    1  UNL1        0.1572
     27 C           3.4119   -0.5027   18.2868 C.ar    1  UNL1        0.0915
     28 CL          4.3952   -0.5927   17.1577 Cl      1  UNL1       -0.0791
     29 C           2.2736    0.4714   18.2143 C.ar    1  UNL1        0.0118
     30 O           4.7053   -2.3610   19.5612 O.3     1  UNL1       -0.4036
     31 C           4.5788   -3.7114   18.9206 C.3     1  UNL1        0.5753
     32 F           4.4524   -5.0618   18.2800 F       1  UNL1       -0.1328
     33 F           3.5629   -4.1052   19.9514 F       1  UNL1       -0.1328
     34 F           5.5948   -3.3175   17.8898 F       1  UNL1       -0.1328
@<TRIPOS>BOND
     1     1     2    2
     2     2     3   am
     3     3    22    1
     4    22    23    1
     5    23    24   ar
     6    24    25   ar
     7    25    26   ar
     8    26    30    1
     9    30    31    1
    10    31    32    1
    11    31    33    1
    12    31    34    1
    13    26    27   ar
    14    27    28    1
    15    27    29   ar
    16     2     5    1
    17     5     6   ar
    18     6     7   ar
    19     7     8   ar
    20     8    12    1
    21    12    13    2
    22    12    14    2
    23    12    15    1
    24    15    17    1
    25    17    18   ar
    26    18    19   ar
    27    19    20   ar
    28    20    21   ar
    29     8     9   ar
    30     9    10    1
    31     9    11   ar
    32    29    23   ar
    33    11     5   ar
    34    21    17   ar
    35     3     4    1
    36    15    16    1
@<TRIPOS>MOLECULE
*****
 34 36 0 0 0
SMALL
GASTEIGER

@<TRIPOS>ATOM
      1 O          -0.1971    2.9484   18.3071 O.2     1  UNL1       -0.2701
      2 C          -0.0415    2.0348   19.4866 C.2     1  UNL1        0.2462
      3 N          -0.9464    2.1820   20.6738 N.am    1  UNL1       -0.2969
      4 H          -0.8443    1.5825   21.4480 H       1  UNL1        0.1501
      5 C           1.0191    0.9741   19.4789 C.ar    1  UNL1        0.0557
      6 C           1.2502    0.1357   20.7011 C.ar    1  UNL1        0.0060
      7 C           2.3107   -0.9250   20.6934 C.ar    1  UNL1        0.0226
      8 C           3.1402   -1.1474   19.4635 C.ar    1  UNL1        0.1525
      9 C           2.9091   -0.3090   18.2413 C.ar    1  UNL1        0.1590
     10 F           3.7385   -0.5313   17.0114 F       1  UNL1       -0.2027
     11 C           1.8485    0.7518   18.2490 C.ar    1  UNL1        0.0355
     12 S           4.2007   -2.2081   19.4558 S.O2    1  UNL1        0.0772
     13 O           3.1522   -3.2548   19.2214 O.2     1  UNL1       -0.1498
     14 O           5.2493   -1.1614   19.6901 O.2     1  UNL1       -0.1498
     15 N           5.2613   -3.2688   19.4481 N.pl3   1  UNL1       -0.1925
     16 H           5.5442   -3.6759   18.5975 H       1  UNL1        0.1758
     17 C           5.8908   -3.7093   20.7364 C.ar    1  UNL1        0.1977
     18 N           7.2710   -4.2749   20.8951 N.ar    1  UNL1       -0.1997
     19 C           7.4840   -4.5768   22.3489 C.ar    1  UNL1        0.2082
     20 N           6.2353   -4.1977   23.0887 N.ar    1  UNL1       -0.1840
     21 S           5.2507   -3.6616   22.0921 S.2     1  UNL1        0.0508
     22 C          -2.0070    3.2427   20.6815 C.3     1  UNL1        0.1166
     23 C          -2.8844    3.4174   21.8856 C.ar    1  UNL1       -0.0015
     24 C          -2.2808    3.4250   23.2587 C.ar    1  UNL1        0.0006
     25 C          -3.1582    3.5996   24.4627 C.ar    1  UNL1        0.0378
     26 C          -4.6392    3.7666   24.2936 C.ar    1  UNL1        0.1572
     27 C          -5.2429    3.7590   22.9204 C.ar    1  UNL1        0.0915
     28 CL         -6.7239    3.9260   22.7513 Cl      1  UNL1       -0.0791
     29 C          -4.3654    3.5844   21.7165 C.ar    1  UNL1        0.0118
     30 O          -5.5167    3.9412   25.4976 O.3     1  UNL1       -0.4036
     31 C          -5.1710    4.9679   26.5350 C.3     1  UNL1        0.5753
     32 F          -4.8253    5.9948   27.5724 F       1  UNL1       -0.1328
     33 F          -5.9337    6.0040   25.7638 F       1  UNL1       -0.1328
     34 F          -4.4082    3.9319   27.3062 F       1  UNL1       -0.1328
@<TRIPOS>BOND
     1     1     2    2
     2     2     3   am
     3     3    22    1
     4    22    23    1
     5    23    24   ar
     6    24    25   ar
     7    25    26   ar
     8    26    30    1
     9    30    31    1
    10    31    32    1
    11    31    33    1
    12    31    34    1
    13    26    27   ar
    14    27    28    1
    15    27    29   ar
    16     2     5    1
    17     5     6   ar
    18     6     7   ar
    19     7     8   ar
    20     8    12    1
    21    12    13    2
    22    12    14    2
    23    12    15    1
    24    15    17    1
    25    17    18   ar
    26    18    19   ar
    27    19    20   ar
    28    20    21   ar
    29     8     9   ar
    30     9    10    1
    31     9    11   ar
    32    29    23   ar
    33    11     5   ar
    34    21    17   ar
    35     3     4    1
    36    15    16    1
@<TRIPOS>MOLECULE
*****
 34 36 0 0 0
SMALL
GASTEIGER

@<TRIPOS>ATOM
      1 O           1.9376    2.6063   21.7812 O.2     1  UNL1       -0.2701
      2 C           1.0187    1.6087   22.4218 C.2     1  UNL1        0.2462
      3 N           0.2711    0.6241   21.5723 N.am    1  UNL1       -0.2969
      4 H          -0.3320   -0.0307   21.9927 H       1  UNL1        0.1501
      5 C           0.8474    1.5958   23.9119 C.ar    1  UNL1        0.0557
      6 C           1.9266    1.0291   24.7860 C.ar    1  UNL1        0.0060
      7 C           1.7553    1.0161   26.2761 C.ar    1  UNL1        0.0226
      8 C           0.5047    1.5698   26.8922 C.ar    1  UNL1        0.1525
      9 C          -0.5746    2.1365   26.0180 C.ar    1  UNL1        0.1590
     10 F          -1.8252    2.6901   26.6340 F       1  UNL1       -0.2027
     11 C          -0.4032    2.1494   24.5278 C.ar    1  UNL1        0.0355
     12 S           0.3333    1.5568   28.3823 S.O2    1  UNL1        0.0772
     13 O          -0.4819    0.3021   28.2776 O.2     1  UNL1       -0.1498
     14 O           1.1485    2.8116   28.4869 O.2     1  UNL1       -0.1498
     15 N           0.1620    1.5438   29.8724 N.pl3   1  UNL1       -0.1925
     16 H          -0.6894    1.8340   30.2725 H       1  UNL1        0.1758
     17 C           1.2879    1.0887   30.7529 C.ar    1  UNL1        0.1977
     18 N           2.0940   -0.1640   30.5766 N.ar    1  UNL1       -0.1997
     19 C           3.1097   -0.2206   31.6789 C.ar    1  UNL1        0.2082
     20 N           2.9313    0.9971   32.5365 N.ar    1  UNL1       -0.1840
     21 S           1.8054    1.8062   31.9642 S.2     1  UNL1        0.0508
     22 C           0.4424    0.6371   20.0822 C.3     1  UNL1        0.1166
     23 C           1.6092   -0.0671   19.4552 C.ar    1  UNL1       -0.0015
     24 C           2.2012    0.4527   18.1788 C.ar    1  UNL1        0.0006
     25 C           3.3678   -0.2514   17.5518 C.ar    1  UNL1        0.0378
     26 C           3.9424   -1.4754   18.2013 C.ar    1  UNL1        0.1572
     27 C           3.3504   -1.9952   19.4777 C.ar    1  UNL1        0.0915
     28 CL          3.9250   -3.2191   20.1272 Cl      1  UNL1       -0.0791
     29 C           2.1837   -1.2910   20.1047 C.ar    1  UNL1        0.0118
     30 O           5.1091   -2.1795   17.5743 O.3     1  UNL1       -0.4036
     31 C           6.5088   -1.7945   17.9521 C.3     1  UNL1        0.5753
     32 F           7.9085   -1.4096   18.3299 F       1  UNL1       -0.1328
     33 F           6.6050   -3.0064   18.8308 F       1  UNL1       -0.1328
     34 F           6.4126   -0.5827   17.0734 F       1  UNL1       -0.1328
@<TRIPOS>BOND
     1     1     2    2
     2     2     3   am
     3     3    22    1
     4    22    23    1
     5    23    24   ar
     6    24    25   ar
     7    25    26   ar
     8    26    30    1
     9    30    31    1
    10    31    32    1
    11    31    33    1
    12    31    34    1
    13    26    27   ar
    14    27    28    1
    15    27    29   ar
    16     2     5    1
    17     5     6   ar
    18     6     7   ar
    19     7     8   ar
    20     8    12    1
    21    12    13    2
    22    12    14    2
    23    12    15    1
    24    15    17    1
    25    17    18   ar
    26    18    19   ar
    27    19    20   ar
    28    20    21   ar
    29     8     9   ar
    30     9    10    1
    31     9    11   ar
    32    29    23   ar
    33    11     5   ar
    34    21    17   ar
    35     3     4    1
    36    15    16    1
@<TRIPOS>MOLECULE
*****
 34 36 0 0 0
SMALL
GASTEIGER

@<TRIPOS>ATOM
      1 O          -0.4491    4.2249   18.6917 O.2     1  UNL1       -0.2701
      2 C          -0.8136    3.1555   19.6783 C.2     1  UNL1        0.2462
      3 N          -0.1076    1.8323   19.6451 N.am    1  UNL1       -0.2969
      4 H          -0.3469    1.1304   20.2926 H       1  UNL1        0.1501
      5 C          -1.8839    3.4091   20.6981 C.ar    1  UNL1        0.0557
      6 C          -1.5097    3.7103   22.1191 C.ar    1  UNL1        0.0060
      7 C          -2.5801    3.9639   23.1389 C.ar    1  UNL1        0.0226
      8 C          -4.0247    3.9163   22.7377 C.ar    1  UNL1        0.1525
      9 C          -4.3989    3.6151   21.3167 C.ar    1  UNL1        0.1590
     10 F          -5.8434    3.5675   20.9154 F       1  UNL1       -0.2027
     11 C          -3.3284    3.3615   20.2969 C.ar    1  UNL1        0.0355
     12 S          -5.0950    4.1699   23.7574 S.O2    1  UNL1        0.0772
     13 O          -4.9819    2.7505   24.2292 O.2     1  UNL1       -0.1498
     14 O          -5.2082    5.5893   23.2857 O.2     1  UNL1       -0.1498
     15 N          -6.1654    4.4235   24.7772 N.pl3   1  UNL1       -0.1925
     16 H          -7.0676    4.0517   24.6467 H       1  UNL1        0.1758
     17 C          -5.8611    5.2436   25.9959 C.ar    1  UNL1        0.1977
     18 N          -6.7288    6.3236   26.5710 N.ar    1  UNL1       -0.1997
     19 C          -6.0397    6.8751   27.7838 C.ar    1  UNL1        0.2082
     20 N          -4.7462    6.1359   27.9583 N.ar    1  UNL1       -0.1840
     21 S          -4.6358    5.1275   26.8533 S.2     1  UNL1        0.0508
     22 C           0.9627    1.5787   18.6253 C.3     1  UNL1        0.1166
     23 C           1.9934    0.5162   18.8681 C.ar    1  UNL1       -0.0015
     24 C           1.7180   -0.5860   19.8476 C.ar    1  UNL1        0.0006
     25 C           2.7486   -1.6484   20.0903 C.ar    1  UNL1        0.0378
     26 C           4.0546   -1.6087   19.3536 C.ar    1  UNL1        0.1572
     27 C           4.3300   -0.5066   18.3741 C.ar    1  UNL1        0.0915
     28 CL          5.6360   -0.4669   17.6374 Cl      1  UNL1       -0.0791
     29 C           3.2994    0.5559   18.1313 C.ar    1  UNL1        0.0118
     30 O           5.0853   -2.6712   19.5964 O.3     1  UNL1       -0.4036
     31 C           4.9030   -4.0405   19.0117 C.3     1  UNL1        0.5753
     32 F           4.7207   -5.4098   18.4270 F       1  UNL1       -0.1328
     33 F           4.3401   -4.5224   20.3158 F       1  UNL1       -0.1328
     34 F           5.4658   -3.5585   17.7075 F       1  UNL1       -0.1328
@<TRIPOS>BOND
     1     1     2    2
     2     2     3   am
     3     3    22    1
     4    22    23    1
     5    23    24   ar
     6    24    25   ar
     7    25    26   ar
     8    26    30    1
     9    30    31    1
    10    31    32    1
    11    31    33    1
    12    31    34    1
    13    26    27   ar
    14    27    28    1
    15    27    29   ar
    16     2     5    1
    17     5     6   ar
    18     6     7   ar
    19     7     8   ar
    20     8    12    1
    21    12    13    2
    22    12    14    2
    23    12    15    1
    24    15    17    1
    25    17    18   ar
    26    18    19   ar
    27    19    20   ar
    28    20    21   ar
    29     8     9   ar
    30     9    10    1
    31     9    11   ar
    32    29    23   ar
    33    11     5   ar
    34    21    17   ar
    35     3     4    1
    36    15    16    1
@<TRIPOS>MOLECULE
*****
 34 36 0 0 0
SMALL
GASTEIGER

@<TRIPOS>ATOM
      1 O           8.4099   -6.6221   22.2164 O.2     1  UNL1       -0.2701
      2 C           8.3880   -5.3689   23.0404 C.2     1  UNL1        0.2462
      3 N           8.5727   -4.0343   22.3809 N.am    1  UNL1       -0.2969
      4 H           8.5583   -3.2118   22.9218 H       1  UNL1        0.1501
      5 C           8.1816   -5.4503   24.5239 C.ar    1  UNL1        0.0557
      6 C           7.8367   -6.7631   25.1622 C.ar    1  UNL1        0.0060
      7 C           7.6302   -6.8445   26.6457 C.ar    1  UNL1        0.0226
      8 C           7.7686   -5.6130   27.4909 C.ar    1  UNL1        0.1525
      9 C           8.1135   -4.3001   26.8525 C.ar    1  UNL1        0.1590
     10 F           8.2519   -3.0687   27.6977 F       1  UNL1       -0.2027
     11 C           8.3200   -4.2188   25.3690 C.ar    1  UNL1        0.0355
     12 S           7.5621   -5.6944   28.9743 S.O2    1  UNL1        0.0772
     13 O           8.9815   -6.1478   29.1470 O.2     1  UNL1       -0.1498
     14 O           6.1428   -5.2410   28.8017 O.2     1  UNL1       -0.1498
     15 N           7.3557   -5.7757   30.4578 N.pl3   1  UNL1       -0.1925
     16 H           7.0715   -6.6237   30.8695 H       1  UNL1        0.1758
     17 C           7.5822   -4.5651   31.3141 C.ar    1  UNL1        0.1977
     18 N           8.9085   -3.9297   31.6094 N.ar    1  UNL1       -0.1997
     19 C           8.6682   -2.7493   32.5033 C.ar    1  UNL1        0.2082
     20 N           7.1934   -2.6552   32.7603 N.ar    1  UNL1       -0.1840
     21 S           6.5222   -3.7774   32.0254 S.2     1  UNL1        0.0508
     22 C           8.7791   -3.9529   20.8975 C.3     1  UNL1        0.1166
     23 C           7.6650   -3.4830   20.0098 C.ar    1  UNL1       -0.0015
     24 C           7.9142   -2.3988   19.0036 C.ar    1  UNL1        0.0006
     25 C           6.8001   -1.9289   18.1160 C.ar    1  UNL1        0.0378
     26 C           5.4368   -2.5431   18.2346 C.ar    1  UNL1        0.1572
     27 C           5.1876   -3.6273   19.2408 C.ar    1  UNL1        0.0915
     28 CL          3.8243   -4.2416   19.3593 Cl      1  UNL1       -0.0791
     29 C           6.3017   -4.0972   20.1284 C.ar    1  UNL1        0.0118
     30 O           4.3226   -2.0732   17.3469 O.3     1  UNL1       -0.4036
     31 C           3.7670   -0.6894   17.5096 C.3     1  UNL1        0.5753
     32 F           3.2112    0.6943   17.6723 F       1  UNL1       -0.1328
     33 F           3.0564   -1.1215   18.7579 F       1  UNL1       -0.1328
     34 F           4.4775   -0.2574   16.2613 F       1  UNL1       -0.1328
@<TRIPOS>BOND
     1     1     2    2
     2     2     3   am
     3     3    22    1
     4    22    23    1
     5    23    24   ar
     6    24    25   ar
     7    25    26   ar
     8    26    30    1
     9    30    31    1
    10    31    32    1
    11    31    33    1
    12    31    34    1
    13    26    27   ar
    14    27    28    1
    15    27    29   ar
    16     2     5    1
    17     5     6   ar
    18     6     7   ar
    19     7     8   ar
    20     8    12    1
    21    12    13    2
    22    12    14    2
    23    12    15    1
    24    15    17    1
    25    17    18   ar
    26    18    19   ar
    27    19    20   ar
    28    20    21   ar
    29     8     9   ar
    30     9    10    1
    31     9    11   ar
    32    29    23   ar
    33    11     5   ar
    34    21    17   ar
    35     3     4    1
    36    15    16    1
@<TRIPOS>MOLECULE
*****
 34 36 0 0 0
SMALL
GASTEIGER

@<TRIPOS>ATOM
      1 O           2.0033    2.9846   25.9109 O.2     1  UNL1       -0.2701
      2 C           0.8583    2.1894   25.3573 C.2     1  UNL1        0.2462
      3 N           1.0808    0.7832   24.8846 N.am    1  UNL1       -0.2969
      4 H           0.3293    0.2613   24.5212 H       1  UNL1        0.1501
      5 C          -0.5093    2.8002   25.2763 C.ar    1  UNL1        0.0557
      6 C          -1.3129    3.0083   26.5256 C.ar    1  UNL1        0.0060
      7 C          -2.6805    3.6192   26.4446 C.ar    1  UNL1        0.0226
      8 C          -3.2444    4.0220   25.1142 C.ar    1  UNL1        0.1525
      9 C          -2.4408    3.8139   23.8649 C.ar    1  UNL1        0.1590
     10 F          -3.0046    4.2166   22.5346 F       1  UNL1       -0.2027
     11 C          -1.0731    3.2030   23.9460 C.ar    1  UNL1        0.0355
     12 S          -4.6120    4.6329   25.0333 S.O2    1  UNL1        0.0772
     13 O          -5.2278    3.2849   25.2648 O.2     1  UNL1       -0.1498
     14 O          -3.9961    5.9808   24.8017 O.2     1  UNL1       -0.1498
     15 N          -5.9795    5.2437   24.9523 N.pl3   1  UNL1       -0.1925
     16 H          -6.4621    5.2583   24.0943 H       1  UNL1        0.1758
     17 C          -6.6118    5.8325   26.1785 C.ar    1  UNL1        0.1977
     18 N          -6.0573    5.7740   27.5711 N.ar    1  UNL1       -0.1997
     19 C          -7.0123    6.4884   28.4807 C.ar    1  UNL1        0.2082
     20 N          -8.1571    6.9884   27.6504 N.ar    1  UNL1       -0.1840
     21 S          -7.9096    6.5830   26.2276 S.2     1  UNL1        0.0508
     22 C           2.4484    0.1724   24.9656 C.3     1  UNL1        0.1166
     23 C           2.9867   -0.6176   23.8096 C.ar    1  UNL1       -0.0015
     24 C           2.5909   -0.2598   22.4077 C.ar    1  UNL1        0.0006
     25 C           3.1292   -1.0497   21.2517 C.ar    1  UNL1        0.0378
     26 C           4.0632   -2.1974   21.4977 C.ar    1  UNL1        0.1572
     27 C           4.4589   -2.5552   22.8996 C.ar    1  UNL1        0.0915
     28 CL          5.3929   -3.7029   23.1455 Cl      1  UNL1       -0.0791
     29 C           3.9206   -1.7653   24.0555 C.ar    1  UNL1        0.0118
     30 O           4.6015   -2.9873   20.3416 O.3     1  UNL1       -0.4036
     31 C           3.6789   -3.8387   19.5206 C.3     1  UNL1        0.5753
     32 F           2.7563   -4.6900   18.6995 F       1  UNL1       -0.1328
     33 F           3.6143   -2.7627   18.4776 F       1  UNL1       -0.1328
     34 F           3.7436   -4.9146   20.5637 F       1  UNL1       -0.1328
@<TRIPOS>BOND
     1     1     2    2
     2     2     3   am
     3     3    22    1
     4    22    23    1
     5    23    24   ar
     6    24    25   ar
     7    25    26   ar
     8    26    30    1
     9    30    31    1
    10    31    32    1
    11    31    33    1
    12    31    34    1
    13    26    27   ar
    14    27    28    1
    15    27    29   ar
    16     2     5    1
    17     5     6   ar
    18     6     7   ar
    19     7     8   ar
    20     8    12    1
    21    12    13    2
    22    12    14    2
    23    12    15    1
    24    15    17    1
    25    17    18   ar
    26    18    19   ar
    27    19    20   ar
    28    20    21   ar
    29     8     9   ar
    30     9    10    1
    31     9    11   ar
    32    29    23   ar
    33    11     5   ar
    34    21    17   ar
    35     3     4    1
    36    15    16    1
@<TRIPOS>MOLECULE
*****
 34 36 0 0 0
SMALL
GASTEIGER

@<TRIPOS>ATOM
      1 O           4.3729   -4.4798   21.4612 O.2     1  UNL1       -0.2701
      2 C           4.8325   -3.0526   21.4168 C.2     1  UNL1        0.2462
      3 N           6.2707   -2.7191   21.6825 N.am    1  UNL1       -0.2969
      4 H           6.5723   -1.7824   21.6533 H       1  UNL1        0.1501
      5 C           3.8539   -1.9589   21.1068 C.ar    1  UNL1        0.0557
      6 C           3.1735   -1.2227   22.2227 C.ar    1  UNL1        0.0060
      7 C           2.1949   -0.1290   21.9126 C.ar    1  UNL1        0.0226
      8 C           1.8967    0.2285   20.4867 C.ar    1  UNL1        0.1525
      9 C           2.5770   -0.5077   19.3708 C.ar    1  UNL1        0.1590
     10 F           2.2788   -0.1502   17.9449 F       1  UNL1       -0.2027
     11 C           3.5556   -1.6014   19.6809 C.ar    1  UNL1        0.0355
     12 S           0.9181    1.3222   20.1767 S.O2    1  UNL1        0.0772
     13 O          -0.2187    0.3823   20.4490 O.2     1  UNL1       -0.1498
     14 O           2.0549    2.2621   19.9043 O.2     1  UNL1       -0.1498
     15 N          -0.0605    2.4159   19.8666 N.pl3   1  UNL1       -0.1925
     16 H          -0.0785    2.8206   18.9693 H       1  UNL1        0.1758
     17 C          -1.0118    2.8931   20.9238 C.ar    1  UNL1        0.1977
     18 N          -2.5061    2.9476   20.8056 N.ar    1  UNL1       -0.1997
     19 C          -3.0536    3.4877   22.0934 C.ar    1  UNL1        0.2082
     20 N          -1.8976    3.7670   23.0076 N.ar    1  UNL1       -0.1840
     21 S          -0.6357    3.3995   22.2847 S.2     1  UNL1        0.0508
     22 C           7.2492   -3.8128   21.9925 C.3     1  UNL1        0.1166
     23 C           7.3068   -4.3990   23.3721 C.ar    1  UNL1       -0.0015
     24 C           6.8134   -3.6052   24.5453 C.ar    1  UNL1        0.0006
     25 C           6.8710   -4.1914   25.9249 C.ar    1  UNL1        0.0378
     26 C           7.4218   -5.5712   26.1311 C.ar    1  UNL1        0.1572
     27 C           7.9152   -6.3649   24.9579 C.ar    1  UNL1        0.0915
     28 CL          8.4660   -7.7448   25.1641 Cl      1  UNL1       -0.0791
     29 C           7.8576   -5.7788   23.5784 C.ar    1  UNL1        0.0118
     30 O           7.4793   -6.1573   27.5107 O.3     1  UNL1       -0.4036
     31 C           6.9210   -5.3929   28.6742 C.3     1  UNL1        0.5753
     32 F           6.3625   -4.6284   29.8378 F       1  UNL1       -0.1328
     33 F           5.5290   -5.6782   28.1937 F       1  UNL1       -0.1328
     34 F           8.3129   -5.1076   29.1548 F       1  UNL1       -0.1328
@<TRIPOS>BOND
     1     1     2    2
     2     2     3   am
     3     3    22    1
     4    22    23    1
     5    23    24   ar
     6    24    25   ar
     7    25    26   ar
     8    26    30    1
     9    30    31    1
    10    31    32    1
    11    31    33    1
    12    31    34    1
    13    26    27   ar
    14    27    28    1
    15    27    29   ar
    16     2     5    1
    17     5     6   ar
    18     6     7   ar
    19     7     8   ar
    20     8    12    1
    21    12    13    2
    22    12    14    2
    23    12    15    1
    24    15    17    1
    25    17    18   ar
    26    18    19   ar
    27    19    20   ar
    28    20    21   ar
    29     8     9   ar
    30     9    10    1
    31     9    11   ar
    32    29    23   ar
    33    11     5   ar
    34    21    17   ar
    35     3     4    1
    36    15    16    1
