@<TRIPOS>MOLECULE
*****
 34 38 0 0 0
SMALL
GASTEIGER

@<TRIPOS>ATOM
      1 C           7.5937   -4.3099   22.7512 C.3     1  UNL1        0.1531
      2 C           6.1979   -4.2995   22.2021 C.3     1  UNL1        0.1067
      3 N           5.7631   -3.1997   21.2795 N.3     1  UNL1       -0.2665
      4 C           4.3672   -3.1892   20.7304 C.3     1  UNL1        0.0940
      5 C           3.9325   -2.0894   19.8077 C.3     1  UNL1        0.1107
      6 N           4.8935   -1.0000   19.4341 N.am    1  UNL1       -0.2763
      7 C           4.4587    0.0998   18.5114 C.2     1  UNL1        0.2318
      8 O           5.4197    1.1892   18.1378 O.2     1  UNL1       -0.2744
      9 C           6.2894   -1.0104   19.9832 C.3     1  UNL1        0.1119
     10 C           6.7242   -2.1103   20.9059 C.3     1  UNL1        0.1075
     11 C           8.1200   -2.1207   21.4549 C.3     1  UNL1        0.1601
     12 O           8.5548   -3.2205   22.3776 O.3     1  UNL1       -0.3489
     13 C           6.9807   -4.1387   25.6829 C.3     1  UNL1        0.0316
     14 C           7.7221   -5.3241   25.1397 C.ar    1  UNL1       -0.0117
     15 C           8.0286   -5.4098   23.6739 C.ar    1  UNL1        0.0027
     16 C           8.7699   -6.5952   23.1307 C.ar    1  UNL1        0.0001
     17 C           9.2048   -7.6951   24.0533 C.ar    1  UNL1        0.0301
     18 C           8.8983   -7.6095   25.5192 C.ar    1  UNL1        0.1493
     19 F           9.3331   -8.7093   26.4418 F       1  UNL1       -0.2035
     20 C           8.1569   -6.4240   26.0624 C.ar    1  UNL1        0.0916
     21 C           7.8504   -6.3383   27.5282 C.1     1  UNL1        0.1024
     22 N           7.5439   -6.2527   28.9940 N.1     1  UNL1       -0.1908
     23 C           3.0629    0.1103   17.9624 C.3     1  UNL1        0.1309
     24 C           1.9583    0.7690   18.7342 C.ar    1  UNL1        0.0683
     25 C           1.1812   -0.0157   19.7494 C.ar    1  UNL1        0.0168
     26 C           0.0766    0.6431   20.5213 C.ar    1  UNL1        0.0221
     27 C          -0.2510    2.0865   20.2781 C.ar    1  UNL1        0.1053
     28 C           0.5259    2.8712   19.2629 C.ar    1  UNL1        0.1176
     29 N           1.6306    2.2124   18.4910 N.ar    1  UNL1       -0.2461
     30 N          -1.3556    2.7453   21.0499 N.ar    1  UNL1       -0.1871
     31 C          -1.2262    3.3905   22.3979 C.ar    1  UNL1        0.2259
     32 N          -2.5743    3.9185   22.7905 N.ar    1  UNL1       -0.1045
     33 N          -3.5368    3.5996   21.6851 N.ar    1  UNL1       -0.0222
     34 N          -2.7837    2.8745   20.6094 N.ar    1  UNL1       -0.0384
@<TRIPOS>BOND
     1    13    14    1
     2    14    15   ar
     3     1    15    1
     4     1     2    1
     5     2     3    1
     6     3     4    1
     7     4     5    1
     8     5     6    1
     9     6     7   am
    10     7     8    2
    11     7    23    1
    12    23    24    1
    13    24    25   ar
    14    25    26   ar
    15    26    27   ar
    16    27    30    1
    17    30    31   ar
    18    31    32   ar
    19    32    33   ar
    20    33    34   ar
    21    27    28   ar
    22    28    29   ar
    23     6     9    1
    24    10     9    1
    25    10    11    1
    26    11    12    1
    27    15    16   ar
    28    16    17   ar
    29    17    18   ar
    30    18    19    1
    31    18    20   ar
    32    20    21    1
    33    21    22    3
    34    20    14   ar
    35    12     1    1
    36    10     3    1
    37    29    24   ar
    38    34    30   ar
@<TRIPOS>MOLECULE
*****
 34 38 0 0 0
SMALL
GASTEIGER

@<TRIPOS>ATOM
      1 C          -1.2941    3.3300   20.6588 C.3     1  UNL1        0.1531
      2 C          -0.8156    2.0080   20.1361 C.3     1  UNL1        0.1067
      3 N           0.5739    1.8773   19.5865 N.3     1  UNL1       -0.2665
      4 C           1.0524    0.5552   19.0637 C.3     1  UNL1        0.0940
      5 C           2.4419    0.4245   18.5141 C.3     1  UNL1        0.1107
      6 N           3.3529    1.6158   18.4871 N.am    1  UNL1       -0.2763
      7 C           4.7425    1.4850   17.9374 C.2     1  UNL1        0.2318
      8 O           5.6536    2.6763   17.9105 O.2     1  UNL1       -0.2744
      9 C           2.8745    2.9378   19.0098 C.3     1  UNL1        0.1119
     10 C           1.4849    3.0686   19.5595 C.3     1  UNL1        0.1075
     11 C           1.0065    4.3906   20.0822 C.3     1  UNL1        0.1601
     12 O          -0.3830    4.5213   20.6319 O.3     1  UNL1       -0.3489
     13 C          -1.7242    3.5085   23.6225 C.3     1  UNL1        0.0316
     14 C          -2.8987    3.5500   22.6903 C.ar    1  UNL1       -0.0117
     15 C          -2.6836    3.4608   21.2085 C.ar    1  UNL1        0.0027
     16 C          -3.8581    3.5023   20.2763 C.ar    1  UNL1        0.0001
     17 C          -5.2476    3.6331   20.8260 C.ar    1  UNL1        0.0301
     18 C          -5.4627    3.7223   22.3078 C.ar    1  UNL1        0.1493
     19 F          -6.8522    3.8531   22.8574 F       1  UNL1       -0.2035
     20 C          -4.2882    3.6808   23.2400 C.ar    1  UNL1        0.0916
     21 C          -4.5033    3.7700   24.7218 C.1     1  UNL1        0.1024
     22 N          -4.7184    3.8592   26.2036 N.1     1  UNL1       -0.1908
     23 C           5.2210    0.1630   17.4147 C.3     1  UNL1        0.1309
     24 C           5.7216   -0.8829   18.3662 C.ar    1  UNL1        0.0683
     25 C           5.3049   -2.3137   18.1951 C.ar    1  UNL1        0.0168
     26 C           5.8056   -3.3596   19.1465 C.ar    1  UNL1        0.0221
     27 C           6.7230   -2.9748   20.2692 C.ar    1  UNL1        0.1053
     28 C           7.1397   -1.5441   20.4403 C.ar    1  UNL1        0.1176
     29 N           6.6390   -0.4981   19.4888 N.ar    1  UNL1       -0.2461
     30 N           7.2236   -4.0207   21.2207 N.ar    1  UNL1       -0.1871
     31 C           8.4211   -4.9002   21.0138 C.ar    1  UNL1        0.2259
     32 N           8.5523   -5.7939   22.2115 N.ar    1  UNL1       -0.1045
     33 N           7.4359   -5.4667   23.1585 N.ar    1  UNL1       -0.0222
     34 N           6.6148   -4.3709   22.5461 N.ar    1  UNL1       -0.0384
@<TRIPOS>BOND
     1    13    14    1
     2    14    15   ar
     3     1    15    1
     4     1     2    1
     5     2     3    1
     6     3     4    1
     7     4     5    1
     8     5     6    1
     9     6     7   am
    10     7     8    2
    11     7    23    1
    12    23    24    1
    13    24    25   ar
    14    25    26   ar
    15    26    27   ar
    16    27    30    1
    17    30    31   ar
    18    31    32   ar
    19    32    33   ar
    20    33    34   ar
    21    27    28   ar
    22    28    29   ar
    23     6     9    1
    24    10     9    1
    25    10    11    1
    26    11    12    1
    27    15    16   ar
    28    16    17   ar
    29    17    18   ar
    30    18    19    1
    31    18    20   ar
    32    20    21    1
    33    21    22    3
    34    20    14   ar
    35    12     1    1
    36    10     3    1
    37    29    24   ar
    38    34    30   ar
@<TRIPOS>MOLECULE
*****
 34 38 0 0 0
SMALL
GASTEIGER

@<TRIPOS>ATOM
      1 C           4.4229   -0.2686   33.7553 C.3     1  UNL1        0.1531
      2 C           5.2887    0.0468   32.5717 C.3     1  UNL1        0.1067
      3 N           5.8707   -1.0654   31.7506 N.3     1  UNL1       -0.2665
      4 C           6.7366   -0.7500   30.5670 C.3     1  UNL1        0.0940
      5 C           7.3185   -1.8621   29.7458 C.3     1  UNL1        0.1107
      6 N           7.0347   -3.2898   30.1082 N.am    1  UNL1       -0.2763
      7 C           7.6168   -4.4020   29.2870 C.2     1  UNL1        0.2318
      8 O           7.3329   -5.8296   29.6494 O.2     1  UNL1       -0.2744
      9 C           6.1689   -3.6052   31.2918 C.3     1  UNL1        0.1119
     10 C           5.5869   -2.4930   32.1130 C.3     1  UNL1        0.1075
     11 C           4.7211   -2.8084   33.2966 C.3     1  UNL1        0.1601
     12 O           4.1391   -1.6963   34.1177 O.3     1  UNL1       -0.3489
     13 C           5.2267    0.0544   36.6275 C.3     1  UNL1        0.0316
     14 C           4.2428    1.0051   36.0126 C.ar    1  UNL1       -0.0117
     15 C           3.8409    0.8436   34.5765 C.ar    1  UNL1        0.0027
     16 C           2.8570    1.7942   33.9616 C.ar    1  UNL1        0.0001
     17 C           2.2750    2.9064   34.7827 C.ar    1  UNL1        0.0301
     18 C           2.6768    3.0679   36.2188 C.ar    1  UNL1        0.1493
     19 F           2.0948    4.1801   37.0400 F       1  UNL1       -0.2035
     20 C           3.6608    2.1173   36.8338 C.ar    1  UNL1        0.0916
     21 C           4.0627    2.2788   38.2699 C.1     1  UNL1        0.1024
     22 N           4.4646    2.4403   39.7059 N.1     1  UNL1       -0.1908
     23 C           8.4825   -4.0865   28.1035 C.3     1  UNL1        0.1309
     24 C           7.8996   -4.1055   26.7215 C.ar    1  UNL1        0.0683
     25 C           8.2451   -5.2185   25.7770 C.ar    1  UNL1        0.0168
     26 C           7.6622   -5.2375   24.3951 C.ar    1  UNL1        0.0221
     27 C           6.7337   -4.1436   23.9576 C.ar    1  UNL1        0.1053
     28 C           6.3883   -3.0307   24.9020 C.ar    1  UNL1        0.1176
     29 N           6.9712   -3.0116   26.2840 N.ar    1  UNL1       -0.2461
     30 N           6.1508   -4.1626   22.5757 N.ar    1  UNL1       -0.1871
     31 C           4.7225   -3.8772   22.2172 C.ar    1  UNL1        0.2259
     32 N           4.5827   -4.0086   20.7294 N.ar    1  UNL1       -0.1045
     33 N           5.9248   -4.3751   20.1684 N.ar    1  UNL1       -0.0222
     34 N           6.8939   -4.4703   21.3094 N.ar    1  UNL1       -0.0384
@<TRIPOS>BOND
     1    13    14    1
     2    14    15   ar
     3     1    15    1
     4     1     2    1
     5     2     3    1
     6     3     4    1
     7     4     5    1
     8     5     6    1
     9     6     7   am
    10     7     8    2
    11     7    23    1
    12    23    24    1
    13    24    25   ar
    14    25    26   ar
    15    26    27   ar
    16    27    30    1
    17    30    31   ar
    18    31    32   ar
    19    32    33   ar
    20    33    34   ar
    21    27    28   ar
    22    28    29   ar
    23     6     9    1
    24    10     9    1
    25    10    11    1
    26    11    12    1
    27    15    16   ar
    28    16    17   ar
    29    17    18   ar
    30    18    19    1
    31    18    20   ar
    32    20    21    1
    33    21    22    3
    34    20    14   ar
    35    12     1    1
    36    10     3    1
    37    29    24   ar
    38    34    30   ar
@<TRIPOS>MOLECULE
*****
 34 38 0 0 0
SMALL
GASTEIGER

@<TRIPOS>ATOM
      1 C           8.1189   -4.6816   24.5768 C.3     1  UNL1        0.1531
      2 C           6.7649   -4.6689   23.9317 C.3     1  UNL1        0.1067
      3 N           6.5861   -4.0539   22.5753 N.3     1  UNL1       -0.2665
      4 C           5.2319   -4.0412   21.9301 C.3     1  UNL1        0.0940
      5 C           5.0531   -3.4262   20.5738 C.3     1  UNL1        0.1107
      6 N           6.2284   -2.8238   19.8625 N.am    1  UNL1       -0.2763
      7 C           6.0496   -2.2088   18.5061 C.2     1  UNL1        0.2318
      8 O           7.2249   -1.6064   17.7949 O.2     1  UNL1       -0.2744
      9 C           7.5825   -2.8364   20.5077 C.3     1  UNL1        0.1119
     10 C           7.7614   -3.4515   21.8641 C.3     1  UNL1        0.1075
     11 C           9.1154   -3.4641   22.5093 C.3     1  UNL1        0.1601
     12 O           9.2942   -4.0792   23.8656 O.3     1  UNL1       -0.3489
     13 C           8.0359   -7.6635   24.8945 C.3     1  UNL1        0.0316
     14 C           8.2563   -6.7876   26.0921 C.ar    1  UNL1       -0.0117
     15 C           8.2978   -5.2966   25.9332 C.ar    1  UNL1        0.0027
     16 C           8.5182   -4.4206   27.1308 C.ar    1  UNL1        0.0001
     17 C           8.6970   -5.0356   28.4871 C.ar    1  UNL1        0.0301
     18 C           8.6555   -6.5266   28.6460 C.ar    1  UNL1        0.1493
     19 F           8.8343   -7.1416   30.0024 F       1  UNL1       -0.2035
     20 C           8.4351   -7.4026   27.4485 C.ar    1  UNL1        0.0916
     21 C           8.3936   -8.8936   27.6073 C.1     1  UNL1        0.1024
     22 N           8.3521  -10.3845   27.7661 N.1     1  UNL1       -0.1908
     23 C           4.6955   -2.1961   17.8610 C.3     1  UNL1        0.1309
     24 C           3.6432   -1.2428   18.3446 C.ar    1  UNL1        0.0683
     25 C           3.5442    0.1302   17.7486 C.ar    1  UNL1        0.0168
     26 C           2.4919    1.0836   18.2322 C.ar    1  UNL1        0.0221
     27 C           1.5387    0.6640   19.3117 C.ar    1  UNL1        0.1053
     28 C           1.6377   -0.7090   19.9076 C.ar    1  UNL1        0.1176
     29 N           2.6900   -1.6624   19.4240 N.ar    1  UNL1       -0.2461
     30 N           0.4865    1.6173   19.7952 N.ar    1  UNL1       -0.1871
     31 C           0.2709    3.0172   19.3013 C.ar    1  UNL1        0.2259
     32 N          -0.8838    3.6032   20.0585 N.ar    1  UNL1       -0.1045
     33 N          -1.3819    2.5655   21.0204 N.ar    1  UNL1       -0.0222
     34 N          -0.5351    1.3382   20.8577 N.ar    1  UNL1       -0.0384
@<TRIPOS>BOND
     1    13    14    1
     2    14    15   ar
     3     1    15    1
     4     1     2    1
     5     2     3    1
     6     3     4    1
     7     4     5    1
     8     5     6    1
     9     6     7   am
    10     7     8    2
    11     7    23    1
    12    23    24    1
    13    24    25   ar
    14    25    26   ar
    15    26    27   ar
    16    27    30    1
    17    30    31   ar
    18    31    32   ar
    19    32    33   ar
    20    33    34   ar
    21    27    28   ar
    22    28    29   ar
    23     6     9    1
    24    10     9    1
    25    10    11    1
    26    11    12    1
    27    15    16   ar
    28    16    17   ar
    29    17    18   ar
    30    18    19    1
    31    18    20   ar
    32    20    21    1
    33    21    22    3
    34    20    14   ar
    35    12     1    1
    36    10     3    1
    37    29    24   ar
    38    34    30   ar
@<TRIPOS>MOLECULE
*****
 34 38 0 0 0
SMALL
GASTEIGER

@<TRIPOS>ATOM
      1 C           7.2508   -4.3862   24.1969 C.3     1  UNL1        0.1531
      2 C           5.9225   -3.9429   23.6594 C.3     1  UNL1        0.1067
      3 N           5.8234   -3.3873   22.2697 N.3     1  UNL1       -0.2665
      4 C           4.4950   -2.9439   21.7321 C.3     1  UNL1        0.0940
      5 C           4.3959   -2.3883   20.3424 C.3     1  UNL1        0.1107
      6 N           5.6251   -2.2760   19.4901 N.am    1  UNL1       -0.2763
      7 C           5.5260   -1.7204   18.1003 C.2     1  UNL1        0.2318
      8 O           6.7552   -1.6081   17.2480 O.2     1  UNL1       -0.2744
      9 C           6.9535   -2.7194   20.0276 C.3     1  UNL1        0.1119
     10 C           7.0526   -3.2750   21.4174 C.3     1  UNL1        0.1075
     11 C           8.3810   -3.7183   21.9549 C.3     1  UNL1        0.1601
     12 O           8.4801   -4.2739   23.3446 O.3     1  UNL1       -0.3489
     13 C           7.9055   -7.2846   24.6105 C.3     1  UNL1        0.0316
     14 C           7.6773   -6.3910   25.7935 C.ar    1  UNL1       -0.0117
     15 C           7.3500   -4.9419   25.5867 C.ar    1  UNL1        0.0027
     16 C           7.1218   -4.0483   26.7697 C.ar    1  UNL1        0.0001
     17 C           7.2209   -4.6039   28.1594 C.ar    1  UNL1        0.0301
     18 C           7.5483   -6.0531   28.3663 C.ar    1  UNL1        0.1493
     19 F           7.6474   -6.6086   29.7560 F       1  UNL1       -0.2035
     20 C           7.7765   -6.9466   27.1833 C.ar    1  UNL1        0.0916
     21 C           8.1038   -8.3958   27.3900 C.1     1  UNL1        0.1024
     22 N           8.4311   -9.8449   27.5968 N.1     1  UNL1       -0.1908
     23 C           4.1976   -1.2770   17.5628 C.3     1  UNL1        0.1309
     24 C           3.6718    0.0878   17.8953 C.ar    1  UNL1        0.0683
     25 C           2.2120    0.2798   18.1822 C.ar    1  UNL1        0.0168
     26 C           1.6862    1.6447   18.5147 C.ar    1  UNL1        0.0221
     27 C           2.6201    2.8177   18.5602 C.ar    1  UNL1        0.1053
     28 C           4.0798    2.6257   18.2732 C.ar    1  UNL1        0.1176
     29 N           4.6057    1.2608   17.9408 N.ar    1  UNL1       -0.2461
     30 N           2.0943    4.1825   18.8926 N.ar    1  UNL1       -0.1871
     31 C           1.8876    4.7361   20.2714 C.ar    1  UNL1        0.2259
     32 N           1.3484    6.1293   20.1355 N.ar    1  UNL1       -0.1045
     33 N           1.2217    6.4367   18.6728 N.ar    1  UNL1       -0.0222
     34 N           1.6827    5.2336   17.9046 N.ar    1  UNL1       -0.0384
@<TRIPOS>BOND
     1    13    14    1
     2    14    15   ar
     3     1    15    1
     4     1     2    1
     5     2     3    1
     6     3     4    1
     7     4     5    1
     8     5     6    1
     9     6     7   am
    10     7     8    2
    11     7    23    1
    12    23    24    1
    13    24    25   ar
    14    25    26   ar
    15    26    27   ar
    16    27    30    1
    17    30    31   ar
    18    31    32   ar
    19    32    33   ar
    20    33    34   ar
    21    27    28   ar
    22    28    29   ar
    23     6     9    1
    24    10     9    1
    25    10    11    1
    26    11    12    1
    27    15    16   ar
    28    16    17   ar
    29    17    18   ar
    30    18    19    1
    31    18    20   ar
    32    20    21    1
    33    21    22    3
    34    20    14   ar
    35    12     1    1
    36    10     3    1
    37    29    24   ar
    38    34    30   ar
@<TRIPOS>MOLECULE
*****
 34 38 0 0 0
SMALL
GASTEIGER

@<TRIPOS>ATOM
      1 C          -0.1471    1.8960   27.3784 C.3     1  UNL1        0.1531
      2 C           1.0478    2.4880   28.0651 C.3     1  UNL1        0.1067
      3 N           1.8021    1.6849   29.0830 N.3     1  UNL1       -0.2665
      4 C           2.9971    2.2769   29.7698 C.3     1  UNL1        0.0940
      5 C           3.7514    1.4739   30.7877 C.3     1  UNL1        0.1107
      6 N           3.3107    0.0788   31.1189 N.am    1  UNL1       -0.2763
      7 C           4.0651   -0.7242   32.1368 C.2     1  UNL1        0.2318
      8 O           3.6244   -2.1192   32.4680 O.2     1  UNL1       -0.2744
      9 C           2.1158   -0.5132   30.4322 C.3     1  UNL1        0.1119
     10 C           1.3614    0.2899   29.4142 C.3     1  UNL1        0.1075
     11 C           0.1665   -0.3021   28.7275 C.3     1  UNL1        0.1601
     12 O          -0.5878    0.5009   27.7096 O.3     1  UNL1       -0.3489
     13 C           0.4380    1.5445   24.4571 C.3     1  UNL1        0.0316
     14 C          -0.6089    2.5233   24.8998 C.ar    1  UNL1       -0.0117
     15 C          -0.9014    2.6990   26.3605 C.ar    1  UNL1        0.0027
     16 C          -1.9483    3.6778   26.8032 C.ar    1  UNL1        0.0001
     17 C          -2.7026    4.4808   25.7854 C.ar    1  UNL1        0.0301
     18 C          -2.4101    4.3051   24.3247 C.ar    1  UNL1        0.1493
     19 F          -3.1644    5.1081   23.3068 F       1  UNL1       -0.2035
     20 C          -1.3632    3.3263   23.8819 C.ar    1  UNL1        0.0916
     21 C          -1.0707    3.1505   22.4213 C.1     1  UNL1        0.1024
     22 N          -0.7781    2.9748   20.9606 N.1     1  UNL1       -0.1908
     23 C           5.2600   -0.1322   32.8235 C.3     1  UNL1        0.1309
     24 C           5.1114    0.4990   34.1760 C.ar    1  UNL1        0.0683
     25 C           4.7837   -0.3503   35.3683 C.ar    1  UNL1        0.0168
     26 C           4.6351    0.2809   36.7208 C.ar    1  UNL1        0.0221
     27 C           4.8142    1.7615   36.8812 C.ar    1  UNL1        0.1053
     28 C           5.1419    2.6109   35.6891 C.ar    1  UNL1        0.1176
     29 N           5.2905    1.9796   34.3365 N.ar    1  UNL1       -0.2461
     30 N           4.6656    2.3928   38.2337 N.ar    1  UNL1       -0.1871
     31 C           3.4307    3.0578   38.7655 C.ar    1  UNL1        0.2259
     32 N           3.7277    3.5459   40.1525 N.ar    1  UNL1       -0.1045
     33 N           5.1462    3.1826   40.4779 N.ar    1  UNL1       -0.0222
     34 N           5.7259    2.4699   39.2921 N.ar    1  UNL1       -0.0384
@<TRIPOS>BOND
     1    13    14    1
     2    14    15   ar
     3     1    15    1
     4     1     2    1
     5     2     3    1
     6     3     4    1
     7     4     5    1
     8     5     6    1
     9     6     7   am
    10     7     8    2
    11     7    23    1
    12    23    24    1
    13    24    25   ar
    14    25    26   ar
    15    26    27   ar
    16    27    30    1
    17    30    31   ar
    18    31    32   ar
    19    32    33   ar
    20    33    34   ar
    21    27    28   ar
    22    28    29   ar
    23     6     9    1
    24    10     9    1
    25    10    11    1
    26    11    12    1
    27    15    16   ar
    28    16    17   ar
    29    17    18   ar
    30    18    19    1
    31    18    20   ar
    32    20    21    1
    33    21    22    3
    34    20    14   ar
    35    12     1    1
    36    10     3    1
    37    29    24   ar
    38    34    30   ar
@<TRIPOS>MOLECULE
*****
 34 38 0 0 0
SMALL
GASTEIGER

@<TRIPOS>ATOM
      1 C           3.2647    0.2644   29.9044 C.3     1  UNL1        0.1531
      2 C           1.9061   -0.1208   29.3987 C.3     1  UNL1        0.1067
      3 N           1.0312    0.9059   28.7427 N.3     1  UNL1       -0.2665
      4 C          -0.3274    0.5207   28.2370 C.3     1  UNL1        0.0940
      5 C          -1.2023    1.5474   27.5809 C.3     1  UNL1        0.1107
      6 N          -0.7186    2.9593   27.4306 N.am    1  UNL1       -0.2763
      7 C          -1.5936    3.9860   26.7745 C.2     1  UNL1        0.2318
      8 O          -1.1099    5.3979   26.6242 O.2     1  UNL1       -0.2744
      9 C           0.6400    3.3445   27.9363 C.3     1  UNL1        0.1119
     10 C           1.5149    2.3178   28.5924 C.3     1  UNL1        0.1075
     11 C           2.8735    2.7030   29.0981 C.3     1  UNL1        0.1601
     12 O           3.7484    1.6763   29.7541 O.3     1  UNL1       -0.3489
     13 C           5.5073   -1.0002   28.3643 C.3     1  UNL1        0.0316
     14 C           5.2610   -1.3946   29.7904 C.ar    1  UNL1       -0.0117
     15 C           4.1397   -0.7623   30.5605 C.ar    1  UNL1        0.0027
     16 C           3.8934   -1.1567   31.9866 C.ar    1  UNL1        0.0001
     17 C           4.7683   -2.1834   32.6426 C.ar    1  UNL1        0.0301
     18 C           5.8896   -2.8157   31.8726 C.ar    1  UNL1        0.1493
     19 F           6.7645   -3.8423   32.5287 F       1  UNL1       -0.2035
     20 C           6.1360   -2.4213   30.4465 C.ar    1  UNL1        0.0916
     21 C           7.2572   -3.0535   29.6765 C.1     1  UNL1        0.1024
     22 N           8.3785   -3.6858   28.9064 N.1     1  UNL1       -0.1908
     23 C          -2.9522    3.6008   26.2689 C.3     1  UNL1        0.1309
     24 C          -3.2302    3.5959   24.7949 C.ar    1  UNL1        0.0683
     25 C          -4.6063    3.2735   24.2922 C.ar    1  UNL1        0.0168
     26 C          -4.8842    3.2687   22.8182 C.ar    1  UNL1        0.0221
     27 C          -3.7862    3.5862   21.8468 C.ar    1  UNL1        0.1053
     28 C          -2.4102    3.9085   22.3495 C.ar    1  UNL1        0.1176
     29 N          -2.1322    3.9134   23.8235 N.ar    1  UNL1       -0.2461
     30 N          -4.0642    3.5813   20.3729 N.ar    1  UNL1       -0.1871
     31 C          -3.0903    3.9430   19.2908 C.ar    1  UNL1        0.2259
     32 N          -3.7891    3.7991   17.9712 N.ar    1  UNL1       -0.1045
     33 N          -5.1948    3.3485   18.2378 N.ar    1  UNL1       -0.0222
     34 N          -5.3648    3.2139   19.7221 N.ar    1  UNL1       -0.0384
@<TRIPOS>BOND
     1    13    14    1
     2    14    15   ar
     3     1    15    1
     4     1     2    1
     5     2     3    1
     6     3     4    1
     7     4     5    1
     8     5     6    1
     9     6     7   am
    10     7     8    2
    11     7    23    1
    12    23    24    1
    13    24    25   ar
    14    25    26   ar
    15    26    27   ar
    16    27    30    1
    17    30    31   ar
    18    31    32   ar
    19    32    33   ar
    20    33    34   ar
    21    27    28   ar
    22    28    29   ar
    23     6     9    1
    24    10     9    1
    25    10    11    1
    26    11    12    1
    27    15    16   ar
    28    16    17   ar
    29    17    18   ar
    30    18    19    1
    31    18    20   ar
    32    20    21    1
    33    21    22    3
    34    20    14   ar
    35    12     1    1
    36    10     3    1
    37    29    24   ar
    38    34    30   ar
@<TRIPOS>MOLECULE
*****
 34 38 0 0 0
SMALL
GASTEIGER

@<TRIPOS>ATOM
      1 C          -1.4220    3.4504   20.5312 C.3     1  UNL1        0.1531
      2 C          -0.9520    2.1432   19.9653 C.3     1  UNL1        0.1067
      3 N           0.4657    1.9947   19.4982 N.3     1  UNL1       -0.2665
      4 C           0.9358    0.6874   18.9322 C.3     1  UNL1        0.0940
      5 C           2.3534    0.5389   18.4651 C.3     1  UNL1        0.1107
      6 N           3.3010    1.6975   18.5640 N.am    1  UNL1       -0.2763
      7 C           4.7187    1.5489   18.0969 C.2     1  UNL1        0.2318
      8 O           5.6662    2.7075   18.1957 O.2     1  UNL1       -0.2744
      9 C           2.8309    3.0046   19.1299 C.3     1  UNL1        0.1119
     10 C           1.4132    3.1533   19.5970 C.3     1  UNL1        0.1075
     11 C           0.9432    4.4604   20.1629 C.3     1  UNL1        0.1601
     12 O          -0.4745    4.6090   20.6300 O.3     1  UNL1       -0.3489
     13 C          -3.6237    3.8621   18.5354 C.3     1  UNL1        0.0316
     14 C          -3.9405    3.8048   20.0004 C.ar    1  UNL1       -0.0117
     15 C          -2.8397    3.5990   20.9983 C.ar    1  UNL1        0.0027
     16 C          -3.1565    3.5418   22.4634 C.ar    1  UNL1        0.0001
     17 C          -4.5741    3.6904   22.9305 C.ar    1  UNL1        0.0301
     18 C          -5.6750    3.8962   21.9326 C.ar    1  UNL1        0.1493
     19 F          -7.0926    4.0448   22.3997 F       1  UNL1       -0.2035
     20 C          -5.3582    3.9535   20.4676 C.ar    1  UNL1        0.0916
     21 C          -6.4590    4.1593   19.4697 C.1     1  UNL1        0.1024
     22 N          -7.5598    4.3652   18.4718 N.1     1  UNL1       -0.1908
     23 C           5.1887    0.2417   17.5309 C.3     1  UNL1        0.1309
     24 C           5.7091   -0.8276   18.4452 C.ar    1  UNL1        0.0683
     25 C           7.1105   -1.3371   18.2822 C.ar    1  UNL1        0.0168
     26 C           7.6309   -2.4063   19.1964 C.ar    1  UNL1        0.0221
     27 C           6.7499   -2.9661   20.2737 C.ar    1  UNL1        0.1053
     28 C           5.3486   -2.4567   20.4367 C.ar    1  UNL1        0.1176
     29 N           4.8281   -1.3874   19.5224 N.ar    1  UNL1       -0.2461
     30 N           7.2703   -4.0354   21.1879 N.ar    1  UNL1       -0.1871
     31 C           8.4596   -4.9127   20.9314 C.ar    1  UNL1        0.2259
     32 N           8.6171   -5.8347   22.1042 N.ar    1  UNL1       -0.1045
     33 N           7.5251   -5.5270   23.0855 N.ar    1  UNL1       -0.0222
     34 N           6.6927   -4.4150   22.5192 N.ar    1  UNL1       -0.0384
@<TRIPOS>BOND
     1    13    14    1
     2    14    15   ar
     3     1    15    1
     4     1     2    1
     5     2     3    1
     6     3     4    1
     7     4     5    1
     8     5     6    1
     9     6     7   am
    10     7     8    2
    11     7    23    1
    12    23    24    1
    13    24    25   ar
    14    25    26   ar
    15    26    27   ar
    16    27    30    1
    17    30    31   ar
    18    31    32   ar
    19    32    33   ar
    20    33    34   ar
    21    27    28   ar
    22    28    29   ar
    23     6     9    1
    24    10     9    1
    25    10    11    1
    26    11    12    1
    27    15    16   ar
    28    16    17   ar
    29    17    18   ar
    30    18    19    1
    31    18    20   ar
    32    20    21    1
    33    21    22    3
    34    20    14   ar
    35    12     1    1
    36    10     3    1
    37    29    24   ar
    38    34    30   ar
@<TRIPOS>MOLECULE
*****
 34 38 0 0 0
SMALL
GASTEIGER

@<TRIPOS>ATOM
      1 C           1.8711    2.1208   31.8250 C.3     1  UNL1        0.1531
      2 C           2.8865    2.3294   30.7409 C.3     1  UNL1        0.1067
      3 N           2.5164    2.0805   29.3087 N.3     1  UNL1       -0.2665
      4 C           3.5318    2.2890   28.2245 C.3     1  UNL1        0.0940
      5 C           3.1617    2.0401   26.7924 C.3     1  UNL1        0.1107
      6 N           1.7762    1.5825   26.4444 N.am    1  UNL1       -0.2763
      7 C           1.4061    1.3336   25.0122 C.2     1  UNL1        0.2318
      8 O           0.0206    0.8761   24.6643 O.2     1  UNL1       -0.2744
      9 C           0.7608    1.3740   27.5286 C.3     1  UNL1        0.1119
     10 C           1.1309    1.6229   28.9608 C.3     1  UNL1        0.1075
     11 C           0.1155    1.4144   30.0450 C.3     1  UNL1        0.1601
     12 O           0.4856    1.6633   31.4771 O.3     1  UNL1       -0.3489
     13 C           3.6816    0.2076   33.2609 C.3     1  UNL1        0.0316
     14 C           3.1464    1.4132   33.9751 C.ar    1  UNL1       -0.0117
     15 C           2.2412    2.3698   33.2572 C.ar    1  UNL1        0.0027
     16 C           1.7061    3.5754   33.9714 C.ar    1  UNL1        0.0001
     17 C           2.0761    3.8244   35.4036 C.ar    1  UNL1        0.0301
     18 C           2.9814    2.8677   36.1215 C.ar    1  UNL1        0.1493
     19 F           3.3514    3.1167   37.5537 F       1  UNL1       -0.2035
     20 C           3.5165    1.6621   35.4073 C.ar    1  UNL1        0.0916
     21 C           4.4217    0.7055   36.1252 C.1     1  UNL1        0.1024
     22 N           5.3269   -0.2511   36.8431 N.1     1  UNL1       -0.1908
     23 C           2.4214    1.5422   23.9281 C.3     1  UNL1        0.1309
     24 C           2.8598    0.3862   23.0787 C.ar    1  UNL1        0.0683
     25 C           3.4668   -0.8271   23.7187 C.ar    1  UNL1        0.0168
     26 C           3.9052   -1.9831   22.8693 C.ar    1  UNL1        0.0221
     27 C           3.7366   -1.9258   21.3799 C.ar    1  UNL1        0.1053
     28 C           3.1296   -0.7126   20.7399 C.ar    1  UNL1        0.1176
     29 N           2.6912    0.4434   21.5893 N.ar    1  UNL1       -0.2461
     30 N           4.1750   -3.0818   20.5305 N.ar    1  UNL1       -0.1871
     31 C           3.5496   -3.5125   19.2369 C.ar    1  UNL1        0.2259
     32 N           4.3039   -4.7070   18.7324 N.ar    1  UNL1       -0.1045
     33 N           5.3954   -5.0145   19.7143 N.ar    1  UNL1       -0.0222
     34 N           5.3157   -4.0101   20.8255 N.ar    1  UNL1       -0.0384
@<TRIPOS>BOND
     1    13    14    1
     2    14    15   ar
     3     1    15    1
     4     1     2    1
     5     2     3    1
     6     3     4    1
     7     4     5    1
     8     5     6    1
     9     6     7   am
    10     7     8    2
    11     7    23    1
    12    23    24    1
    13    24    25   ar
    14    25    26   ar
    15    26    27   ar
    16    27    30    1
    17    30    31   ar
    18    31    32   ar
    19    32    33   ar
    20    33    34   ar
    21    27    28   ar
    22    28    29   ar
    23     6     9    1
    24    10     9    1
    25    10    11    1
    26    11    12    1
    27    15    16   ar
    28    16    17   ar
    29    17    18   ar
    30    18    19    1
    31    18    20   ar
    32    20    21    1
    33    21    22    3
    34    20    14   ar
    35    12     1    1
    36    10     3    1
    37    29    24   ar
    38    34    30   ar
