@<TRIPOS>MOLECULE
*****
 28 31 0 0 0
SMALL
GASTEIGER

@<TRIPOS>ATOM
      1 C           6.6539   -4.1183   29.0579 C.ar    1  UNL1        0.0515
      2 C           6.9043   -4.7761   30.3824 C.ar    1  UNL1        0.0160
      3 C           6.7750   -3.9839   31.6496 C.ar    1  UNL1        0.0170
      4 C           6.3952   -2.5340   31.5923 C.ar    1  UNL1        0.0650
      5 C           6.1447   -1.8762   30.2677 C.ar    1  UNL1        0.0726
      6 CL          5.7649   -0.4262   30.2103 Cl      1  UNL1       -0.0809
      7 C           6.2740   -2.6683   29.0005 C.ar    1  UNL1        0.0273
      8 N           6.2658   -1.7419   32.8595 N.am    1  UNL1       -0.2500
      9 C           7.3266   -0.8738   33.4688 C.3     1  UNL1        0.1260
     10 C           6.7694   -0.2741   34.7257 C.ar    1  UNL1        0.0130
     11 C           7.3600    0.6606   35.7394 C.ar    1  UNL1        0.0554
     12 CL          8.7651    1.1581   35.5718 Cl      1  UNL1       -0.0825
     13 C           6.5454    1.0979   36.9205 C.ar    1  UNL1        0.0111
     14 C           5.1402    0.6004   37.0881 C.ar    1  UNL1        0.0010
     15 C           4.5497   -0.3344   36.0745 C.ar    1  UNL1        0.0043
     16 C           5.3642   -0.7716   34.8933 C.ar    1  UNL1        0.0524
     17 C           5.0531   -1.6787   33.7399 C.2     1  UNL1        0.2528
     18 O           3.7566   -2.3966   33.5077 O.2     1  UNL1       -0.2696
     19 C           8.0939   -4.9517   27.0625 C.2     1  UNL1        0.2839
     20 O           9.2753   -4.2008   27.6014 O.2     1  UNL1       -0.2665
     21 N           6.7832   -4.9104   27.7907 N.am    1  UNL1       -0.2778
     22 H           6.0078   -5.4032   27.4369 H       1  UNL1        0.1553
     23 C           7.8933   -8.1984   26.8009 C.3     1  UNL1        0.0345
     24 C           8.1310   -7.2362   25.6751 C.ar    1  UNL1        0.0204
     25 C           8.3183   -7.5973   24.2313 C.ar    1  UNL1        0.0396
     26 C           8.5262   -6.3282   23.4592 C.ar    1  UNL1        0.1795
     27 O           8.4675   -5.1827   24.4258 O.2     1  UNL1       -0.4461
     28 C           8.2232   -5.7438   25.7953 C.ar    1  UNL1        0.1948
@<TRIPOS>BOND
     1    23    24    1
     2    24    25   ar
     3    25    26   ar
     4    26    27   ar
     5    27    28   ar
     6    28    19    1
     7    19    20    2
     8    19    21   am
     9    21     1    1
    10     1     2   ar
    11     2     3   ar
    12     3     4   ar
    13     4     8    1
    14     8     9    1
    15     9    10    1
    16    10    11   ar
    17    11    12    1
    18    11    13   ar
    19    13    14   ar
    20    14    15   ar
    21    15    16   ar
    22    16    17    1
    23    17    18    2
    24     4     5   ar
    25     5     6    1
    26     5     7   ar
    27    28    24   ar
    28     7     1   ar
    29    17     8   am
    30    16    10   ar
    31    21    22    1
@<TRIPOS>MOLECULE
*****
 28 31 0 0 0
SMALL
GASTEIGER

@<TRIPOS>ATOM
      1 C          -0.7570    2.9415   21.8282 C.ar    1  UNL1        0.0515
      2 C           0.0823    2.1090   22.7514 C.ar    1  UNL1        0.0160
      3 C           1.1285    1.1914   22.1914 C.ar    1  UNL1        0.0170
      4 C           1.3353    1.1063   20.7082 C.ar    1  UNL1        0.0650
      5 C           0.4959    1.9388   19.7850 C.ar    1  UNL1        0.0726
      6 CL          0.7027    1.8538   18.3017 Cl      1  UNL1       -0.0809
      7 C          -0.5503    2.8564   20.3450 C.ar    1  UNL1        0.0273
      8 N           2.3815    0.1888   20.1482 N.am    1  UNL1       -0.2500
      9 C           2.2433   -1.2923   19.9553 C.3     1  UNL1        0.1260
     10 C           3.5259   -1.8053   19.3706 C.ar    1  UNL1        0.0130
     11 C           3.9665   -3.1820   18.9699 C.ar    1  UNL1        0.0554
     12 CL          3.0356   -4.3461   19.1382 Cl      1  UNL1       -0.0825
     13 C           5.3379   -3.3945   18.4007 C.ar    1  UNL1        0.0111
     14 C           6.2688   -2.2304   18.2323 C.ar    1  UNL1        0.0010
     15 C           5.8282   -0.8538   18.6331 C.ar    1  UNL1        0.0043
     16 C           4.4568   -0.6412   19.2022 C.ar    1  UNL1        0.0524
     17 C           3.7495    0.5912   19.6828 C.2     1  UNL1        0.2528
     18 O           4.3115    1.9818   19.6957 O.2     1  UNL1       -0.2696
     19 C          -3.2326    3.7197   21.9553 C.2     1  UNL1        0.2839
     20 O          -3.6158    2.6627   20.9623 O.2     1  UNL1       -0.2665
     21 N          -1.8032    3.8590   22.3882 N.am    1  UNL1       -0.2778
     22 H          -1.5517    4.5528   23.0399 H       1  UNL1        0.1553
     23 C          -4.5504    3.5344   24.9350 C.3     1  UNL1        0.0345
     24 C          -4.8845    4.5520   23.8850 C.ar    1  UNL1        0.0204
     25 C          -5.8829    5.6633   24.0201 C.ar    1  UNL1        0.0396
     26 C          -5.8943    6.4352   22.7340 C.ar    1  UNL1        0.1795
     27 O          -4.9029    5.8011   21.8040 O.2     1  UNL1       -0.4461
     28 C          -4.2787    4.6372   22.5153 C.ar    1  UNL1        0.1948
@<TRIPOS>BOND
     1    23    24    1
     2    24    25   ar
     3    25    26   ar
     4    26    27   ar
     5    27    28   ar
     6    28    19    1
     7    19    20    2
     8    19    21   am
     9    21     1    1
    10     1     2   ar
    11     2     3   ar
    12     3     4   ar
    13     4     8    1
    14     8     9    1
    15     9    10    1
    16    10    11   ar
    17    11    12    1
    18    11    13   ar
    19    13    14   ar
    20    14    15   ar
    21    15    16   ar
    22    16    17    1
    23    17    18    2
    24     4     5   ar
    25     5     6    1
    26     5     7   ar
    27    28    24   ar
    28     7     1   ar
    29    17     8   am
    30    16    10   ar
    31    21    22    1
@<TRIPOS>MOLECULE
*****
 28 31 0 0 0
SMALL
GASTEIGER

@<TRIPOS>ATOM
      1 C           5.2116   -0.9421   34.6200 C.ar    1  UNL1        0.0515
      2 C           4.2535   -1.8988   33.9744 C.ar    1  UNL1        0.0160
      3 C           4.6666   -2.6633   32.7517 C.ar    1  UNL1        0.0170
      4 C           6.0377   -2.4711   32.1746 C.ar    1  UNL1        0.0650
      5 C           6.9957   -1.5144   32.8202 C.ar    1  UNL1        0.0726
      6 CL          8.3669   -1.3221   32.2431 Cl      1  UNL1       -0.0809
      7 C           6.5827   -0.7499   34.0429 C.ar    1  UNL1        0.0273
      8 N           6.4507   -3.2356   30.9520 N.am    1  UNL1       -0.2500
      9 C           6.5783   -2.6785   29.5651 C.3     1  UNL1        0.1260
     10 C           7.0152   -3.7900   28.6575 C.ar    1  UNL1        0.0130
     11 C           7.3017   -3.8301   27.1857 C.ar    1  UNL1        0.0554
     12 CL          7.1593   -2.5861   26.3597 Cl      1  UNL1       -0.0825
     13 C           7.7306   -5.1142   26.5398 C.ar    1  UNL1        0.0111
     14 C           7.8729   -6.3582   27.3657 C.ar    1  UNL1        0.0010
     15 C           7.5864   -6.3181   28.8375 C.ar    1  UNL1        0.0043
     16 C           7.1575   -5.0340   29.4834 C.ar    1  UNL1        0.0524
     17 C           6.8087   -4.6913   30.9015 C.2     1  UNL1        0.2528
     18 O           6.8164   -5.6383   32.0648 O.2     1  UNL1       -0.2696
     19 C           3.9742    1.0680   35.7054 C.2     1  UNL1        0.2839
     20 O           3.5628    1.5492   34.3455 O.2     1  UNL1       -0.2665
     21 N           4.7985   -0.1776   35.8427 N.am    1  UNL1       -0.2778
     22 H           5.0685   -0.4933   36.7352 H       1  UNL1        0.1553
     23 C           5.9824    2.3501   37.9355 C.3     1  UNL1        0.0345
     24 C           4.4843    2.4219   37.9532 C.ar    1  UNL1        0.0204
     25 C           3.6460    3.0955   38.9990 C.ar    1  UNL1        0.0396
     26 C           2.2050    2.9225   38.6203 C.ar    1  UNL1        0.1795
     27 O           2.1525    2.1420   37.3404 O.2     1  UNL1       -0.4461
     28 C           3.5611    1.8325   36.9281 C.ar    1  UNL1        0.1948
@<TRIPOS>BOND
     1    23    24    1
     2    24    25   ar
     3    25    26   ar
     4    26    27   ar
     5    27    28   ar
     6    28    19    1
     7    19    20    2
     8    19    21   am
     9    21     1    1
    10     1     2   ar
    11     2     3   ar
    12     3     4   ar
    13     4     8    1
    14     8     9    1
    15     9    10    1
    16    10    11   ar
    17    11    12    1
    18    11    13   ar
    19    13    14   ar
    20    14    15   ar
    21    15    16   ar
    22    16    17    1
    23    17    18    2
    24     4     5   ar
    25     5     6    1
    26     5     7   ar
    27    28    24   ar
    28     7     1   ar
    29    17     8   am
    30    16    10   ar
    31    21    22    1
@<TRIPOS>MOLECULE
*****
 28 31 0 0 0
SMALL
GASTEIGER

@<TRIPOS>ATOM
      1 C          -0.1713    1.6125   26.9410 C.ar    1  UNL1        0.0515
      2 C          -0.8624    0.9562   28.0993 C.ar    1  UNL1        0.0160
      3 C          -0.1030    0.6679   29.3603 C.ar    1  UNL1        0.0170
      4 C           1.3475    1.0360   29.4631 C.ar    1  UNL1        0.0650
      5 C           2.0386    1.6923   28.3049 C.ar    1  UNL1        0.0726
      6 CL          3.4891    2.0604   28.4076 Cl      1  UNL1       -0.0809
      7 C           1.2792    1.9805   27.0438 C.ar    1  UNL1        0.0273
      8 N           2.1069    0.7478   30.7242 N.am    1  UNL1       -0.2500
      9 C           2.9040   -0.4903   31.0099 C.3     1  UNL1        0.1260
     10 C           3.4923   -0.3562   32.3833 C.ar    1  UNL1        0.0130
     11 C           4.3667   -1.2663   33.1938 C.ar    1  UNL1        0.0554
     12 CL          4.8004   -2.5872   32.6308 Cl      1  UNL1       -0.0825
     13 C           4.8075   -0.8554   34.5674 C.ar    1  UNL1        0.0111
     14 C           4.3738    0.4655   35.1305 C.ar    1  UNL1        0.0010
     15 C           3.4994    1.3756   34.3199 C.ar    1  UNL1        0.0043
     16 C           3.0586    0.9647   32.9463 C.ar    1  UNL1        0.0524
     17 C           2.2024    1.6470   31.9210 C.2     1  UNL1        0.2528
     18 O           1.5553    2.9924   32.0668 O.2     1  UNL1       -0.2696
     19 C          -1.6990    3.1817   25.5433 C.2     1  UNL1        0.2839
     20 O          -1.7080    4.1745   26.6677 O.2     1  UNL1       -0.2665
     21 N          -0.9307    1.9007   25.6800 N.am    1  UNL1       -0.2778
     22 H          -0.9248    1.2491   24.9420 H       1  UNL1        0.1553
     23 C          -4.9148    3.6873   25.3137 C.3     1  UNL1        0.0345
     24 C          -3.9366    3.7023   24.1767 C.ar    1  UNL1        0.0204
     25 C          -4.2646    3.9524   22.7345 C.ar    1  UNL1        0.0396
     26 C          -2.9893    3.8745   21.9488 C.ar    1  UNL1        0.1795
     27 O          -1.8730    3.5763   22.9053 O.2     1  UNL1       -0.4461
     28 C          -2.4584    3.4699   24.2822 C.ar    1  UNL1        0.1948
@<TRIPOS>BOND
     1    23    24    1
     2    24    25   ar
     3    25    26   ar
     4    26    27   ar
     5    27    28   ar
     6    28    19    1
     7    19    20    2
     8    19    21   am
     9    21     1    1
    10     1     2   ar
    11     2     3   ar
    12     3     4   ar
    13     4     8    1
    14     8     9    1
    15     9    10    1
    16    10    11   ar
    17    11    12    1
    18    11    13   ar
    19    13    14   ar
    20    14    15   ar
    21    15    16   ar
    22    16    17    1
    23    17    18    2
    24     4     5   ar
    25     5     6    1
    26     5     7   ar
    27    28    24   ar
    28     7     1   ar
    29    17     8   am
    30    16    10   ar
    31    21    22    1
@<TRIPOS>MOLECULE
*****
 28 31 0 0 0
SMALL
GASTEIGER

@<TRIPOS>ATOM
      1 C           0.5909    2.6742   28.7280 C.ar    1  UNL1        0.0515
      2 C          -0.1801    1.5292   28.1409 C.ar    1  UNL1        0.0160
      3 C          -1.2841    1.7928   27.1603 C.ar    1  UNL1        0.0170
      4 C          -1.6172    3.2014   26.7667 C.ar    1  UNL1        0.0650
      5 C          -0.8462    4.3463   27.3537 C.ar    1  UNL1        0.0726
      6 CL         -1.1792    5.7550   26.9601 Cl      1  UNL1       -0.0809
      7 C           0.2578    4.0827   28.3344 C.ar    1  UNL1        0.0273
      8 N          -2.7212    3.4650   25.7861 N.am    1  UNL1       -0.2500
      9 C          -2.6451    3.2736   24.3003 C.3     1  UNL1        0.1260
     10 C          -3.9720    3.6566   23.7150 C.ar    1  UNL1        0.0130
     11 C          -4.4800    3.6709   22.3037 C.ar    1  UNL1        0.0554
     12 CL         -3.5838    3.2427   21.1796 Cl      1  UNL1       -0.0825
     13 C          -5.8842    4.1132   22.0165 C.ar    1  UNL1        0.0111
     14 C          -6.7804    4.5413   23.1406 C.ar    1  UNL1        0.0010
     15 C          -6.2724    4.5271   24.5518 C.ar    1  UNL1        0.0043
     16 C          -4.8683    4.0847   24.8390 C.ar    1  UNL1        0.0524
     17 C          -4.0952    3.9663   26.1190 C.2     1  UNL1        0.2528
     18 O          -4.6064    4.2920   27.4911 O.2     1  UNL1       -0.2696
     19 C           1.3713    1.9153   31.0870 C.2     1  UNL1        0.2839
     20 O          -0.0564    1.6836   31.4848 O.2     1  UNL1       -0.2665
     21 N           1.6949    2.4105   29.7086 N.am    1  UNL1       -0.2778
     22 H           2.6319    2.5626   29.4475 H       1  UNL1        0.1553
     23 C           3.1861   -0.7920   31.2501 C.3     1  UNL1        0.0345
     24 C           3.3095    0.4072   32.1426 C.ar    1  UNL1        0.0204
     25 C           4.2888    0.5727   33.2668 C.ar    1  UNL1        0.0396
     26 C           4.0598    1.9193   33.8866 C.ar    1  UNL1        0.1795
     27 O           2.9390    2.5861   33.1454 O.2     1  UNL1       -0.4461
     28 C           2.4753    1.6516   32.0676 C.ar    1  UNL1        0.1948
@<TRIPOS>BOND
     1    23    24    1
     2    24    25   ar
     3    25    26   ar
     4    26    27   ar
     5    27    28   ar
     6    28    19    1
     7    19    20    2
     8    19    21   am
     9    21     1    1
    10     1     2   ar
    11     2     3   ar
    12     3     4   ar
    13     4     8    1
    14     8     9    1
    15     9    10    1
    16    10    11   ar
    17    11    12    1
    18    11    13   ar
    19    13    14   ar
    20    14    15   ar
    21    15    16   ar
    22    16    17    1
    23    17    18    2
    24     4     5   ar
    25     5     6    1
    26     5     7   ar
    27    28    24   ar
    28     7     1   ar
    29    17     8   am
    30    16    10   ar
    31    21    22    1
@<TRIPOS>MOLECULE
*****
 28 31 0 0 0
SMALL
GASTEIGER

@<TRIPOS>ATOM
      1 C           6.1614   -2.7014   32.8106 C.ar    1  UNL1        0.0515
      2 C           4.7212   -2.8289   33.2102 C.ar    1  UNL1        0.0160
      3 C           3.9991   -1.6531   33.7983 C.ar    1  UNL1        0.0170
      4 C           4.7171   -0.3497   33.9870 C.ar    1  UNL1        0.0650
      5 C           6.1573   -0.2222   33.5874 C.ar    1  UNL1        0.0726
      6 CL          6.8754    1.0813   33.7761 Cl      1  UNL1       -0.0809
      7 C           6.8794   -1.3980   32.9992 C.ar    1  UNL1        0.0273
      8 N           3.9950    0.8261   34.5752 N.am    1  UNL1       -0.2500
      9 C           3.1051    1.7768   33.8307 C.3     1  UNL1        0.1260
     10 C           2.5961    2.7959   34.8065 C.ar    1  UNL1        0.0130
     11 C           1.6830    3.9746   34.6421 C.ar    1  UNL1        0.0554
     12 CL          1.1077    4.2954   33.2944 Cl      1  UNL1       -0.0825
     13 C           1.3453    4.8325   35.8252 C.ar    1  UNL1        0.0111
     14 C           1.9207    4.5117   37.1729 C.ar    1  UNL1        0.0010
     15 C           2.8337    3.3331   37.3373 C.ar    1  UNL1        0.0043
     16 C           3.1714    2.4752   36.1541 C.ar    1  UNL1        0.0524
     17 C           4.0360    1.2578   36.0111 C.2     1  UNL1        0.2528
     18 O           4.8063    0.5894   37.1110 O.2     1  UNL1       -0.2696
     19 C           7.0747   -3.9739   30.7378 C.2     1  UNL1        0.2839
     20 O           6.5437   -2.8948   29.8413 O.2     1  UNL1       -0.2665
     21 N           6.8835   -3.8772   32.2224 N.am    1  UNL1       -0.2778
     22 H           7.2320   -4.5854   32.8108 H       1  UNL1        0.1553
     23 C           6.3029   -5.5063   27.9619 C.3     1  UNL1        0.0345
     24 C           7.4420   -5.8541   28.8736 C.ar    1  UNL1        0.0204
     25 C           8.4265   -6.9674   28.6696 C.ar    1  UNL1        0.0396
     26 C           9.3896   -6.9510   29.8194 C.ar    1  UNL1        0.1795
     27 O           9.0004   -5.8277   30.7341 O.2     1  UNL1       -0.4461
     28 C           7.7968   -5.1498   30.1496 C.ar    1  UNL1        0.1948
@<TRIPOS>BOND
     1    23    24    1
     2    24    25   ar
     3    25    26   ar
     4    26    27   ar
     5    27    28   ar
     6    28    19    1
     7    19    20    2
     8    19    21   am
     9    21     1    1
    10     1     2   ar
    11     2     3   ar
    12     3     4   ar
    13     4     8    1
    14     8     9    1
    15     9    10    1
    16    10    11   ar
    17    11    12    1
    18    11    13   ar
    19    13    14   ar
    20    14    15   ar
    21    15    16   ar
    22    16    17    1
    23    17    18    2
    24     4     5   ar
    25     5     6    1
    26     5     7   ar
    27    28    24   ar
    28     7     1   ar
    29    17     8   am
    30    16    10   ar
    31    21    22    1
@<TRIPOS>MOLECULE
*****
 28 31 0 0 0
SMALL
GASTEIGER

@<TRIPOS>ATOM
      1 C           3.8304   -1.2762   27.6440 C.ar    1  UNL1        0.0515
      2 C           5.1293   -1.6537   28.2923 C.ar    1  UNL1        0.0160
      3 C           5.3843   -1.2944   29.7261 C.ar    1  UNL1        0.0170
      4 C           4.3403   -0.5575   30.5117 C.ar    1  UNL1        0.0650
      5 C           3.0414   -0.1799   29.8634 C.ar    1  UNL1        0.0726
      6 CL          1.9974    0.5570   30.6490 Cl      1  UNL1       -0.0809
      7 C           2.7865   -0.5393   28.4296 C.ar    1  UNL1        0.0273
      8 N           4.5953   -0.1982   31.9455 N.am    1  UNL1       -0.2500
      9 C           5.1389    1.1080   32.4439 C.3     1  UNL1        0.1260
     10 C           5.2310    1.0315   33.9391 C.ar    1  UNL1        0.0130
     11 C           5.6952    2.0194   34.9680 C.ar    1  UNL1        0.0554
     12 CL          6.1820    3.3729   34.5422 Cl      1  UNL1       -0.0825
     13 C           5.6726    1.6539   36.4225 C.ar    1  UNL1        0.0111
     14 C           5.1858    0.3005   36.8483 C.ar    1  UNL1        0.0010
     15 C           4.7216   -0.6874   35.8195 C.ar    1  UNL1        0.0043
     16 C           4.7442   -0.3219   34.3649 C.ar    1  UNL1        0.0524
     17 C           4.3513   -1.0819   33.1328 C.2     1  UNL1        0.2528
     18 O           3.8096   -2.4801   33.0946 O.2     1  UNL1       -0.2696
     19 C           3.9277   -0.6671   25.1203 C.2     1  UNL1        0.2839
     20 O           4.5349    0.6608   25.4641 O.2     1  UNL1       -0.2665
     21 N           3.5755   -1.6355   26.2102 N.am    1  UNL1       -0.2778
     22 H           3.1769   -2.5070   25.9845 H       1  UNL1        0.1553
     23 C           5.2125   -3.2051   23.5212 C.3     1  UNL1        0.0345
     24 C           4.2634   -2.1931   22.9514 C.ar    1  UNL1        0.0204
     25 C           3.7380   -2.1699   21.5466 C.ar    1  UNL1        0.0396
     26 C           2.8228   -0.9889   21.4133 C.ar    1  UNL1        0.1795
     27 O           2.7825   -0.2823   22.7359 O.2     1  UNL1       -0.4461
     28 C           3.6727   -1.0264   23.6864 C.ar    1  UNL1        0.1948
@<TRIPOS>BOND
     1    23    24    1
     2    24    25   ar
     3    25    26   ar
     4    26    27   ar
     5    27    28   ar
     6    28    19    1
     7    19    20    2
     8    19    21   am
     9    21     1    1
    10     1     2   ar
    11     2     3   ar
    12     3     4   ar
    13     4     8    1
    14     8     9    1
    15     9    10    1
    16    10    11   ar
    17    11    12    1
    18    11    13   ar
    19    13    14   ar
    20    14    15   ar
    21    15    16   ar
    22    16    17    1
    23    17    18    2
    24     4     5   ar
    25     5     6    1
    26     5     7   ar
    27    28    24   ar
    28     7     1   ar
    29    17     8   am
    30    16    10   ar
    31    21    22    1
@<TRIPOS>MOLECULE
*****
 28 31 0 0 0
SMALL
GASTEIGER

@<TRIPOS>ATOM
      1 C           4.9241   -0.4842   34.0888 C.ar    1  UNL1        0.0515
      2 C           4.2737   -1.8195   33.8796 C.ar    1  UNL1        0.0160
      3 C           4.8729   -2.8034   32.9189 C.ar    1  UNL1        0.0170
      4 C           6.1226   -2.4520   32.1674 C.ar    1  UNL1        0.0650
      5 C           6.7730   -1.1166   32.3766 C.ar    1  UNL1        0.0726
      6 CL          8.0227   -0.7651   31.6251 Cl      1  UNL1       -0.0809
      7 C           6.1738   -0.1328   33.3373 C.ar    1  UNL1        0.0273
      8 N           6.7218   -3.4358   31.2067 N.am    1  UNL1       -0.2500
      9 C           7.5811   -4.6106   31.5691 C.3     1  UNL1        0.1260
     10 C           7.9573   -5.3185   30.3013 C.ar    1  UNL1        0.0130
     11 C           8.7897   -6.5392   30.0423 C.ar    1  UNL1        0.0554
     12 CL          9.4165   -7.2765   31.1884 Cl      1  UNL1       -0.0825
     13 C           8.9952   -7.0226   28.6373 C.ar    1  UNL1        0.0111
     14 C           8.3683   -6.2853   27.4913 C.ar    1  UNL1        0.0010
     15 C           7.5359   -5.0646   27.7502 C.ar    1  UNL1        0.0043
     16 C           7.3305   -4.5812   29.1552 C.ar    1  UNL1        0.0524
     17 C           6.5669   -3.4177   29.7148 C.2     1  UNL1        0.2528
     18 O           5.7855   -2.4124   28.9217 O.2     1  UNL1       -0.2696
     19 C           4.7216    0.4724   36.4958 C.2     1  UNL1        0.2839
     20 O           5.7175   -0.5388   36.9815 O.2     1  UNL1       -0.2665
     21 N           4.3249    0.4996   35.0495 N.am    1  UNL1       -0.2778
     22 H           3.6713    1.1633   34.7307 H       1  UNL1        0.1553
     23 C           6.3743    2.5440   38.4001 C.3     1  UNL1        0.0345
     24 C           4.8821    2.4085   38.3319 C.ar    1  UNL1        0.0204
     25 C           3.8875    3.2013   39.1269 C.ar    1  UNL1        0.0396
     26 C           2.5130    2.7392   38.7430 C.ar    1  UNL1        0.1795
     27 O           2.6582    1.6607   37.7106 O.2     1  UNL1       -0.4461
     28 C           4.1224    1.4562   37.4565 C.ar    1  UNL1        0.1948
@<TRIPOS>BOND
     1    23    24    1
     2    24    25   ar
     3    25    26   ar
     4    26    27   ar
     5    27    28   ar
     6    28    19    1
     7    19    20    2
     8    19    21   am
     9    21     1    1
    10     1     2   ar
    11     2     3   ar
    12     3     4   ar
    13     4     8    1
    14     8     9    1
    15     9    10    1
    16    10    11   ar
    17    11    12    1
    18    11    13   ar
    19    13    14   ar
    20    14    15   ar
    21    15    16   ar
    22    16    17    1
    23    17    18    2
    24     4     5   ar
    25     5     6    1
    26     5     7   ar
    27    28    24   ar
    28     7     1   ar
    29    17     8   am
    30    16    10   ar
    31    21    22    1
@<TRIPOS>MOLECULE
*****
 28 31 0 0 0
SMALL
GASTEIGER

@<TRIPOS>ATOM
      1 C          -1.8611    3.6964   21.6442 C.ar    1  UNL1        0.0515
      2 C          -0.8495    2.9581   22.4696 C.ar    1  UNL1        0.0160
      3 C           0.3235    2.2996   21.8059 C.ar    1  UNL1        0.0170
      4 C           0.4849    2.3795   20.3168 C.ar    1  UNL1        0.0650
      5 C          -0.5267    3.1179   19.4914 C.ar    1  UNL1        0.0726
      6 CL         -0.3654    3.1978   18.0021 Cl      1  UNL1       -0.0809
      7 C          -1.6997    3.7763   20.1551 C.ar    1  UNL1        0.0273
      8 N           1.6579    1.7210   19.6531 N.am    1  UNL1       -0.2500
      9 C           2.8156    2.4243   19.0088 C.3     1  UNL1        0.1260
     10 C           3.7524    1.3816   18.4746 C.ar    1  UNL1        0.0130
     11 C           5.0576    1.4852   17.7428 C.ar    1  UNL1        0.0554
     12 CL          5.6364    2.8329   17.4286 Cl      1  UNL1       -0.0825
     13 C           5.7840    0.2411   17.3251 C.ar    1  UNL1        0.0111
     14 C           5.2052   -1.1066   17.6393 C.ar    1  UNL1        0.0010
     15 C           3.9000   -1.2102   18.3711 C.ar    1  UNL1        0.0043
     16 C           3.1736    0.0339   18.7888 C.ar    1  UNL1        0.0524
     17 C           1.8791    0.2437   19.5171 C.2     1  UNL1        0.2528
     18 O           0.9662   -0.8346   20.0210 O.2     1  UNL1       -0.2696
     19 C          -4.3917    3.7216   22.2319 C.2     1  UNL1        0.2839
     20 O          -4.5763    2.4298   21.4922 O.2     1  UNL1       -0.2665
     21 N          -3.0341    4.3549   22.3079 N.am    1  UNL1       -0.2778
     22 H          -2.9129    5.2028   22.7934 H       1  UNL1        0.1553
     23 C          -4.9268    3.8980   25.4463 C.3     1  UNL1        0.0345
     24 C          -5.8106    4.4612   24.3731 C.ar    1  UNL1        0.0204
     25 C          -7.0957    5.2043   24.5890 C.ar    1  UNL1        0.0396
     26 C          -7.6439    5.5825   23.2449 C.ar    1  UNL1        0.1795
     27 O          -6.6976    5.0731   22.1984 O.2     1  UNL1       -0.4461
     28 C          -5.5647    4.3801   22.8956 C.ar    1  UNL1        0.1948
@<TRIPOS>BOND
     1    23    24    1
     2    24    25   ar
     3    25    26   ar
     4    26    27   ar
     5    27    28   ar
     6    28    19    1
     7    19    20    2
     8    19    21   am
     9    21     1    1
    10     1     2   ar
    11     2     3   ar
    12     3     4   ar
    13     4     8    1
    14     8     9    1
    15     9    10    1
    16    10    11   ar
    17    11    12    1
    18    11    13   ar
    19    13    14   ar
    20    14    15   ar
    21    15    16   ar
    22    16    17    1
    23    17    18    2
    24     4     5   ar
    25     5     6    1
    26     5     7   ar
    27    28    24   ar
    28     7     1   ar
    29    17     8   am
    30    16    10   ar
    31    21    22    1
