@<TRIPOS>MOLECULE
*****
 27 30 0 0 0
SMALL
GASTEIGER

@<TRIPOS>ATOM
      1 C          -5.8832  -15.6193   26.0457 C.ar    1  UNL1       -0.0107
      2 C          -4.9189  -16.7624   26.1619 C.ar    1  UNL1       -0.0003
      3 C          -4.0744  -17.1537   24.9856 C.ar    1  UNL1        0.0366
      4 C          -4.1941  -16.4019   23.6931 C.ar    1  UNL1        0.1390
      5 C          -5.1584  -15.2588   23.5769 C.ar    1  UNL1        0.0366
      6 C          -6.0029  -14.8675   24.7533 C.ar    1  UNL1       -0.0003
      7 C          -6.7277  -15.2280   27.2219 C.3     1  UNL1        0.0913
      8 S          -8.1981  -15.5243   27.2212 S.3     1  UNL1       -0.0709
      9 C         -10.6760  -18.8866   22.3060 C.2     1  UNL1        0.1223
     10 C         -10.6693  -20.0100   23.2999 C.2     1  UNL1        0.0343
     11 C         -10.1641  -19.7760   24.6928 C.2     1  UNL1        0.0232
     12 C          -9.6657  -18.4187   25.0917 C.2     1  UNL1        0.0975
     13 N          -9.1126  -17.8920   26.3827 N.2     1  UNL1       -0.2200
     14 C          -8.7775  -16.4431   26.1867 C.2     1  UNL1        0.1901
     15 N          -9.1236  -16.0743   24.7745 N.2     1  UNL1       -0.2236
     16 C          -9.6725  -17.2953   24.0978 C.2     1  UNL1        0.0863
     17 C         -10.1777  -17.5293   22.7049 C.3     1  UNL1        0.1112
     18 C         -10.9899  -18.0702   19.8596 C.3     1  UNL1        0.2520
     19 O         -11.1812  -19.1206   20.9131 O.2     1  UNL1       -0.4753
     20 O          -3.3496  -16.7932   22.5169 O.3     1  UNL1       -0.4706
     21 C          -2.9561  -18.2273   22.3201 C.3     1  UNL1        0.2320
     22 C          -3.9063  -19.1820   21.6602 C.ar    1  UNL1        0.0212
     23 C          -5.2902  -19.3628   22.2099 C.ar    1  UNL1       -0.0007
     24 C          -6.2405  -20.3176   21.5500 C.ar    1  UNL1       -0.0002
     25 C          -5.8069  -21.0915   20.3405 C.ar    1  UNL1       -0.0000
     26 C          -4.4230  -20.9107   19.7908 C.ar    1  UNL1       -0.0002
     27 C          -3.4727  -19.9560   20.4507 C.ar    1  UNL1       -0.0007
@<TRIPOS>BOND
     1    18    19    1
     2    19     9    1
     3     9    10    2
     4    10    11    1
     5    11    12    2
     6    12    13    1
     7    13    14    2
     8    14     8    1
     9     8     7    1
    10     7     1    1
    11     1     2   ar
    12     2     3   ar
    13     3     4   ar
    14     4    20    1
    15    20    21    1
    16    21    22    1
    17    22    23   ar
    18    23    24   ar
    19    24    25   ar
    20    25    26   ar
    21    26    27   ar
    22     4     5   ar
    23     5     6   ar
    24    14    15    1
    25    15    16    2
    26    16    17    1
    27    17     9    1
    28    16    12    1
    29     6     1   ar
    30    27    22   ar
@<TRIPOS>MOLECULE
*****
 27 30 0 0 0
SMALL
GASTEIGER

@<TRIPOS>ATOM
      1 C          -8.0632  -15.5927   23.8207 C.ar    1  UNL1       -0.0107
      2 C          -8.4954  -15.4903   22.3880 C.ar    1  UNL1       -0.0003
      3 C          -9.6634  -16.2936   21.8978 C.ar    1  UNL1        0.0366
      4 C         -10.3992  -17.1994   22.8403 C.ar    1  UNL1        0.1390
      5 C          -9.9669  -17.3018   24.2730 C.ar    1  UNL1        0.0366
      6 C          -8.7989  -16.4984   24.7632 C.ar    1  UNL1       -0.0003
      7 C          -6.8951  -14.7894   24.3109 C.3     1  UNL1        0.0913
      8 S          -5.6654  -15.4846   24.8153 S.3     1  UNL1       -0.0709
      9 C          -1.7763  -18.6179   20.7334 C.2     1  UNL1        0.1223
     10 C          -2.6992  -19.7671   21.0118 C.2     1  UNL1        0.0343
     11 C          -3.8557  -19.5898   21.9505 C.2     1  UNL1        0.0232
     12 C          -4.0893  -18.2634   22.6107 C.2     1  UNL1        0.0975
     13 N          -5.1378  -17.7929   23.5747 N.2     1  UNL1       -0.2200
     14 C          -4.8628  -16.3528   23.8921 C.2     1  UNL1        0.1901
     15 N          -3.6444  -15.9334   23.1243 N.2     1  UNL1       -0.2236
     16 C          -3.1664  -17.1143   22.3324 C.2     1  UNL1        0.0863
     17 C          -2.0099  -17.2915   21.3937 C.3     1  UNL1        0.1112
     18 C           0.4881  -17.7843   19.7704 C.3     1  UNL1        0.2520
     19 O          -0.6198  -18.7952   19.7948 O.2     1  UNL1       -0.4753
     20 O         -11.5672  -18.0028   22.3501 O.3     1  UNL1       -0.4706
     21 C         -11.3363  -19.2596   21.5646 C.3     1  UNL1        0.2320
     22 C          -9.9976  -19.5179   20.9391 C.ar    1  UNL1        0.0212
     23 C          -9.8727  -19.6142   19.4475 C.ar    1  UNL1       -0.0007
     24 C          -8.5340  -19.8725   18.8220 C.ar    1  UNL1       -0.0002
     25 C          -7.3202  -20.0344   19.6883 C.ar    1  UNL1       -0.0000
     26 C          -7.4451  -19.9381   21.1800 C.ar    1  UNL1       -0.0002
     27 C          -8.7837  -19.6798   21.8054 C.ar    1  UNL1       -0.0007
@<TRIPOS>BOND
     1    18    19    1
     2    19     9    1
     3     9    10    2
     4    10    11    1
     5    11    12    2
     6    12    13    1
     7    13    14    2
     8    14     8    1
     9     8     7    1
    10     7     1    1
    11     1     2   ar
    12     2     3   ar
    13     3     4   ar
    14     4    20    1
    15    20    21    1
    16    21    22    1
    17    22    23   ar
    18    23    24   ar
    19    24    25   ar
    20    25    26   ar
    21    26    27   ar
    22     4     5   ar
    23     5     6   ar
    24    14    15    1
    25    15    16    2
    26    16    17    1
    27    17     9    1
    28    16    12    1
    29     6     1   ar
    30    27    22   ar
@<TRIPOS>MOLECULE
*****
 27 30 0 0 0
SMALL
GASTEIGER

@<TRIPOS>ATOM
      1 C          -9.9472  -19.3875   20.8818 C.ar    1  UNL1       -0.0107
      2 C          -9.4820  -19.3878   19.4557 C.ar    1  UNL1       -0.0003
      3 C          -8.0367  -19.6336   19.1383 C.ar    1  UNL1        0.0366
      4 C          -7.0566  -19.8793   20.2470 C.ar    1  UNL1        0.1390
      5 C          -7.5218  -19.8791   21.6730 C.ar    1  UNL1        0.0366
      6 C          -8.9671  -19.6332   21.9904 C.ar    1  UNL1       -0.0003
      7 C         -11.3924  -19.1417   21.1992 C.3     1  UNL1        0.0913
      8 S         -11.7783  -18.0206   22.1181 S.3     1  UNL1       -0.0709
      9 C          -7.4685  -15.6375   26.2836 C.2     1  UNL1        0.1223
     10 C          -8.0612  -16.6574   27.2102 C.2     1  UNL1        0.0343
     11 C          -9.1714  -17.5472   26.7349 C.2     1  UNL1        0.0232
     12 C          -9.6888  -17.4171   25.3330 C.2     1  UNL1        0.0975
     13 N         -10.7657  -18.1493   24.5886 N.2     1  UNL1       -0.2200
     14 C         -10.8385  -17.5820   23.2019 C.2     1  UNL1        0.1901
     15 N          -9.8067  -16.4991   23.0893 N.2     1  UNL1       -0.2236
     16 C          -9.0961  -16.3972   24.4064 C.2     1  UNL1        0.0863
     17 C          -7.9860  -15.5074   24.8817 C.3     1  UNL1        0.1112
     18 C          -5.0195  -14.7936   26.0843 C.3     1  UNL1        0.2520
     19 O          -6.3584  -14.7478   26.7589 O.2     1  UNL1       -0.4753
     20 O          -5.6114  -20.1252   19.9296 O.3     1  UNL1       -0.4706
     21 C          -4.5797  -20.0380   21.0150 C.3     1  UNL1        0.2320
     22 C          -3.6269  -18.8801   21.0528 C.ar    1  UNL1        0.0212
     23 C          -3.4177  -18.1225   22.3304 C.ar    1  UNL1       -0.0007
     24 C          -2.4648  -16.9646   22.3682 C.ar    1  UNL1       -0.0002
     25 C          -1.7213  -16.5643   21.1285 C.ar    1  UNL1       -0.0000
     26 C          -1.9306  -17.3220   19.8509 C.ar    1  UNL1       -0.0002
     27 C          -2.8834  -18.4798   19.8131 C.ar    1  UNL1       -0.0007
@<TRIPOS>BOND
     1    18    19    1
     2    19     9    1
     3     9    10    2
     4    10    11    1
     5    11    12    2
     6    12    13    1
     7    13    14    2
     8    14     8    1
     9     8     7    1
    10     7     1    1
    11     1     2   ar
    12     2     3   ar
    13     3     4   ar
    14     4    20    1
    15    20    21    1
    16    21    22    1
    17    22    23   ar
    18    23    24   ar
    19    24    25   ar
    20    25    26   ar
    21    26    27   ar
    22     4     5   ar
    23     5     6   ar
    24    14    15    1
    25    15    16    2
    26    16    17    1
    27    17     9    1
    28    16    12    1
    29     6     1   ar
    30    27    22   ar
@<TRIPOS>MOLECULE
*****
 27 30 0 0 0
SMALL
GASTEIGER

@<TRIPOS>ATOM
      1 C          -7.6929  -16.2723   24.5165 C.ar    1  UNL1       -0.0107
      2 C          -7.7323  -16.9867   23.1981 C.ar    1  UNL1       -0.0003
      3 C          -8.6598  -18.1492   23.0024 C.ar    1  UNL1        0.0366
      4 C          -9.5480  -18.5973   24.1251 C.ar    1  UNL1        0.1390
      5 C          -9.5087  -17.8829   25.4435 C.ar    1  UNL1        0.0366
      6 C          -8.5811  -16.7204   25.6391 C.ar    1  UNL1       -0.0003
      7 C          -6.7654  -15.1099   24.7122 C.3     1  UNL1        0.0913
      8 S          -5.2990  -15.3471   24.9201 S.3     1  UNL1       -0.0709
      9 C          -1.7691  -18.2549   20.3715 C.2     1  UNL1        0.1223
     10 C          -2.2279  -19.5050   21.0619 C.2     1  UNL1        0.0343
     11 C          -3.1266  -19.4137   22.2594 C.2     1  UNL1        0.0232
     12 C          -3.5664  -18.0723   22.7666 C.2     1  UNL1        0.0975
     13 N          -4.4432  -17.6719   23.9159 N.2     1  UNL1       -0.2200
     14 C          -4.5262  -16.1743   23.9358 C.2     1  UNL1        0.1901
     15 N          -3.7007  -15.6492   22.7988 N.2     1  UNL1       -0.2236
     16 C          -3.1075  -16.8223   22.0762 C.2     1  UNL1        0.0863
     17 C          -2.2089  -16.9136   20.8787 C.3     1  UNL1        0.1112
     18 C          -1.3398  -17.8371   17.8435 C.3     1  UNL1        0.2520
     19 O          -0.8704  -18.3462   19.1740 O.2     1  UNL1       -0.4753
     20 O         -10.4755  -19.7598   23.9294 O.3     1  UNL1       -0.4706
     21 C         -11.2052  -19.9265   22.6294 C.3     1  UNL1        0.2320
     22 C         -11.4880  -18.7307   21.7694 C.ar    1  UNL1        0.0212
     23 C         -12.3275  -17.6067   22.3003 C.ar    1  UNL1       -0.0007
     24 C         -12.6103  -16.4107   21.4401 C.ar    1  UNL1       -0.0002
     25 C         -12.0537  -16.3388   20.0491 C.ar    1  UNL1       -0.0000
     26 C         -11.2142  -17.4628   19.5182 C.ar    1  UNL1       -0.0002
     27 C         -10.9314  -18.6587   20.3783 C.ar    1  UNL1       -0.0007
@<TRIPOS>BOND
     1    18    19    1
     2    19     9    1
     3     9    10    2
     4    10    11    1
     5    11    12    2
     6    12    13    1
     7    13    14    2
     8    14     8    1
     9     8     7    1
    10     7     1    1
    11     1     2   ar
    12     2     3   ar
    13     3     4   ar
    14     4    20    1
    15    20    21    1
    16    21    22    1
    17    22    23   ar
    18    23    24   ar
    19    24    25   ar
    20    25    26   ar
    21    26    27   ar
    22     4     5   ar
    23     5     6   ar
    24    14    15    1
    25    15    16    2
    26    16    17    1
    27    17     9    1
    28    16    12    1
    29     6     1   ar
    30    27    22   ar
@<TRIPOS>MOLECULE
*****
 27 30 0 0 0
SMALL
GASTEIGER

@<TRIPOS>ATOM
      1 C         -10.5973  -19.1645   22.1800 C.ar    1  UNL1       -0.0107
      2 C         -10.0330  -20.1560   23.1538 C.ar    1  UNL1       -0.0003
      3 C          -9.6734  -19.7211   24.5436 C.ar    1  UNL1        0.0366
      4 C          -9.8782  -18.2945   24.9596 C.ar    1  UNL1        0.1390
      5 C         -10.4426  -17.3029   23.9858 C.ar    1  UNL1        0.0366
      6 C         -10.8021  -17.7380   22.5959 C.ar    1  UNL1       -0.0003
      7 C         -10.9569  -19.5994   20.7903 C.3     1  UNL1        0.0913
      8 S          -9.9299  -19.5456   19.6982 S.3     1  UNL1       -0.0709
      9 C          -3.7975  -18.8931   21.5884 C.2     1  UNL1        0.1223
     10 C          -3.5901  -20.1136   20.7414 C.2     1  UNL1        0.0343
     11 C          -4.7509  -20.7324   20.0205 C.2     1  UNL1        0.0232
     12 C          -6.1191  -20.1307   20.1466 C.2     1  UNL1        0.0975
     13 N          -7.4436  -20.5173   19.5583 N.2     1  UNL1       -0.2200
     14 C          -8.4697  -19.5357   20.0417 C.2     1  UNL1        0.1901
     15 N          -7.7794  -18.5425   20.9288 N.2     1  UNL1       -0.2236
     16 C          -6.3265  -18.9103   20.9936 C.2     1  UNL1        0.0863
     17 C          -5.1658  -18.2915   21.7145 C.3     1  UNL1        0.1112
     18 C          -2.4278  -16.7898   22.2592 C.3     1  UNL1        0.2520
     19 O          -2.6368  -18.2743   22.3093 O.2     1  UNL1       -0.4753
     20 O          -9.5187  -17.8595   26.3494 O.3     1  UNL1       -0.4706
     21 C          -8.9696  -16.4839   26.5863 C.3     1  UNL1        0.2320
     22 C          -7.6957  -16.0594   25.9178 C.ar    1  UNL1        0.0212
     23 C          -6.4336  -15.9352   26.7188 C.ar    1  UNL1       -0.0007
     24 C          -5.1597  -15.5107   26.0503 C.ar    1  UNL1       -0.0002
     25 C          -5.1479  -15.2104   24.5807 C.ar    1  UNL1       -0.0000
     26 C          -6.4100  -15.3346   23.7796 C.ar    1  UNL1       -0.0002
     27 C          -7.6839  -15.7591   24.4481 C.ar    1  UNL1       -0.0007
@<TRIPOS>BOND
     1    18    19    1
     2    19     9    1
     3     9    10    2
     4    10    11    1
     5    11    12    2
     6    12    13    1
     7    13    14    2
     8    14     8    1
     9     8     7    1
    10     7     1    1
    11     1     2   ar
    12     2     3   ar
    13     3     4   ar
    14     4    20    1
    15    20    21    1
    16    21    22    1
    17    22    23   ar
    18    23    24   ar
    19    24    25   ar
    20    25    26   ar
    21    26    27   ar
    22     4     5   ar
    23     5     6   ar
    24    14    15    1
    25    15    16    2
    26    16    17    1
    27    17     9    1
    28    16    12    1
    29     6     1   ar
    30    27    22   ar
@<TRIPOS>MOLECULE
*****
 27 30 0 0 0
SMALL
GASTEIGER

@<TRIPOS>ATOM
      1 C          -9.2778  -19.0360   20.4516 C.ar    1  UNL1       -0.0107
      2 C          -8.6149  -19.4166   19.1610 C.ar    1  UNL1       -0.0003
      3 C          -7.2988  -20.1361   19.1774 C.ar    1  UNL1        0.0366
      4 C          -6.6456  -20.4749   20.4846 C.ar    1  UNL1        0.1390
      5 C          -7.3085  -20.0943   21.7752 C.ar    1  UNL1        0.0366
      6 C          -8.6246  -19.3748   21.7587 C.ar    1  UNL1       -0.0003
      7 C         -10.5938  -18.3165   20.4351 C.3     1  UNL1        0.0913
      8 S         -10.7418  -17.0071   21.1517 S.3     1  UNL1       -0.0709
      9 C          -6.9361  -15.4468   26.1203 C.2     1  UNL1        0.1223
     10 C          -5.9576  -15.1034   25.0365 C.2     1  UNL1        0.0343
     11 C          -6.3392  -15.2829   23.5970 C.2     1  UNL1        0.0232
     12 C          -7.6993  -15.8058   23.2413 C.2     1  UNL1        0.0975
     13 N          -8.3534  -16.0854   21.9207 N.2     1  UNL1       -0.2200
     14 C          -9.7361  -16.6016   22.1882 C.2     1  UNL1        0.1901
     15 N          -9.9367  -16.6410   23.6742 N.2     1  UNL1       -0.2236
     16 C          -8.6779  -16.1492   24.3251 C.2     1  UNL1        0.0863
     17 C          -8.2962  -15.9697   25.7645 C.3     1  UNL1        0.1112
     18 C          -6.9723  -14.0301   28.2978 C.3     1  UNL1        0.2520
     19 O          -6.5545  -15.2673   27.5598 O.2     1  UNL1       -0.4753
     20 O          -5.3295  -21.1944   20.5010 O.3     1  UNL1       -0.4706
     21 C          -4.0927  -20.5071   20.0031 C.3     1  UNL1        0.2320
     22 C          -3.5368  -19.3304   20.7490 C.ar    1  UNL1        0.0212
     23 C          -3.8065  -19.1771   22.2165 C.ar    1  UNL1       -0.0007
     24 C          -3.2505  -18.0004   22.9624 C.ar    1  UNL1       -0.0002
     25 C          -2.4249  -16.9770   22.2406 C.ar    1  UNL1       -0.0000
     26 C          -2.1552  -17.1302   20.7731 C.ar    1  UNL1       -0.0002
     27 C          -2.7111  -18.3069   20.0272 C.ar    1  UNL1       -0.0007
@<TRIPOS>BOND
     1    18    19    1
     2    19     9    1
     3     9    10    2
     4    10    11    1
     5    11    12    2
     6    12    13    1
     7    13    14    2
     8    14     8    1
     9     8     7    1
    10     7     1    1
    11     1     2   ar
    12     2     3   ar
    13     3     4   ar
    14     4    20    1
    15    20    21    1
    16    21    22    1
    17    22    23   ar
    18    23    24   ar
    19    24    25   ar
    20    25    26   ar
    21    26    27   ar
    22     4     5   ar
    23     5     6   ar
    24    14    15    1
    25    15    16    2
    26    16    17    1
    27    17     9    1
    28    16    12    1
    29     6     1   ar
    30    27    22   ar
@<TRIPOS>MOLECULE
*****
 27 30 0 0 0
SMALL
GASTEIGER

@<TRIPOS>ATOM
      1 C         -10.1369  -17.5768   23.7315 C.ar    1  UNL1       -0.0107
      2 C          -9.9248  -18.4000   24.9674 C.ar    1  UNL1       -0.0003
      3 C          -9.1846  -17.8208   26.1364 C.ar    1  UNL1        0.0366
      4 C          -8.6565  -16.4183   26.0696 C.ar    1  UNL1        0.1390
      5 C          -8.8686  -15.5952   24.8337 C.ar    1  UNL1        0.0366
      6 C          -9.6088  -16.1745   23.6646 C.ar    1  UNL1       -0.0003
      7 C         -10.8770  -18.1560   22.5625 C.3     1  UNL1        0.0913
      8 S         -10.2676  -19.2726   21.7675 S.3     1  UNL1       -0.0709
      9 C          -4.0533  -19.1515   20.0438 C.2     1  UNL1        0.1223
     10 C          -3.8362  -19.6413   21.4448 C.2     1  UNL1        0.0343
     11 C          -5.0097  -19.8611   22.3528 C.2     1  UNL1        0.0232
     12 C          -6.4004  -19.5911   21.8598 C.2     1  UNL1        0.0975
     13 N          -7.7413  -19.7149   22.5206 N.2     1  UNL1       -0.2200
     14 C          -8.7871  -19.3016   21.5279 C.2     1  UNL1        0.1901
     15 N          -8.0926  -18.9223   20.2536 N.2     1  UNL1       -0.2236
     16 C          -6.6175  -19.1013   20.4588 C.2     1  UNL1        0.0863
     17 C          -5.4439  -18.8815   19.5508 C.3     1  UNL1        0.1112
     18 C          -2.1944  -17.5978   19.1055 C.3     1  UNL1        0.2520
     19 O          -2.8797  -18.9317   19.1358 O.2     1  UNL1       -0.4753
     20 O          -7.9164  -15.8391   27.2386 O.3     1  UNL1       -0.4706
     21 C          -6.5464  -15.2593   27.0463 C.3     1  UNL1        0.2320
     22 C          -5.6981  -15.7058   25.8926 C.ar    1  UNL1        0.0212
     23 C          -5.7251  -14.9420   24.6019 C.ar    1  UNL1       -0.0007
     24 C          -4.8768  -15.3887   23.4483 C.ar    1  UNL1       -0.0002
     25 C          -4.0015  -16.5991   23.5853 C.ar    1  UNL1       -0.0000
     26 C          -3.9745  -17.3629   24.8760 C.ar    1  UNL1       -0.0002
     27 C          -4.8228  -16.9163   26.0296 C.ar    1  UNL1       -0.0007
@<TRIPOS>BOND
     1    18    19    1
     2    19     9    1
     3     9    10    2
     4    10    11    1
     5    11    12    2
     6    12    13    1
     7    13    14    2
     8    14     8    1
     9     8     7    1
    10     7     1    1
    11     1     2   ar
    12     2     3   ar
    13     3     4   ar
    14     4    20    1
    15    20    21    1
    16    21    22    1
    17    22    23   ar
    18    23    24   ar
    19    24    25   ar
    20    25    26   ar
    21    26    27   ar
    22     4     5   ar
    23     5     6   ar
    24    14    15    1
    25    15    16    2
    26    16    17    1
    27    17     9    1
    28    16    12    1
    29     6     1   ar
    30    27    22   ar
@<TRIPOS>MOLECULE
*****
 27 30 0 0 0
SMALL
GASTEIGER

@<TRIPOS>ATOM
      1 C          -8.3014  -19.6096   21.0107 C.ar    1  UNL1       -0.0107
      2 C          -8.2255  -19.9425   22.4714 C.ar    1  UNL1       -0.0003
      3 C          -8.8819  -19.0468   23.4798 C.ar    1  UNL1        0.0366
      4 C          -9.6142  -17.8182   23.0275 C.ar    1  UNL1        0.1390
      5 C          -9.6900  -17.4854   21.5669 C.ar    1  UNL1        0.0366
      6 C          -9.0336  -18.3811   20.5585 C.ar    1  UNL1       -0.0003
      7 C          -7.6450  -20.5053   20.0024 C.3     1  UNL1        0.0913
      8 S          -6.2766  -21.0590   20.2692 S.3     1  UNL1       -0.0709
      9 C          -1.0127  -17.3381   20.4949 C.2     1  UNL1        0.1223
     10 C          -1.6377  -16.8331   21.7614 C.2     1  UNL1        0.0343
     11 C          -2.9542  -17.3863   22.2206 C.2     1  UNL1        0.0232
     12 C          -3.6457  -18.4445   21.4131 C.2     1  UNL1        0.0975
     13 N          -4.9414  -19.1732   21.6132 N.2     1  UNL1       -0.2200
     14 C          -5.1173  -20.1286   20.4703 C.2     1  UNL1        0.1901
     15 N          -3.9302  -19.9904   19.5638 N.2     1  UNL1       -0.2236
     16 C          -3.0207  -18.9495   20.1465 C.2     1  UNL1        0.0863
     17 C          -1.7042  -18.3963   19.6874 C.3     1  UNL1        0.1112
     18 C           1.5801  -17.4789   20.4092 C.3     1  UNL1        0.2520
     19 O           0.3038  -16.7850   20.0357 O.2     1  UNL1       -0.4753
     20 O         -10.2706  -16.9226   24.0359 O.3     1  UNL1       -0.4706
     21 C          -9.6450  -15.6059   24.3893 C.3     1  UNL1        0.2320
     22 C          -8.2817  -15.5668   25.0136 C.ar    1  UNL1        0.0212
     23 C          -7.0630  -15.4479   24.1472 C.ar    1  UNL1       -0.0007
     24 C          -5.6997  -15.4088   24.7716 C.ar    1  UNL1       -0.0002
     25 C          -5.5551  -15.4885   26.2625 C.ar    1  UNL1       -0.0000
     26 C          -6.7737  -15.6074   27.1289 C.ar    1  UNL1       -0.0002
     27 C          -8.1370  -15.6465   26.5046 C.ar    1  UNL1       -0.0007
@<TRIPOS>BOND
     1    18    19    1
     2    19     9    1
     3     9    10    2
     4    10    11    1
     5    11    12    2
     6    12    13    1
     7    13    14    2
     8    14     8    1
     9     8     7    1
    10     7     1    1
    11     1     2   ar
    12     2     3   ar
    13     3     4   ar
    14     4    20    1
    15    20    21    1
    16    21    22    1
    17    22    23   ar
    18    23    24   ar
    19    24    25   ar
    20    25    26   ar
    21    26    27   ar
    22     4     5   ar
    23     5     6   ar
    24    14    15    1
    25    15    16    2
    26    16    17    1
    27    17     9    1
    28    16    12    1
    29     6     1   ar
    30    27    22   ar
@<TRIPOS>MOLECULE
*****
 27 30 0 0 0
SMALL
GASTEIGER

@<TRIPOS>ATOM
      1 C          -9.4958  -19.5034   19.5258 C.ar    1  UNL1       -0.0107
      2 C         -10.1710  -20.3606   20.5550 C.ar    1  UNL1       -0.0003
      3 C         -11.3966  -19.8606   21.2605 C.ar    1  UNL1        0.0366
      4 C         -11.9472  -18.5033   20.9367 C.ar    1  UNL1        0.1390
      5 C         -11.2720  -17.6461   19.9074 C.ar    1  UNL1        0.0366
      6 C         -10.0463  -18.1462   19.2020 C.ar    1  UNL1       -0.0003
      7 C          -8.2702  -20.0035   18.8203 C.3     1  UNL1        0.0913
      8 S          -7.1003  -20.5053   19.6138 S.3     1  UNL1       -0.0709
      9 C          -5.0278  -16.3506   24.0911 C.2     1  UNL1        0.1223
     10 C          -3.7764  -17.1750   24.0256 C.2     1  UNL1        0.0343
     11 C          -3.6978  -18.3461   23.0917 C.2     1  UNL1        0.0232
     12 C          -4.8706  -18.6928   22.2232 C.2     1  UNL1        0.0975
     13 N          -5.0848  -19.7809   21.2132 N.2     1  UNL1       -0.2200
     14 C          -6.4686  -19.6290   20.6545 C.2     1  UNL1        0.1901
     15 N          -7.1096  -18.4470   21.3191 N.2     1  UNL1       -0.2236
     16 C          -6.1220  -17.8683   22.2887 C.2     1  UNL1        0.0863
     17 C          -6.2006  -16.6972   23.2226 C.3     1  UNL1        0.1112
     18 C          -6.0247  -15.2256   26.2102 C.3     1  UNL1        0.2520
     19 O          -5.1064  -15.1795   25.0251 O.2     1  UNL1       -0.4753
     20 O         -13.1728  -18.0033   21.6421 O.3     1  UNL1       -0.4706
     21 C         -13.0837  -17.5471   23.0683 C.3     1  UNL1        0.2320
     22 C         -11.7530  -17.4996   23.7588 C.ar    1  UNL1        0.0212
     23 C         -11.3336  -18.6253   24.6571 C.ar    1  UNL1       -0.0007
     24 C         -10.0028  -18.5778   25.3477 C.ar    1  UNL1       -0.0002
     25 C          -9.0914  -17.4047   25.1399 C.ar    1  UNL1       -0.0000
     26 C          -9.5108  -16.2790   24.2415 C.ar    1  UNL1       -0.0002
     27 C         -10.8416  -16.3265   23.5510 C.ar    1  UNL1       -0.0007
@<TRIPOS>BOND
     1    18    19    1
     2    19     9    1
     3     9    10    2
     4    10    11    1
     5    11    12    2
     6    12    13    1
     7    13    14    2
     8    14     8    1
     9     8     7    1
    10     7     1    1
    11     1     2   ar
    12     2     3   ar
    13     3     4   ar
    14     4    20    1
    15    20    21    1
    16    21    22    1
    17    22    23   ar
    18    23    24   ar
    19    24    25   ar
    20    25    26   ar
    21    26    27   ar
    22     4     5   ar
    23     5     6   ar
    24    14    15    1
    25    15    16    2
    26    16    17    1
    27    17     9    1
    28    16    12    1
    29     6     1   ar
    30    27    22   ar
