@<TRIPOS>MOLECULE
*****
 29 32 0 0 0
SMALL
GASTEIGER

@<TRIPOS>ATOM
      1 C          -7.9888  -16.8972   21.8973 C.ar    1  UNL1        0.1361
      2 N          -6.8496  -17.7913   21.5067 N.ar    1  UNL1       -0.2131
      3 C          -7.1249  -19.1408   20.9125 C.ar    1  UNL1        0.1714
      4 N          -8.5395  -19.5962   20.7089 N.ar    1  UNL1       -0.2279
      5 C          -9.6789  -18.7020   21.0995 C.ar    1  UNL1        0.0854
      6 C         -11.0935  -19.1574   20.8959 C.ar    1  UNL1        0.0192
      7 C         -12.2327  -18.2633   21.2865 C.ar    1  UNL1        0.0015
      8 C         -11.9574  -16.9139   21.8808 C.ar    1  UNL1        0.0002
      9 C         -10.5428  -16.4585   22.0844 C.ar    1  UNL1        0.0043
     10 C          -9.4035  -17.3526   21.6937 C.ar    1  UNL1        0.0494
     11 C          -5.9856  -20.0349   20.5219 C.3     1  UNL1        0.1912
     12 O          -6.2517  -21.4527   20.1109 O.3     1  UNL1       -0.3730
     13 H          -7.2048  -21.6280   20.1527 H       1  UNL1        0.2113
     14 C          -4.5802  -19.5111   20.5422 C.ar    1  UNL1        0.0117
     15 C          -3.7325  -19.6851   21.7674 C.ar    1  UNL1        0.0008
     16 C          -2.3271  -19.1614   21.7877 C.ar    1  UNL1        0.0294
     17 C          -1.7693  -18.4636   20.5827 C.ar    1  UNL1        0.1401
     18 F          -0.3639  -17.9398   20.6030 F       1  UNL1       -0.2042
     19 C          -2.6169  -18.2896   19.3575 C.ar    1  UNL1        0.0294
     20 C          -4.0224  -18.8134   19.3372 C.ar    1  UNL1        0.0008
     21 N          -7.7135  -15.5477   22.4916 N.pl3   1  UNL1       -0.2819
     22 H          -7.7066  -14.7487   21.9164 H       1  UNL1        0.1551
     23 C          -8.2599  -15.8162   27.7365 C.3     1  UNL1        0.0515
     24 C          -7.6998  -15.5390   26.3729 C.ar    1  UNL1        0.0548
     25 C          -8.3588  -15.8665   25.0658 C.ar    1  UNL1        0.0502
     26 C          -7.4487  -15.4156   23.9620 C.ar    1  UNL1        0.1539
     27 N          -6.2272  -14.8094   24.5869 N.ar    1  UNL1       -0.1577
     28 N          -6.3824  -14.8856   26.0769 N.ar    1  UNL1       -0.2786
     29 H          -5.7335  -14.5634   26.7436 H       1  UNL1        0.1886
@<TRIPOS>BOND
     1    23    24    1
     2    24    25   ar
     3    25    26   ar
     4    26    21    1
     5    21     1    1
     6     1     2   ar
     7     2     3   ar
     8     3    11    1
     9    11    12    1
    10    11    14    1
    11    14    15   ar
    12    15    16   ar
    13    16    17   ar
    14    17    18    1
    15    17    19   ar
    16    19    20   ar
    17     3     4   ar
    18     4     5   ar
    19     5     6   ar
    20     6     7   ar
    21     7     8   ar
    22     8     9   ar
    23     9    10   ar
    24    26    27   ar
    25    27    28   ar
    26    28    24   ar
    27    10     1   ar
    28    20    14   ar
    29    10     5   ar
    30    21    22    1
    31    12    13    1
    32    28    29    1
@<TRIPOS>MOLECULE
*****
 29 32 0 0 0
SMALL
GASTEIGER

@<TRIPOS>ATOM
      1 C          -5.9470  -17.6048   22.3764 C.ar    1  UNL1        0.1361
      2 N          -7.3289  -17.8959   21.8709 N.ar    1  UNL1       -0.2131
      3 C          -7.5511  -19.0151   20.8973 C.ar    1  UNL1        0.1714
      4 N          -6.3914  -19.8432   20.4291 N.ar    1  UNL1       -0.2279
      5 C          -5.0094  -19.5522   20.9346 C.ar    1  UNL1        0.0854
      6 C          -3.8496  -20.3803   20.4664 C.ar    1  UNL1        0.0192
      7 C          -2.4677  -20.0892   20.9718 C.ar    1  UNL1        0.0015
      8 C          -2.2455  -18.9700   21.9455 C.ar    1  UNL1        0.0002
      9 C          -3.4053  -18.1419   22.4137 C.ar    1  UNL1        0.0043
     10 C          -4.7872  -18.4330   21.9082 C.ar    1  UNL1        0.0494
     11 C          -8.9331  -19.3062   20.3918 C.3     1  UNL1        0.1912
     12 O          -9.1191  -20.0213   19.0865 O.3     1  UNL1       -0.3730
     13 H          -8.2517  -20.2223   18.7014 H       1  UNL1        0.2113
     14 C         -10.1290  -18.8822   21.1917 C.ar    1  UNL1        0.0117
     15 C         -10.3109  -19.3855   22.5930 C.ar    1  UNL1        0.0008
     16 C         -11.5068  -18.9614   23.3929 C.ar    1  UNL1        0.0294
     17 C         -12.5210  -18.0340   22.7915 C.ar    1  UNL1        0.1401
     18 F         -13.7169  -17.6100   23.5914 F       1  UNL1       -0.2042
     19 C         -12.3391  -17.5307   21.3902 C.ar    1  UNL1        0.0294
     20 C         -11.1430  -17.9548   20.5903 C.ar    1  UNL1        0.0008
     21 N          -5.7248  -16.4856   23.3501 N.pl3   1  UNL1       -0.2819
     22 H          -4.8426  -16.0526   23.4093 H       1  UNL1        0.1551
     23 C          -8.5149  -15.1011   27.6137 C.3     1  UNL1        0.0515
     24 C          -8.1291  -15.3898   26.1932 C.ar    1  UNL1        0.0548
     25 C          -6.7878  -15.8704   25.7241 C.ar    1  UNL1        0.0502
     26 C          -6.8466  -16.0262   24.2334 C.ar    1  UNL1        0.1539
     27 N          -8.2242  -15.6419   23.7812 N.ar    1  UNL1       -0.1577
     28 N          -9.0169  -15.2486   24.9923 N.ar    1  UNL1       -0.2786
     29 H          -9.9551  -14.9502   24.9981 H       1  UNL1        0.1886
@<TRIPOS>BOND
     1    23    24    1
     2    24    25   ar
     3    25    26   ar
     4    26    21    1
     5    21     1    1
     6     1     2   ar
     7     2     3   ar
     8     3    11    1
     9    11    12    1
    10    11    14    1
    11    14    15   ar
    12    15    16   ar
    13    16    17   ar
    14    17    18    1
    15    17    19   ar
    16    19    20   ar
    17     3     4   ar
    18     4     5   ar
    19     5     6   ar
    20     6     7   ar
    21     7     8   ar
    22     8     9   ar
    23     9    10   ar
    24    26    27   ar
    25    27    28   ar
    26    28    24   ar
    27    10     1   ar
    28    20    14   ar
    29    10     5   ar
    30    21    22    1
    31    12    13    1
    32    28    29    1
@<TRIPOS>MOLECULE
*****
 29 32 0 0 0
SMALL
GASTEIGER

@<TRIPOS>ATOM
      1 C          -7.2939  -18.9102   21.9391 C.ar    1  UNL1        0.1361
      2 N          -7.1810  -17.6457   22.7380 N.ar    1  UNL1       -0.2131
      3 C          -5.8413  -17.0008   22.9363 C.ar    1  UNL1        0.1714
      4 N          -4.6145  -17.6204   22.3356 N.ar    1  UNL1       -0.2279
      5 C          -4.7272  -18.8849   21.5366 C.ar    1  UNL1        0.0854
      6 C          -3.5004  -19.5045   20.9359 C.ar    1  UNL1        0.0192
      7 C          -3.6132  -20.7689   20.1369 C.ar    1  UNL1        0.0015
      8 C          -4.9529  -21.4138   19.9387 C.ar    1  UNL1        0.0002
      9 C          -6.1798  -20.7943   20.5394 C.ar    1  UNL1        0.0043
     10 C          -6.0669  -19.5298   21.3383 C.ar    1  UNL1        0.0494
     11 C          -5.7286  -15.7363   23.7353 C.3     1  UNL1        0.1912
     12 O          -4.7538  -14.6732   23.3233 O.3     1  UNL1       -0.3730
     13 H          -4.2800  -14.9601   22.5269 H       1  UNL1        0.2113
     14 C          -6.5905  -15.5349   24.9463 C.ar    1  UNL1        0.0117
     15 C          -8.0732  -15.3679   24.7922 C.ar    1  UNL1        0.0008
     16 C          -8.9351  -15.1665   26.0032 C.ar    1  UNL1        0.0294
     17 C          -8.3143  -15.1321   27.3683 C.ar    1  UNL1        0.1401
     18 F          -9.1762  -14.9308   28.5793 F       1  UNL1       -0.2042
     19 C          -6.8316  -15.2992   27.5224 C.ar    1  UNL1        0.0294
     20 C          -5.9697  -15.5006   26.3113 C.ar    1  UNL1        0.0008
     21 N          -8.6336  -19.5551   21.7408 N.pl3   1  UNL1       -0.2819
     22 H          -8.7830  -20.1536   20.9735 H       1  UNL1        0.1551
     23 C         -13.2405  -17.9921   23.7935 C.3     1  UNL1        0.0515
     24 C         -11.8631  -18.5696   23.6550 C.ar    1  UNL1        0.0548
     25 C         -11.0567  -18.6335   22.3918 C.ar    1  UNL1        0.0502
     26 C          -9.7455  -19.2881   22.7115 C.ar    1  UNL1        0.1539
     27 N          -9.7414  -19.6288   24.1723 N.ar    1  UNL1       -0.1577
     28 N         -11.0502  -19.1847   24.7555 N.ar    1  UNL1       -0.2786
     29 H         -11.3270  -19.2803   25.6954 H       1  UNL1        0.1886
@<TRIPOS>BOND
     1    23    24    1
     2    24    25   ar
     3    25    26   ar
     4    26    21    1
     5    21     1    1
     6     1     2   ar
     7     2     3   ar
     8     3    11    1
     9    11    12    1
    10    11    14    1
    11    14    15   ar
    12    15    16   ar
    13    16    17   ar
    14    17    18    1
    15    17    19   ar
    16    19    20   ar
    17     3     4   ar
    18     4     5   ar
    19     5     6   ar
    20     6     7   ar
    21     7     8   ar
    22     8     9   ar
    23     9    10   ar
    24    26    27   ar
    25    27    28   ar
    26    28    24   ar
    27    10     1   ar
    28    20    14   ar
    29    10     5   ar
    30    21    22    1
    31    12    13    1
    32    28    29    1
@<TRIPOS>MOLECULE
*****
 29 32 0 0 0
SMALL
GASTEIGER

@<TRIPOS>ATOM
      1 C          -6.1504  -19.4162   21.3147 C.ar    1  UNL1        0.1361
      2 N          -6.5787  -18.1563   22.0069 N.ar    1  UNL1       -0.2131
      3 C          -7.8929  -17.5206   21.6620 C.ar    1  UNL1        0.1714
      4 N          -8.7787  -18.1448   20.6249 N.ar    1  UNL1       -0.2279
      5 C          -8.3504  -19.4047   19.9326 C.ar    1  UNL1        0.0854
      6 C          -9.2362  -20.0289   18.8955 C.ar    1  UNL1        0.0192
      7 C          -8.8079  -21.2888   18.2033 C.ar    1  UNL1        0.0015
      8 C          -7.4938  -21.9245   18.5482 C.ar    1  UNL1        0.0002
      9 C          -6.6080  -21.3003   19.5853 C.ar    1  UNL1        0.0043
     10 C          -7.0363  -20.0404   20.2775 C.ar    1  UNL1        0.0494
     11 C          -8.3211  -16.2606   22.3543 C.3     1  UNL1        0.1912
     12 O          -9.2001  -15.2754   21.6424 O.3     1  UNL1       -0.3730
     13 H          -9.3974  -15.6032   20.7511 H       1  UNL1        0.2113
     14 C          -7.8705  -15.9860   23.7584 C.ar    1  UNL1        0.0117
     15 C          -6.4934  -15.4485   24.0125 C.ar    1  UNL1        0.0008
     16 C          -6.0427  -15.1739   25.4165 C.ar    1  UNL1        0.0294
     17 C          -6.9692  -15.4367   26.5666 C.ar    1  UNL1        0.1401
     18 F          -6.5186  -15.1621   27.9707 F       1  UNL1       -0.2042
     19 C          -8.3464  -15.9742   26.3125 C.ar    1  UNL1        0.0294
     20 C          -8.7970  -16.2489   24.9083 C.ar    1  UNL1        0.0008
     21 N          -4.8363  -20.0519   21.6596 N.pl3   1  UNL1       -0.2819
     22 H          -4.8052  -20.9927   21.9479 H       1  UNL1        0.1551
     23 C          -0.3511  -17.9478   19.8332 C.3     1  UNL1        0.0515
     24 C          -1.5079  -18.2870   20.7257 C.ar    1  UNL1        0.0548
     25 C          -2.6433  -19.2067   20.3864 C.ar    1  UNL1        0.0502
     26 C          -3.5696  -19.2542   21.5653 C.ar    1  UNL1        0.1539
     27 N          -3.0066  -18.3639   22.6332 N.ar    1  UNL1       -0.1577
     28 N          -1.7325  -17.7661   22.1144 N.ar    1  UNL1       -0.2786
     29 H          -1.1465  -17.1416   22.6000 H       1  UNL1        0.1886
@<TRIPOS>BOND
     1    23    24    1
     2    24    25   ar
     3    25    26   ar
     4    26    21    1
     5    21     1    1
     6     1     2   ar
     7     2     3   ar
     8     3    11    1
     9    11    12    1
    10    11    14    1
    11    14    15   ar
    12    15    16   ar
    13    16    17   ar
    14    17    18    1
    15    17    19   ar
    16    19    20   ar
    17     3     4   ar
    18     4     5   ar
    19     5     6   ar
    20     6     7   ar
    21     7     8   ar
    22     8     9   ar
    23     9    10   ar
    24    26    27   ar
    25    27    28   ar
    26    28    24   ar
    27    10     1   ar
    28    20    14   ar
    29    10     5   ar
    30    21    22    1
    31    12    13    1
    32    28    29    1
@<TRIPOS>MOLECULE
*****
 29 32 0 0 0
SMALL
GASTEIGER

@<TRIPOS>ATOM
      1 C          -5.2445  -18.0095   22.7257 C.ar    1  UNL1        0.1361
      2 N          -6.3251  -17.1116   23.2510 N.ar    1  UNL1       -0.2131
      3 C          -7.7296  -17.2522   22.7436 C.ar    1  UNL1        0.1714
      4 N          -8.0536  -18.2906   21.7108 N.ar    1  UNL1       -0.2279
      5 C          -6.9729  -19.1886   21.1855 C.ar    1  UNL1        0.0854
      6 C          -7.2969  -20.2271   20.1527 C.ar    1  UNL1        0.0192
      7 C          -6.2163  -21.1250   19.6275 C.ar    1  UNL1        0.0015
      8 C          -4.8117  -20.9845   20.1349 C.ar    1  UNL1        0.0002
      9 C          -4.4878  -19.9460   21.1676 C.ar    1  UNL1        0.0043
     10 C          -5.5684  -19.0481   21.6929 C.ar    1  UNL1        0.0494
     11 C          -8.8103  -16.3542   23.2689 C.3     1  UNL1        0.1912
     12 O          -8.4807  -14.9544   23.6956 O.3     1  UNL1       -0.3730
     13 H          -7.5329  -14.7921   23.5679 H       1  UNL1        0.2113
     14 C         -10.2204  -16.8559   23.3676 C.ar    1  UNL1        0.0117
     15 C         -10.5383  -18.0325   24.2420 C.ar    1  UNL1        0.0008
     16 C         -11.9484  -18.5343   24.3407 C.ar    1  UNL1        0.0294
     17 C         -13.0406  -17.8595   23.5649 C.ar    1  UNL1        0.1401
     18 F         -14.4507  -18.3613   23.6636 F       1  UNL1       -0.2042
     19 C         -12.7227  -16.6830   22.6905 C.ar    1  UNL1        0.0294
     20 C         -11.3125  -16.1812   22.5918 C.ar    1  UNL1        0.0008
     21 N          -3.8399  -17.8690   23.2331 N.pl3   1  UNL1       -0.2819
     22 H          -3.6282  -18.1005   24.1663 H       1  UNL1        0.1551
     23 C           0.2427  -17.7564   19.8865 C.3     1  UNL1        0.0515
     24 C          -0.8814  -17.3238   20.7805 C.ar    1  UNL1        0.0548
     25 C          -1.7796  -18.2303   21.5690 C.ar    1  UNL1        0.0502
     26 C          -2.7580  -17.3756   22.3188 C.ar    1  UNL1        0.1539
     27 N          -2.4645  -15.9409   21.9938 N.ar    1  UNL1       -0.1577
     28 N          -1.3047  -15.9089   21.0431 N.ar    1  UNL1       -0.2786
     29 H          -0.8935  -15.1011   20.6589 H       1  UNL1        0.1886
@<TRIPOS>BOND
     1    23    24    1
     2    24    25   ar
     3    25    26   ar
     4    26    21    1
     5    21     1    1
     6     1     2   ar
     7     2     3   ar
     8     3    11    1
     9    11    12    1
    10    11    14    1
    11    14    15   ar
    12    15    16   ar
    13    16    17   ar
    14    17    18    1
    15    17    19   ar
    16    19    20   ar
    17     3     4   ar
    18     4     5   ar
    19     5     6   ar
    20     6     7   ar
    21     7     8   ar
    22     8     9   ar
    23     9    10   ar
    24    26    27   ar
    25    27    28   ar
    26    28    24   ar
    27    10     1   ar
    28    20    14   ar
    29    10     5   ar
    30    21    22    1
    31    12    13    1
    32    28    29    1
@<TRIPOS>MOLECULE
*****
 29 32 0 0 0
SMALL
GASTEIGER

@<TRIPOS>ATOM
      1 C          -5.8528  -19.0054   21.7623 C.ar    1  UNL1        0.1361
      2 N          -7.2139  -19.4058   21.2756 N.ar    1  UNL1       -0.2131
      3 C          -8.4259  -18.6481   21.7306 C.ar    1  UNL1        0.1714
      4 N          -8.2768  -17.4902   22.6723 N.ar    1  UNL1       -0.2279
      5 C          -6.9156  -17.0898   23.1590 C.ar    1  UNL1        0.0854
      6 C          -6.7664  -15.9318   24.1006 C.ar    1  UNL1        0.0192
      7 C          -5.4052  -15.5314   24.5873 C.ar    1  UNL1        0.0015
      8 C          -4.1932  -16.2891   24.1323 C.ar    1  UNL1        0.0002
      9 C          -4.3424  -17.4471   23.1907 C.ar    1  UNL1        0.0043
     10 C          -5.7035  -17.8474   22.7040 C.ar    1  UNL1        0.0494
     11 C          -9.7872  -19.0485   21.2439 C.3     1  UNL1        0.1912
     12 O          -9.9341  -19.7699   19.9369 O.3     1  UNL1       -0.3730
     13 H          -9.0593  -19.8974   19.5378 H       1  UNL1        0.2113
     14 C         -11.0013  -18.7276   22.0641 C.ar    1  UNL1        0.0117
     15 C         -12.1649  -18.0192   21.4361 C.ar    1  UNL1        0.0008
     16 C         -13.3790  -17.6983   22.2563 C.ar    1  UNL1        0.0294
     17 C         -13.4297  -18.0858   23.7046 C.ar    1  UNL1        0.1401
     18 F         -14.6438  -17.7648   24.5248 F       1  UNL1       -0.2042
     19 C         -12.2662  -18.7942   24.3325 C.ar    1  UNL1        0.0294
     20 C         -11.0520  -19.1151   23.5122 C.ar    1  UNL1        0.0008
     21 N          -4.6408  -19.7631   21.3073 N.pl3   1  UNL1       -0.2819
     22 H          -4.5566  -20.7233   21.5075 H       1  UNL1        0.1551
     23 C           0.0980  -17.9793   19.8098 C.3     1  UNL1        0.0515
     24 C          -1.3788  -18.2378   19.8589 C.ar    1  UNL1        0.0548
     25 C          -2.0942  -19.0728   20.8792 C.ar    1  UNL1        0.0502
     26 C          -3.5569  -19.0577   20.5472 C.ar    1  UNL1        0.1539
     27 N          -3.7455  -18.2134   19.3218 N.ar    1  UNL1       -0.1577
     28 N          -2.3993  -17.7067   18.8964 N.ar    1  UNL1       -0.2786
     29 H          -2.2175  -17.1273   18.1215 H       1  UNL1        0.1886
@<TRIPOS>BOND
     1    23    24    1
     2    24    25   ar
     3    25    26   ar
     4    26    21    1
     5    21     1    1
     6     1     2   ar
     7     2     3   ar
     8     3    11    1
     9    11    12    1
    10    11    14    1
    11    14    15   ar
    12    15    16   ar
    13    16    17   ar
    14    17    18    1
    15    17    19   ar
    16    19    20   ar
    17     3     4   ar
    18     4     5   ar
    19     5     6   ar
    20     6     7   ar
    21     7     8   ar
    22     8     9   ar
    23     9    10   ar
    24    26    27   ar
    25    27    28   ar
    26    28    24   ar
    27    10     1   ar
    28    20    14   ar
    29    10     5   ar
    30    21    22    1
    31    12    13    1
    32    28    29    1
@<TRIPOS>MOLECULE
*****
 29 32 0 0 0
SMALL
GASTEIGER

@<TRIPOS>ATOM
      1 C          -4.0099  -17.4023   22.3476 C.ar    1  UNL1        0.1361
      2 N          -5.1771  -18.3342   22.2101 N.ar    1  UNL1       -0.2131
      3 C          -5.2172  -19.3250   21.0847 C.ar    1  UNL1        0.1714
      4 N          -4.0901  -19.3839   20.0967 N.ar    1  UNL1       -0.2279
      5 C          -2.9228  -18.4519   20.2342 C.ar    1  UNL1        0.0854
      6 C          -1.7956  -18.5108   19.2463 C.ar    1  UNL1        0.0192
      7 C          -0.6284  -17.5788   19.3838 C.ar    1  UNL1        0.0015
      8 C          -0.5883  -16.5880   20.5092 C.ar    1  UNL1        0.0002
      9 C          -1.7154  -16.5291   21.4972 C.ar    1  UNL1        0.0043
     10 C          -2.8827  -17.4611   21.3597 C.ar    1  UNL1        0.0494
     11 C          -6.3845  -20.2570   20.9472 C.3     1  UNL1        0.1912
     12 O          -6.1647  -21.6750   20.5100 O.3     1  UNL1       -0.3730
     13 H          -5.2182  -21.8236   20.3587 H       1  UNL1        0.2113
     14 C          -7.7716  -19.7711   21.2468 C.ar    1  UNL1        0.0117
     15 C          -8.6642  -19.3156   20.1306 C.ar    1  UNL1        0.0008
     16 C         -10.0513  -18.8296   20.4303 C.ar    1  UNL1        0.0294
     17 C         -10.5458  -18.7991   21.8462 C.ar    1  UNL1        0.1401
     18 F         -11.9329  -18.3131   22.1458 F       1  UNL1       -0.2042
     19 C          -9.6532  -19.2546   22.9623 C.ar    1  UNL1        0.0294
     20 C          -8.2661  -19.7406   22.6626 C.ar    1  UNL1        0.0008
     21 N          -3.9698  -16.4115   23.4731 N.pl3   1  UNL1       -0.2819
     22 H          -3.1044  -16.1108   23.8336 H       1  UNL1        0.1551
     23 C          -7.8588  -15.2609   26.8542 C.3     1  UNL1        0.0515
     24 C          -7.0357  -15.3498   25.6034 C.ar    1  UNL1        0.0548
     25 C          -5.7089  -16.0363   25.4680 C.ar    1  UNL1        0.0502
     26 C          -5.2481  -15.8787   24.0492 C.ar    1  UNL1        0.1539
     27 N          -6.2901  -15.0947   23.3078 N.ar    1  UNL1       -0.1577
     28 N          -7.3949  -14.7679   24.2683 N.ar    1  UNL1       -0.2786
     29 H          -8.2123  -14.2605   24.0592 H       1  UNL1        0.1886
@<TRIPOS>BOND
     1    23    24    1
     2    24    25   ar
     3    25    26   ar
     4    26    21    1
     5    21     1    1
     6     1     2   ar
     7     2     3   ar
     8     3    11    1
     9    11    12    1
    10    11    14    1
    11    14    15   ar
    12    15    16   ar
    13    16    17   ar
    14    17    18    1
    15    17    19   ar
    16    19    20   ar
    17     3     4   ar
    18     4     5   ar
    19     5     6   ar
    20     6     7   ar
    21     7     8   ar
    22     8     9   ar
    23     9    10   ar
    24    26    27   ar
    25    27    28   ar
    26    28    24   ar
    27    10     1   ar
    28    20    14   ar
    29    10     5   ar
    30    21    22    1
    31    12    13    1
    32    28    29    1
@<TRIPOS>MOLECULE
*****
 29 32 0 0 0
SMALL
GASTEIGER

@<TRIPOS>ATOM
      1 C          -5.4461  -16.3629   23.6492 C.ar    1  UNL1        0.1361
      2 N          -6.1828  -17.0183   22.5189 N.ar    1  UNL1       -0.2131
      3 C          -7.6573  -17.2701   22.6306 C.ar    1  UNL1        0.1714
      4 N          -8.3951  -16.8665   23.8727 N.ar    1  UNL1       -0.2279
      5 C          -7.6583  -16.2110   25.0031 C.ar    1  UNL1        0.0854
      6 C          -8.3960  -15.8074   26.2452 C.ar    1  UNL1        0.0192
      7 C          -7.6593  -15.1520   27.3755 C.ar    1  UNL1        0.0015
      8 C          -6.1848  -14.9002   27.2637 C.ar    1  UNL1        0.0002
      9 C          -5.4471  -15.3039   26.0216 C.ar    1  UNL1        0.0043
     10 C          -6.1838  -15.9593   24.8913 C.ar    1  UNL1        0.0494
     11 C          -8.3941  -17.9255   21.5003 C.3     1  UNL1        0.1912
     12 O          -7.6312  -18.5452   20.3671 O.3     1  UNL1       -0.3730
     13 H          -6.6796  -18.4355   20.5198 H       1  UNL1        0.2113
     14 C          -9.8936  -17.9612   21.5031 C.ar    1  UNL1        0.0117
     15 C         -10.6726  -16.7978   20.9648 C.ar    1  UNL1        0.0008
     16 C         -12.1721  -16.8335   20.9675 C.ar    1  UNL1        0.0294
     17 C         -12.8928  -18.0326   21.5087 C.ar    1  UNL1        0.1401
     18 F         -14.3923  -18.0683   21.5115 F       1  UNL1       -0.2042
     19 C         -12.1139  -19.1960   22.0470 C.ar    1  UNL1        0.0294
     20 C         -10.6142  -19.1603   22.0442 C.ar    1  UNL1        0.0008
     21 N          -3.9716  -16.1112   23.5374 N.pl3   1  UNL1       -0.2819
     22 H          -3.5605  -15.3660   24.0324 H       1  UNL1        0.1551
     23 C          -0.4908  -17.7509   19.9213 C.3     1  UNL1        0.0515
     24 C          -1.5235  -17.7484   21.0093 C.ar    1  UNL1        0.0548
     25 C          -2.1481  -16.5336   21.6293 C.ar    1  UNL1        0.0502
     26 C          -3.1234  -16.9947   22.6714 C.ar    1  UNL1        0.1539
     27 N          -3.1016  -18.4943   22.6955 N.ar    1  UNL1       -0.1577
     28 N          -2.1128  -18.9602   21.6683 N.ar    1  UNL1       -0.2786
     29 H          -1.8898  -19.8968   21.4627 H       1  UNL1        0.1886
@<TRIPOS>BOND
     1    23    24    1
     2    24    25   ar
     3    25    26   ar
     4    26    21    1
     5    21     1    1
     6     1     2   ar
     7     2     3   ar
     8     3    11    1
     9    11    12    1
    10    11    14    1
    11    14    15   ar
    12    15    16   ar
    13    16    17   ar
    14    17    18    1
    15    17    19   ar
    16    19    20   ar
    17     3     4   ar
    18     4     5   ar
    19     5     6   ar
    20     6     7   ar
    21     7     8   ar
    22     8     9   ar
    23     9    10   ar
    24    26    27   ar
    25    27    28   ar
    26    28    24   ar
    27    10     1   ar
    28    20    14   ar
    29    10     5   ar
    30    21    22    1
    31    12    13    1
    32    28    29    1
@<TRIPOS>MOLECULE
*****
 29 32 0 0 0
SMALL
GASTEIGER

@<TRIPOS>ATOM
      1 C          -6.5405  -19.4902   21.3976 C.ar    1  UNL1        0.1361
      2 N          -7.3087  -18.4349   22.1365 N.ar    1  UNL1       -0.2131
      3 C          -8.6974  -18.0737   21.6993 C.ar    1  UNL1        0.1714
      4 N          -9.3178  -18.7678   20.5232 N.ar    1  UNL1       -0.2279
      5 C          -8.5496  -19.8232   19.7842 C.ar    1  UNL1        0.0854
      6 C          -9.1700  -20.5173   18.6082 C.ar    1  UNL1        0.0192
      7 C          -8.4018  -21.5727   17.8693 C.ar    1  UNL1        0.0015
      8 C          -7.0131  -21.9339   18.3064 C.ar    1  UNL1        0.0002
      9 C          -6.3927  -21.2397   19.4825 C.ar    1  UNL1        0.0043
     10 C          -7.1609  -20.1844   20.2214 C.ar    1  UNL1        0.0494
     11 C          -9.4657  -17.0183   22.4383 C.3     1  UNL1        0.1912
     12 O          -8.8723  -15.6539   22.6289 O.3     1  UNL1       -0.3730
     13 H          -7.9947  -15.6225   22.2168 H       1  UNL1        0.2113
     14 C         -10.8272  -17.3273   22.9866 C.ar    1  UNL1        0.0117
     15 C         -12.0295  -16.5989   22.4635 C.ar    1  UNL1        0.0008
     16 C         -13.3910  -16.9079   23.0118 C.ar    1  UNL1        0.0294
     17 C         -13.5502  -17.9455   24.0834 C.ar    1  UNL1        0.1401
     18 F         -14.9118  -18.2545   24.6317 F       1  UNL1       -0.2042
     19 C         -12.3479  -18.6739   24.6066 C.ar    1  UNL1        0.0294
     20 C         -10.9863  -18.3648   24.0582 C.ar    1  UNL1        0.0008
     21 N          -5.1518  -19.8514   21.8348 N.pl3   1  UNL1       -0.2819
     22 H          -4.9948  -20.6830   22.3378 H       1  UNL1        0.1551
     23 C          -0.7016  -17.9503   19.7224 C.3     1  UNL1        0.0515
     24 C          -1.9569  -18.0718   20.5346 C.ar    1  UNL1        0.0548
     25 C          -2.8790  -19.2546   20.5608 C.ar    1  UNL1        0.0502
     26 C          -4.0024  -18.9457   21.5055 C.ar    1  UNL1        0.1539
     27 N          -3.7746  -17.5719   22.0631 N.ar    1  UNL1       -0.1577
     28 N          -2.5104  -17.0318   21.4631 N.ar    1  UNL1       -0.2786
     29 H          -2.1137  -16.1497   21.6464 H       1  UNL1        0.1886
@<TRIPOS>BOND
     1    23    24    1
     2    24    25   ar
     3    25    26   ar
     4    26    21    1
     5    21     1    1
     6     1     2   ar
     7     2     3   ar
     8     3    11    1
     9    11    12    1
    10    11    14    1
    11    14    15   ar
    12    15    16   ar
    13    16    17   ar
    14    17    18    1
    15    17    19   ar
    16    19    20   ar
    17     3     4   ar
    18     4     5   ar
    19     5     6   ar
    20     6     7   ar
    21     7     8   ar
    22     8     9   ar
    23     9    10   ar
    24    26    27   ar
    25    27    28   ar
    26    28    24   ar
    27    10     1   ar
    28    20    14   ar
    29    10     5   ar
    30    21    22    1
    31    12    13    1
    32    28    29    1
