@<TRIPOS>MOLECULE
*****
 41 44 0 0 0
SMALL
GASTEIGER

@<TRIPOS>ATOM
      1 C          -2.2864  -17.1526   22.0593 C.3     1  UNL1        0.0759
      2 C          -1.8643  -18.1173   23.1277 C.3     1  UNL1        0.0214
      3 N          -5.7216  -15.4174   23.0277 N.am    1  UNL1       -0.2683
      4 C          -4.7064  -16.4784   22.7217 C.2     1  UNL1        0.3044
      5 O          -5.0960  -17.9261   22.7720 O.2     1  UNL1       -0.2525
      6 N          -3.3016  -16.0917   22.3653 N.am    1  UNL1       -0.2902
      7 H          -5.4660  -14.4672   22.9947 H       1  UNL1        0.1564
      8 H          -3.0459  -15.1415   22.3323 H       1  UNL1        0.1509
      9 C          -8.8651  -16.5911   25.1470 C.ar    1  UNL1       -0.0209
     10 C          -7.4603  -16.2044   24.7906 C.ar    1  UNL1        0.0104
     11 C          -7.1265  -15.8041   23.3840 C.ar    1  UNL1        0.0514
     12 C          -8.1974  -15.7906   22.3339 C.ar    1  UNL1        0.0178
     13 C          -9.6022  -16.1774   22.6903 C.ar    1  UNL1        0.0383
     14 C          -9.9360  -16.5776   24.0968 C.ar    1  UNL1       -0.0011
     15 C         -10.6732  -16.1639   21.6401 C.ar    1  UNL1        0.1839
     16 N         -10.5032  -15.7344   20.2129 N.ar    1  UNL1       -0.1081
     17 N         -11.8271  -15.8825   19.5235 N.ar    1  UNL1       -0.0227
     18 N         -12.8153  -16.4036   20.5246 N.ar    1  UNL1       -0.0429
     19 N         -12.1021  -16.5774   21.8327 N.ar    1  UNL1       -0.2113
     20 C         -12.7110  -17.0771   23.1092 C.3     1  UNL1        0.1573
     21 C          -8.4363  -16.4010   27.7023 C.3     1  UNL1        0.0050
     22 C          -9.1989  -16.9914   26.5535 C.3     1  UNL1        0.0264
     23 C          -1.6932  -17.2489   20.6850 C.3     1  UNL1        0.0524
     24 C          -2.5106  -17.7945   19.5518 C.3     1  UNL1        0.1202
     25 N          -3.5702  -18.8222   19.8182 N.3     1  UNL1       -0.2612
     26 C          -3.1822  -20.2039   20.2544 C.3     1  UNL1        0.0732
     27 C          -4.2419  -21.2316   20.5208 C.3     1  UNL1        0.0174
     28 C          -5.6895  -20.8776   20.3509 C.3     1  UNL1        0.0031
     29 C          -6.0776  -19.4959   19.9146 C.3     1  UNL1        0.0204
     30 C          -5.0180  -18.4682   19.6483 C.3     1  UNL1        0.0735
     31 C          -7.5252  -19.1420   19.7447 C.3     1  UNL1        0.0277
     32 C          -8.5033  -19.4363   20.8434 C.ar    1  UNL1       -0.0220
     33 C          -9.9610  -19.5949   20.5272 C.ar    1  UNL1       -0.0020
     34 C         -10.9390  -19.8892   21.6257 C.ar    1  UNL1        0.0293
     35 C         -10.4593  -20.0250   23.0404 C.ar    1  UNL1        0.1401
     36 F         -11.4374  -20.3193   24.1390 F       1  UNL1       -0.2042
     37 C          -9.0016  -19.8664   23.3566 C.ar    1  UNL1        0.0293
     38 C          -8.0236  -19.5721   22.2581 C.ar    1  UNL1       -0.0020
     39 N          -2.2684  -17.3123   18.1522 N.3     1  UNL1       -0.2585
     40 C          -1.0977  -17.8323   17.3718 C.3     1  UNL1        0.0907
     41 C          -3.1969  -16.3101   17.5330 C.3     1  UNL1        0.0907
@<TRIPOS>BOND
     1    21    22    1
     2    22     9    1
     3     9    10   ar
     4    10    11   ar
     5    11     3    1
     6     3     4   am
     7     4     5    2
     8     4     6   am
     9     6     1    1
    10     1     2    1
    11     1    23    1
    12    24    23    1
    13    24    39    1
    14    39    40    1
    15    39    41    1
    16    24    25    1
    17    25    26    1
    18    26    27    1
    19    27    28    1
    20    28    29    1
    21    29    31    1
    22    31    32    1
    23    32    33   ar
    24    33    34   ar
    25    34    35   ar
    26    35    36    1
    27    35    37   ar
    28    37    38   ar
    29    29    30    1
    30    11    12   ar
    31    12    13   ar
    32    13    15    1
    33    15    16   ar
    34    16    17   ar
    35    17    18   ar
    36    18    19   ar
    37    19    20    1
    38    13    14   ar
    39    14     9   ar
    40    30    25    1
    41    19    15   ar
    42    38    32   ar
    43     3     7    1
    44     6     8    1
@<TRIPOS>MOLECULE
*****
 41 44 0 0 0
SMALL
GASTEIGER

@<TRIPOS>ATOM
      1 C           4.5071   -3.8556   19.4654 C.3     1  UNL1        0.0759
      2 C           4.4763   -5.1360   18.6844 C.3     1  UNL1        0.0214
      3 N           6.8577   -3.4396   22.6357 N.am    1  UNL1       -0.2683
      4 C           5.6650   -3.7735   21.7897 C.2     1  UNL1        0.3044
      5 O           4.4372   -4.3591   22.4220 O.2     1  UNL1       -0.2525
      6 N           5.6999   -3.5218   20.3114 N.am    1  UNL1       -0.2902
      7 H           7.6635   -3.0552   22.2208 H       1  UNL1        0.1564
      8 H           6.5057   -3.1374   19.8964 H       1  UNL1        0.1509
      9 C           6.3650   -2.8506   26.5294 C.ar    1  UNL1       -0.0209
     10 C           6.3999   -2.5989   25.0511 C.ar    1  UNL1        0.0104
     11 C           6.8228   -3.6913   24.1141 C.ar    1  UNL1        0.0514
     12 C           7.2106   -5.0354   24.6554 C.ar    1  UNL1        0.0178
     13 C           7.1756   -5.2871   26.1337 C.ar    1  UNL1        0.0383
     14 C           6.7528   -4.1947   27.0707 C.ar    1  UNL1       -0.0011
     15 C           7.5635   -6.6312   26.6751 C.ar    1  UNL1        0.1839
     16 N           7.0158   -7.9537   26.2268 N.ar    1  UNL1       -0.1081
     17 N           7.6809   -9.0286   27.0344 N.ar    1  UNL1       -0.0227
     18 N           8.6396   -8.3704   27.9818 N.ar    1  UNL1       -0.0429
     19 N           8.5670   -6.8887   27.7597 N.ar    1  UNL1       -0.2113
     20 C           9.3590   -5.8474   28.4935 C.3     1  UNL1        0.1573
     21 C           4.5062   -1.6426   27.8842 C.3     1  UNL1        0.0050
     22 C           5.9421   -1.7583   27.4664 C.3     1  UNL1        0.0264
     23 C           3.3452   -2.9093   19.4003 C.3     1  UNL1        0.0524
     24 C           3.5785   -1.4292   19.4701 C.3     1  UNL1        0.1202
     25 N           4.1200   -0.8137   20.7263 N.3     1  UNL1       -0.2612
     26 C           5.3943   -0.0234   20.6853 C.3     1  UNL1        0.0732
     27 C           5.9357    0.5921   21.9416 C.3     1  UNL1        0.0174
     28 C           5.2030    0.4172   23.2387 C.3     1  UNL1        0.0031
     29 C           3.9287   -0.3731   23.2796 C.3     1  UNL1        0.0204
     30 C           3.3872   -0.9886   22.0234 C.3     1  UNL1        0.0735
     31 C           3.1960   -0.5480   24.5766 C.3     1  UNL1        0.0277
     32 C           2.3541    0.5688   25.1190 C.ar    1  UNL1       -0.0220
     33 C           2.8331    1.3656   26.2961 C.ar    1  UNL1       -0.0020
     34 C           1.9913    2.4824   26.8384 C.ar    1  UNL1        0.0293
     35 C           0.6705    2.8023   26.2036 C.ar    1  UNL1        0.1401
     36 F          -0.1714    3.9191   26.7460 F       1  UNL1       -0.2042
     37 C           0.1914    2.0055   25.0265 C.ar    1  UNL1        0.0293
     38 C           1.0332    0.8887   24.4842 C.ar    1  UNL1       -0.0020
     39 N           3.2704   -0.5645   18.2837 N.3     1  UNL1       -0.2585
     40 C           2.3512    0.6116   18.4314 C.3     1  UNL1        0.0907
     41 C           3.8814   -0.8761   16.9497 C.3     1  UNL1        0.0907
@<TRIPOS>BOND
     1    21    22    1
     2    22     9    1
     3     9    10   ar
     4    10    11   ar
     5    11     3    1
     6     3     4   am
     7     4     5    2
     8     4     6   am
     9     6     1    1
    10     1     2    1
    11     1    23    1
    12    24    23    1
    13    24    39    1
    14    39    40    1
    15    39    41    1
    16    24    25    1
    17    25    26    1
    18    26    27    1
    19    27    28    1
    20    28    29    1
    21    29    31    1
    22    31    32    1
    23    32    33   ar
    24    33    34   ar
    25    34    35   ar
    26    35    36    1
    27    35    37   ar
    28    37    38   ar
    29    29    30    1
    30    11    12   ar
    31    12    13   ar
    32    13    15    1
    33    15    16   ar
    34    16    17   ar
    35    17    18   ar
    36    18    19   ar
    37    19    20    1
    38    13    14   ar
    39    14     9   ar
    40    30    25    1
    41    19    15   ar
    42    38    32   ar
    43     3     7    1
    44     6     8    1
@<TRIPOS>MOLECULE
*****
 41 44 0 0 0
SMALL
GASTEIGER

@<TRIPOS>ATOM
      1 C           5.9901   -0.1357   27.2763 C.3     1  UNL1        0.0759
      2 C           5.5955    1.2623   27.6506 C.3     1  UNL1        0.0214
      3 N           3.9660   -1.9992   24.4161 N.am    1  UNL1       -0.2683
      4 C           4.9531   -1.0982   25.0973 C.2     1  UNL1        0.3044
      5 O           5.8903   -0.2588   24.2804 O.2     1  UNL1       -0.2525
      6 N           5.0030   -1.0366   26.5951 N.am    1  UNL1       -0.2902
      7 H           3.3509   -2.5501   24.9522 H       1  UNL1        0.1564
      8 H           4.3879   -1.5876   27.1312 H       1  UNL1        0.1509
      9 C           4.5931   -3.2123   20.6898 C.ar    1  UNL1       -0.0209
     10 C           4.6429   -3.1507   22.1877 C.ar    1  UNL1        0.0104
     11 C           3.9161   -2.0607   22.9182 C.ar    1  UNL1        0.0514
     12 C           3.1395   -1.0322   22.1507 C.ar    1  UNL1        0.0178
     13 C           3.0897   -1.0937   20.6528 C.ar    1  UNL1        0.0383
     14 C           3.8164   -2.1838   19.9224 C.ar    1  UNL1       -0.0011
     15 C           2.3130   -0.0652   19.8853 C.ar    1  UNL1        0.1839
     16 N           0.8307   -0.0699   19.6558 N.ar    1  UNL1       -0.1081
     17 N           0.4838    1.1409   18.8413 N.ar    1  UNL1       -0.0227
     18 N           1.7519    1.8940   18.5674 N.ar    1  UNL1       -0.0429
     19 N           2.8823    1.1486   19.2126 N.ar    1  UNL1       -0.2113
     20 C           4.3282    1.5470   19.1893 C.3     1  UNL1        0.1573
     21 C           4.6842   -4.9624   18.7718 C.3     1  UNL1        0.0050
     22 C           5.3198   -4.3024   19.9594 C.3     1  UNL1        0.0264
     23 C           7.3717   -0.6327   27.5831 C.3     1  UNL1        0.0524
     24 C           7.6518   -2.1061   27.6016 C.3     1  UNL1        0.1202
     25 N           7.6579   -2.8845   26.3194 N.3     1  UNL1       -0.2612
     26 C           6.8312   -4.1298   26.1941 C.3     1  UNL1        0.0732
     27 C           6.8373   -4.9082   24.9118 C.3     1  UNL1        0.0174
     28 C           7.6701   -4.4413   23.7549 C.3     1  UNL1        0.0031
     29 C           8.4968   -3.1960   23.8803 C.3     1  UNL1        0.0204
     30 C           8.4907   -2.4176   25.1624 C.3     1  UNL1        0.0735
     31 C           9.3296   -2.7290   22.7234 C.3     1  UNL1        0.0277
     32 C           8.6655   -2.2314   21.4738 C.ar    1  UNL1       -0.0220
     33 C           7.7629   -1.0347   21.5297 C.ar    1  UNL1       -0.0020
     34 C           7.0989   -0.5370   20.2802 C.ar    1  UNL1        0.0293
     35 C           7.3375   -1.2361   18.9747 C.ar    1  UNL1        0.1401
     36 F           6.6735   -0.7384   17.7251 F       1  UNL1       -0.2042
     37 C           8.2402   -2.4328   18.9187 C.ar    1  UNL1        0.0293
     38 C           8.9042   -2.9304   20.1683 C.ar    1  UNL1       -0.0020
     39 N           7.9259   -2.8012   28.9023 N.3     1  UNL1       -0.2585
     40 C           9.2782   -3.3949   29.1650 C.3     1  UNL1        0.0907
     41 C           6.8478   -2.9026   29.9402 C.3     1  UNL1        0.0907
@<TRIPOS>BOND
     1    21    22    1
     2    22     9    1
     3     9    10   ar
     4    10    11   ar
     5    11     3    1
     6     3     4   am
     7     4     5    2
     8     4     6   am
     9     6     1    1
    10     1     2    1
    11     1    23    1
    12    24    23    1
    13    24    39    1
    14    39    40    1
    15    39    41    1
    16    24    25    1
    17    25    26    1
    18    26    27    1
    19    27    28    1
    20    28    29    1
    21    29    31    1
    22    31    32    1
    23    32    33   ar
    24    33    34   ar
    25    34    35   ar
    26    35    36    1
    27    35    37   ar
    28    37    38   ar
    29    29    30    1
    30    11    12   ar
    31    12    13   ar
    32    13    15    1
    33    15    16   ar
    34    16    17   ar
    35    17    18   ar
    36    18    19   ar
    37    19    20    1
    38    13    14   ar
    39    14     9   ar
    40    30    25    1
    41    19    15   ar
    42    38    32   ar
    43     3     7    1
    44     6     8    1
@<TRIPOS>MOLECULE
*****
 41 44 0 0 0
SMALL
GASTEIGER

@<TRIPOS>ATOM
      1 C          -1.5898    4.8302   20.0780 C.3     1  UNL1        0.0759
      2 C          -1.1478    5.6227   18.8835 C.3     1  UNL1        0.0214
      3 N          -0.3043    1.1007   20.5123 N.am    1  UNL1       -0.2683
      4 C          -0.3441    2.5997   20.5503 C.2     1  UNL1        0.3044
      5 O           0.8223    3.3673   21.0987 O.2     1  UNL1       -0.2525
      6 N          -1.5500    3.3312   20.0400 N.am    1  UNL1       -0.2902
      7 H          -1.0697    0.5970   20.1523 H       1  UNL1        0.1564
      8 H          -2.3155    2.8274   19.6800 H       1  UNL1        0.1509
      9 C           2.5016   -0.2442   22.9756 C.ar    1  UNL1       -0.0209
     10 C           1.2956    0.4872   22.4652 C.ar    1  UNL1        0.0104
     11 C           0.9018    0.3693   21.0226 C.ar    1  UNL1        0.0514
     12 C           1.7140   -0.4800   20.0905 C.ar    1  UNL1        0.0178
     13 C           2.9200   -1.2114   20.6009 C.ar    1  UNL1        0.0383
     14 C           3.3138   -1.0935   22.0434 C.ar    1  UNL1       -0.0011
     15 C           3.7323   -2.0608   19.6687 C.ar    1  UNL1        0.1839
     16 N           3.7798   -3.5600   19.6573 N.ar    1  UNL1       -0.1081
     17 N           4.7165   -3.9858   18.5659 N.ar    1  UNL1       -0.0227
     18 N           5.2478   -2.7497   17.9026 N.ar    1  UNL1       -0.0429
     19 N           4.6396   -1.5600   18.5842 N.ar    1  UNL1       -0.2113
     20 C           4.8940   -0.1220   18.2415 C.3     1  UNL1        0.1573
     21 C           3.8198   -1.1378   25.0284 C.3     1  UNL1        0.0050
     22 C           2.8954   -0.1263   24.4182 C.3     1  UNL1        0.0264
     23 C          -2.0715    5.5367   21.3104 C.3     1  UNL1        0.0524
     24 C          -3.0113    4.8446   22.2526 C.3     1  UNL1        0.1202
     25 N          -2.5593    4.4930   23.6391 N.3     1  UNL1       -0.2612
     26 C          -2.9676    5.3497   24.8008 C.3     1  UNL1        0.0732
     27 C          -2.5156    4.9981   26.1872 C.3     1  UNL1        0.0174
     28 C          -1.6555    3.7899   26.4119 C.3     1  UNL1        0.0031
     29 C          -1.2473    2.9333   25.2502 C.3     1  UNL1        0.0204
     30 C          -1.6992    3.2848   23.8638 C.3     1  UNL1        0.0735
     31 C          -0.3872    1.7252   25.4749 C.3     1  UNL1        0.0277
     32 C           0.1767    1.4488   26.8372 C.ar    1  UNL1       -0.0220
     33 C          -0.6203    0.6592   27.8328 C.ar    1  UNL1       -0.0020
     34 C          -0.0565    0.3828   29.1950 C.ar    1  UNL1        0.0293
     35 C           1.3044    0.8960   29.5616 C.ar    1  UNL1        0.1401
     36 F           1.8684    0.6197   30.9239 F       1  UNL1       -0.2042
     37 C           2.1015    1.6856   28.5660 C.ar    1  UNL1        0.0293
     38 C           1.5377    1.9620   27.2038 C.ar    1  UNL1       -0.0020
     39 N          -4.4030    4.5040   21.8085 N.3     1  UNL1       -0.2585
     40 C          -5.0378    3.2187   22.2502 C.3     1  UNL1        0.0907
     41 C          -5.1598    5.4486   20.9226 C.3     1  UNL1        0.0907
@<TRIPOS>BOND
     1    21    22    1
     2    22     9    1
     3     9    10   ar
     4    10    11   ar
     5    11     3    1
     6     3     4   am
     7     4     5    2
     8     4     6   am
     9     6     1    1
    10     1     2    1
    11     1    23    1
    12    24    23    1
    13    24    39    1
    14    39    40    1
    15    39    41    1
    16    24    25    1
    17    25    26    1
    18    26    27    1
    19    27    28    1
    20    28    29    1
    21    29    31    1
    22    31    32    1
    23    32    33   ar
    24    33    34   ar
    25    34    35   ar
    26    35    36    1
    27    35    37   ar
    28    37    38   ar
    29    29    30    1
    30    11    12   ar
    31    12    13   ar
    32    13    15    1
    33    15    16   ar
    34    16    17   ar
    35    17    18   ar
    36    18    19   ar
    37    19    20    1
    38    13    14   ar
    39    14     9   ar
    40    30    25    1
    41    19    15   ar
    42    38    32   ar
    43     3     7    1
    44     6     8    1
@<TRIPOS>MOLECULE
*****
 41 44 0 0 0
SMALL
GASTEIGER

@<TRIPOS>ATOM
      1 C          -2.8814    4.2885   17.9609 C.3     1  UNL1        0.0759
      2 C          -3.8071    5.0423   17.0525 C.3     1  UNL1        0.0214
      3 N          -4.4427    2.8998   21.3349 N.am    1  UNL1       -0.2683
      4 C          -3.8852    3.8498   20.3167 C.2     1  UNL1        0.3044
      5 O          -3.7743    5.3113   20.6362 O.2     1  UNL1       -0.2525
      6 N          -3.4388    3.3385   18.9791 N.am    1  UNL1       -0.2902
      7 H          -4.5155    1.9406   21.1253 H       1  UNL1        0.1564
      8 H          -3.5116    2.3793   18.7695 H       1  UNL1        0.1509
      9 C          -4.4167    3.8323   25.1923 C.ar    1  UNL1       -0.0209
     10 C          -3.9703    3.3210   23.8547 C.ar    1  UNL1        0.0104
     11 C          -4.8891    3.4112   22.6725 C.ar    1  UNL1        0.0514
     12 C          -6.2544    4.0128   22.8279 C.ar    1  UNL1        0.0178
     13 C          -6.7007    4.5241   24.1655 C.ar    1  UNL1        0.0383
     14 C          -5.7819    4.4339   25.3477 C.ar    1  UNL1       -0.0011
     15 C          -8.0660    5.1258   24.3210 C.ar    1  UNL1        0.1839
     16 N          -9.3711    4.4167   24.1111 N.ar    1  UNL1       -0.1081
     17 N         -10.4776    5.3947   24.3740 N.ar    1  UNL1       -0.0227
     18 N          -9.8564    6.7083   24.7463 N.ar    1  UNL1       -0.0429
     19 N          -8.3660    6.5420   24.7136 N.ar    1  UNL1       -0.2113
     20 C          -7.3533    7.6054   25.0197 C.3     1  UNL1        0.1573
     21 C          -2.1011    3.2237   26.2010 C.3     1  UNL1        0.0050
     22 C          -3.4978    3.7421   26.3745 C.3     1  UNL1        0.0264
     23 C          -1.3984    4.4849   17.8511 C.3     1  UNL1        0.0524
     24 C          -0.5952    4.8301   19.0700 C.3     1  UNL1        0.1202
     25 N          -0.3352    3.7879   20.1169 N.3     1  UNL1       -0.2612
     26 C          -0.3825    4.1564   21.5701 C.3     1  UNL1        0.0732
     27 C          -0.1224    3.1140   22.6170 C.3     1  UNL1        0.0174
     28 C           0.1848    1.7032   22.2107 C.3     1  UNL1        0.0031
     29 C           0.2320    1.3347   20.7574 C.3     1  UNL1        0.0204
     30 C          -0.0280    2.3770   19.7105 C.3     1  UNL1        0.0735
     31 C           0.5393   -0.0761   20.3511 C.3     1  UNL1        0.0277
     32 C           1.8490   -0.3994   19.6952 C.ar    1  UNL1       -0.0220
     33 C           2.1970    0.2150   18.3719 C.ar    1  UNL1       -0.0020
     34 C           3.5067   -0.1082   17.7160 C.ar    1  UNL1        0.0293
     35 C           4.4684   -1.0459   18.3836 C.ar    1  UNL1        0.1401
     36 F           5.7782   -1.3692   17.7278 F       1  UNL1       -0.2042
     37 C           4.1205   -1.6604   19.7070 C.ar    1  UNL1        0.0293
     38 C           2.8108   -1.3371   20.3628 C.ar    1  UNL1       -0.0020
     39 N          -0.0520    6.2178   19.2420 N.3     1  UNL1       -0.2585
     40 C           1.4282    6.4554   19.1913 C.3     1  UNL1        0.0907
     41 C          -0.9890    7.3677   19.4645 C.3     1  UNL1        0.0907
@<TRIPOS>BOND
     1    21    22    1
     2    22     9    1
     3     9    10   ar
     4    10    11   ar
     5    11     3    1
     6     3     4   am
     7     4     5    2
     8     4     6   am
     9     6     1    1
    10     1     2    1
    11     1    23    1
    12    24    23    1
    13    24    39    1
    14    39    40    1
    15    39    41    1
    16    24    25    1
    17    25    26    1
    18    26    27    1
    19    27    28    1
    20    28    29    1
    21    29    31    1
    22    31    32    1
    23    32    33   ar
    24    33    34   ar
    25    34    35   ar
    26    35    36    1
    27    35    37   ar
    28    37    38   ar
    29    29    30    1
    30    11    12   ar
    31    12    13   ar
    32    13    15    1
    33    15    16   ar
    34    16    17   ar
    35    17    18   ar
    36    18    19   ar
    37    19    20    1
    38    13    14   ar
    39    14     9   ar
    40    30    25    1
    41    19    15   ar
    42    38    32   ar
    43     3     7    1
    44     6     8    1
@<TRIPOS>MOLECULE
*****
 41 44 0 0 0
SMALL
GASTEIGER

@<TRIPOS>ATOM
      1 C           4.5337   -3.7453   19.4821 C.3     1  UNL1        0.0759
      2 C           4.5898   -5.0128   18.6818 C.3     1  UNL1        0.0214
      3 N           6.7502   -3.2889   22.7422 N.am    1  UNL1       -0.2683
      4 C           5.6058   -3.6619   21.8472 C.2     1  UNL1        0.3044
      5 O           4.3892   -4.3247   22.4221 O.2     1  UNL1       -0.2525
      6 N           5.6781   -3.3723   20.3772 N.am    1  UNL1       -0.2902
      7 H           7.5488   -2.8539   22.3649 H       1  UNL1        0.1564
      8 H           6.4766   -2.9373   19.9999 H       1  UNL1        0.1509
      9 C           7.0725   -5.1927   26.2095 C.ar    1  UNL1       -0.0209
     10 C           7.1448   -4.9030   24.7395 C.ar    1  UNL1        0.0104
     11 C           6.6780   -3.5786   24.2123 C.ar    1  UNL1        0.0514
     12 C           6.1389   -2.5439   25.1550 C.ar    1  UNL1        0.0178
     13 C           6.0666   -2.8336   26.6249 C.ar    1  UNL1        0.0383
     14 C           6.5335   -4.1580   27.1522 C.ar    1  UNL1       -0.0011
     15 C           5.5275   -1.7989   27.5677 C.ar    1  UNL1        0.1839
     16 N           4.1037   -1.6784   28.0241 N.ar    1  UNL1       -0.1081
     17 N           4.0138   -0.5081   28.9581 N.ar    1  UNL1       -0.0227
     18 N           5.3821    0.0947   29.0789 N.ar    1  UNL1       -0.0429
     19 N           6.3176   -0.7031   28.2197 N.ar    1  UNL1       -0.2113
     20 C           7.7854   -0.4495   28.0433 C.3     1  UNL1        0.1573
     21 C           7.6407   -7.6972   25.8163 C.3     1  UNL1        0.0050
     22 C           7.5394   -6.5171   26.7367 C.3     1  UNL1        0.0264
     23 C           3.3332   -2.8510   19.3873 C.3     1  UNL1        0.0524
     24 C           3.5024   -1.3613   19.4314 C.3     1  UNL1        0.1202
     25 N           3.9921   -0.6988   20.6849 N.3     1  UNL1       -0.2612
     26 C           5.2121    0.1730   20.6450 C.3     1  UNL1        0.0732
     27 C           5.7017    0.8355   21.8986 C.3     1  UNL1        0.0174
     28 C           4.9714    0.6262   23.1920 C.3     1  UNL1        0.0031
     29 C           3.7515   -0.2457   23.2318 C.3     1  UNL1        0.0204
     30 C           3.2618   -0.9081   21.9783 C.3     1  UNL1        0.0735
     31 C           3.0212   -0.4550   24.5252 C.3     1  UNL1        0.0277
     32 C           2.0231    0.5611   24.9959 C.ar    1  UNL1       -0.0220
     33 C           2.0456    1.0303   26.4205 C.ar    1  UNL1       -0.0020
     34 C           1.0476    2.0463   26.8913 C.ar    1  UNL1        0.0293
     35 C           0.0272    2.5931   25.9375 C.ar    1  UNL1        0.1401
     36 F          -0.9709    3.6092   26.4083 F       1  UNL1       -0.2042
     37 C           0.0047    2.1239   24.5130 C.ar    1  UNL1        0.0293
     38 C           1.0027    1.1079   24.0422 C.ar    1  UNL1       -0.0020
     39 N           3.1820   -0.5340   18.2218 N.3     1  UNL1       -0.2585
     40 C           2.2191    0.6111   18.3300 C.3     1  UNL1        0.0907
     41 C           3.8243   -0.8517   16.9042 C.3     1  UNL1        0.0907
@<TRIPOS>BOND
     1    21    22    1
     2    22     9    1
     3     9    10   ar
     4    10    11   ar
     5    11     3    1
     6     3     4   am
     7     4     5    2
     8     4     6   am
     9     6     1    1
    10     1     2    1
    11     1    23    1
    12    24    23    1
    13    24    39    1
    14    39    40    1
    15    39    41    1
    16    24    25    1
    17    25    26    1
    18    26    27    1
    19    27    28    1
    20    28    29    1
    21    29    31    1
    22    31    32    1
    23    32    33   ar
    24    33    34   ar
    25    34    35   ar
    26    35    36    1
    27    35    37   ar
    28    37    38   ar
    29    29    30    1
    30    11    12   ar
    31    12    13   ar
    32    13    15    1
    33    15    16   ar
    34    16    17   ar
    35    17    18   ar
    36    18    19   ar
    37    19    20    1
    38    13    14   ar
    39    14     9   ar
    40    30    25    1
    41    19    15   ar
    42    38    32   ar
    43     3     7    1
    44     6     8    1
@<TRIPOS>MOLECULE
*****
 41 44 0 0 0
SMALL
GASTEIGER

@<TRIPOS>ATOM
      1 C           3.7939   -3.1942   19.7010 C.3     1  UNL1        0.0759
      2 C           3.3503   -4.4568   19.0234 C.3     1  UNL1        0.0214
      3 N           6.8807   -3.5391   22.1713 N.am    1  UNL1       -0.2683
      4 C           5.4913   -3.6439   21.6158 C.2     1  UNL1        0.3044
      5 O           4.4099   -4.3030   22.4197 O.2     1  UNL1       -0.2525
      6 N           5.1833   -3.0895   20.2565 N.am    1  UNL1       -0.2902
      7 H           7.5905   -3.1065   21.6437 H       1  UNL1        0.1564
      8 H           5.8930   -2.6569   19.7289 H       1  UNL1        0.1509
      9 C           8.0112   -6.0502   25.0291 C.ar    1  UNL1       -0.0209
     10 C           7.7032   -5.4957   23.6698 C.ar    1  UNL1        0.0104
     11 C           7.1887   -4.0936   23.5307 C.ar    1  UNL1        0.0514
     12 C           6.9823   -3.2459   24.7508 C.ar    1  UNL1        0.0178
     13 C           7.2903   -3.8003   26.1101 C.ar    1  UNL1        0.0383
     14 C           7.8047   -5.2025   26.2492 C.ar    1  UNL1       -0.0011
     15 C           7.0838   -2.9526   27.3303 C.ar    1  UNL1        0.1839
     16 N           5.9641   -3.0885   28.3191 N.ar    1  UNL1       -0.1081
     17 N           6.1491   -2.0402   29.3759 N.ar    1  UNL1       -0.0227
     18 N           7.3832   -1.2563   29.0401 N.ar    1  UNL1       -0.0429
     19 N           7.9608   -1.8202   27.7759 N.ar    1  UNL1       -0.2113
     20 C           9.1983   -1.3367   27.0795 C.3     1  UNL1        0.1573
     21 C           8.1771   -8.2621   26.3818 C.3     1  UNL1        0.0050
     22 C           8.5256   -7.4523   25.1682 C.3     1  UNL1        0.0264
     23 C           2.8481   -2.0364   19.8232 C.3     1  UNL1        0.0524
     24 C           3.3236   -0.7374   20.4032 C.3     1  UNL1        0.1202
     25 N           2.9196   -0.3442   21.7932 N.3     1  UNL1       -0.2612
     26 C           1.8520    0.6890   22.0000 C.3     1  UNL1        0.0732
     27 C           1.4480    1.0822   23.3900 C.3     1  UNL1        0.0174
     28 C           2.1116    0.4423   24.5733 C.3     1  UNL1        0.0031
     29 C           3.1792   -0.5909   24.3665 C.3     1  UNL1        0.0204
     30 C           3.5832   -0.9841   22.9765 C.3     1  UNL1        0.0735
     31 C           3.8428   -1.2308   25.5498 C.3     1  UNL1        0.0277
     32 C           3.8960   -0.5067   26.8624 C.ar    1  UNL1       -0.0220
     33 C           2.9561   -0.8874   27.9676 C.ar    1  UNL1       -0.0020
     34 C           3.0093   -0.1633   29.2802 C.ar    1  UNL1        0.0293
     35 C           4.0024    0.9415   29.4874 C.ar    1  UNL1        0.1401
     36 F           4.0557    1.6656   30.8001 F       1  UNL1       -0.2042
     37 C           4.9423    1.3223   28.3822 C.ar    1  UNL1        0.0293
     38 C           4.8891    0.5982   27.0696 C.ar    1  UNL1       -0.0020
     39 N           4.2032    0.1683   19.5933 N.3     1  UNL1       -0.2585
     40 C           5.4263    0.7767   20.2129 C.3     1  UNL1        0.0907
     41 C           3.8598    0.4656   18.1637 C.3     1  UNL1        0.0907
@<TRIPOS>BOND
     1    21    22    1
     2    22     9    1
     3     9    10   ar
     4    10    11   ar
     5    11     3    1
     6     3     4   am
     7     4     5    2
     8     4     6   am
     9     6     1    1
    10     1     2    1
    11     1    23    1
    12    24    23    1
    13    24    39    1
    14    39    40    1
    15    39    41    1
    16    24    25    1
    17    25    26    1
    18    26    27    1
    19    27    28    1
    20    28    29    1
    21    29    31    1
    22    31    32    1
    23    32    33   ar
    24    33    34   ar
    25    34    35   ar
    26    35    36    1
    27    35    37   ar
    28    37    38   ar
    29    29    30    1
    30    11    12   ar
    31    12    13   ar
    32    13    15    1
    33    15    16   ar
    34    16    17   ar
    35    17    18   ar
    36    18    19   ar
    37    19    20    1
    38    13    14   ar
    39    14     9   ar
    40    30    25    1
    41    19    15   ar
    42    38    32   ar
    43     3     7    1
    44     6     8    1
@<TRIPOS>MOLECULE
*****
 41 44 0 0 0
SMALL
GASTEIGER

@<TRIPOS>ATOM
      1 C           4.3766   -3.3299   19.1356 C.3     1  UNL1        0.0759
      2 C           3.5413   -4.5751   19.0900 C.3     1  UNL1        0.0214
      3 N           7.4611   -3.9560   21.5530 N.am    1  UNL1       -0.2683
      4 C           6.0538   -3.8967   21.0371 C.2     1  UNL1        0.3044
      5 O           4.9167   -4.3448   21.9066 O.2     1  UNL1       -0.2525
      6 N           5.7838   -3.3892   19.6516 N.am    1  UNL1       -0.2902
      7 H           8.2074   -3.6619   20.9824 H       1  UNL1        0.1564
      8 H           6.5301   -3.0951   19.0809 H       1  UNL1        0.1509
      9 C           8.6436   -6.3122   24.5195 C.ar    1  UNL1       -0.0209
     10 C           8.3736   -5.8047   23.1340 C.ar    1  UNL1        0.0104
     11 C           7.7311   -4.4635   22.9386 C.ar    1  UNL1        0.0514
     12 C           7.3586   -3.6297   24.1285 C.ar    1  UNL1        0.0178
     13 C           7.6287   -4.1372   25.5140 C.ar    1  UNL1        0.0383
     14 C           8.2711   -5.4785   25.7094 C.ar    1  UNL1       -0.0011
     15 C           7.2562   -3.3034   26.7040 C.ar    1  UNL1        0.1839
     16 N           7.4905   -1.8296   26.8561 N.ar    1  UNL1       -0.1081
     17 N           6.9632   -1.4123   28.1969 N.ar    1  UNL1       -0.0227
     18 N           6.4030   -2.6283   28.8735 N.ar    1  UNL1       -0.0429
     19 N           6.5841   -3.7970   27.9509 N.ar    1  UNL1       -0.2113
     20 C           6.1664   -5.2110   28.2267 C.3     1  UNL1        0.1573
     21 C           9.2848   -8.2953   26.0707 C.3     1  UNL1        0.0050
     22 C           9.2861   -7.6535   24.7150 C.3     1  UNL1        0.0264
     23 C           3.8046   -2.0255   18.6652 C.3     1  UNL1        0.0524
     24 C           3.3901   -0.9850   19.6630 C.3     1  UNL1        0.1202
     25 N           4.2286   -0.7387   20.8821 N.3     1  UNL1       -0.2612
     26 C           5.4550    0.1199   20.7879 C.3     1  UNL1        0.0732
     27 C           6.2935    0.3662   22.0070 C.3     1  UNL1        0.0174
     28 C           5.9057   -0.2461   23.3202 C.3     1  UNL1        0.0031
     29 C           4.6794   -1.1047   23.4144 C.3     1  UNL1        0.0204
     30 C           3.8409   -1.3510   22.1954 C.3     1  UNL1        0.0735
     31 C           4.2916   -1.7171   24.7277 C.3     1  UNL1        0.0277
     32 C           3.5509   -0.9017   25.7458 C.ar    1  UNL1       -0.0220
     33 C           3.5152   -1.3437   27.1788 C.ar    1  UNL1       -0.0020
     34 C           2.7744   -0.5284   28.1969 C.ar    1  UNL1        0.0293
     35 C           2.0694    0.7288   27.7820 C.ar    1  UNL1        0.1401
     36 F           1.3287    1.5442   28.8002 F       1  UNL1       -0.2042
     37 C           2.1051    1.1709   26.3491 C.ar    1  UNL1        0.0293
     38 C           2.8458    0.3556   25.3310 C.ar    1  UNL1       -0.0020
     39 N           2.1369   -0.1907   19.4417 N.3     1  UNL1       -0.2585
     40 C           2.0848    0.8402   18.3534 C.3     1  UNL1        0.0907
     41 C           0.9360   -0.4275   20.3086 C.3     1  UNL1        0.0907
@<TRIPOS>BOND
     1    21    22    1
     2    22     9    1
     3     9    10   ar
     4    10    11   ar
     5    11     3    1
     6     3     4   am
     7     4     5    2
     8     4     6   am
     9     6     1    1
    10     1     2    1
    11     1    23    1
    12    24    23    1
    13    24    39    1
    14    39    40    1
    15    39    41    1
    16    24    25    1
    17    25    26    1
    18    26    27    1
    19    27    28    1
    20    28    29    1
    21    29    31    1
    22    31    32    1
    23    32    33   ar
    24    33    34   ar
    25    34    35   ar
    26    35    36    1
    27    35    37   ar
    28    37    38   ar
    29    29    30    1
    30    11    12   ar
    31    12    13   ar
    32    13    15    1
    33    15    16   ar
    34    16    17   ar
    35    17    18   ar
    36    18    19   ar
    37    19    20    1
    38    13    14   ar
    39    14     9   ar
    40    30    25    1
    41    19    15   ar
    42    38    32   ar
    43     3     7    1
    44     6     8    1
@<TRIPOS>MOLECULE
*****
 41 44 0 0 0
SMALL
GASTEIGER

@<TRIPOS>ATOM
      1 C           6.1271   -0.1110   27.5691 C.3     1  UNL1        0.0759
      2 C           7.6263   -0.0833   27.6122 C.3     1  UNL1        0.0214
      3 N           4.2732   -2.0714   24.6588 N.am    1  UNL1       -0.2683
      4 C           4.9820   -0.9802   25.4051 C.2     1  UNL1        0.3044
      5 O           5.2545    0.3332   24.7334 O.2     1  UNL1       -0.2525
      6 N           5.4183   -1.2022   26.8229 N.am    1  UNL1       -0.2902
      7 H           4.0944   -2.9333   25.0996 H       1  UNL1        0.1564
      8 H           5.2395   -2.0642   27.2637 H       1  UNL1        0.1509
      9 C           3.9357   -2.5016   20.7280 C.ar    1  UNL1       -0.0209
     10 C           4.3720   -2.7236   22.1458 C.ar    1  UNL1        0.0104
     11 C           3.8369   -1.8492   23.2409 C.ar    1  UNL1        0.0514
     12 C           2.8656   -0.7528   22.9181 C.ar    1  UNL1        0.0178
     13 C           2.4293   -0.5307   21.5003 C.ar    1  UNL1        0.0383
     14 C           2.9644   -1.4051   20.4052 C.ar    1  UNL1       -0.0011
     15 C           1.4580    0.5658   21.1774 C.ar    1  UNL1        0.1839
     16 N          -0.0057    0.3932   20.8984 N.ar    1  UNL1       -0.1081
     17 N          -0.5886    1.7481   20.6254 N.ar    1  UNL1       -0.0227
     18 N           0.5150    2.7581   20.7357 N.ar    1  UNL1       -0.0429
     19 N           1.7798    2.0274   21.0769 N.ar    1  UNL1       -0.2113
     20 C           3.1294    2.6492   21.2815 C.3     1  UNL1        0.1573
     21 C           3.6788   -4.5606   19.1645 C.3     1  UNL1        0.0050
     22 C           4.4708   -3.3760   19.6330 C.3     1  UNL1        0.0264
     23 C           5.3368    0.9524   28.2723 C.3     1  UNL1        0.0524
     24 C           4.6895    0.6563   29.5926 C.3     1  UNL1        0.1202
     25 N           3.2507    1.0142   29.8196 N.3     1  UNL1       -0.2612
     26 C           2.8491    1.7571   31.0593 C.3     1  UNL1        0.0732
     27 C           1.4102    2.1150   31.2862 C.3     1  UNL1        0.0174
     28 C           0.3729    1.7300   30.2735 C.3     1  UNL1        0.0031
     29 C           0.7744    0.9871   29.0337 C.3     1  UNL1        0.0204
     30 C           2.2133    0.6292   28.8068 C.3     1  UNL1        0.0735
     31 C          -0.2629    0.6022   28.0210 C.3     1  UNL1        0.0277
     32 C          -0.4851    1.4609   26.8113 C.ar    1  UNL1       -0.0220
     33 C           0.2838    1.1947   25.5511 C.ar    1  UNL1       -0.0020
     34 C           0.0617    2.0533   24.3415 C.ar    1  UNL1        0.0293
     35 C          -0.9293    3.1782   24.3919 C.ar    1  UNL1        0.1401
     36 F          -1.1515    4.0369   23.1822 F       1  UNL1       -0.2042
     37 C          -1.6982    3.4444   25.6521 C.ar    1  UNL1        0.0293
     38 C          -1.4761    2.5857   26.8617 C.ar    1  UNL1       -0.0020
     39 N           5.4812    0.0022   30.6861 N.3     1  UNL1       -0.2585
     40 C           5.1594   -1.4006   31.1088 C.3     1  UNL1        0.0907
     41 C           6.5946    0.7508   31.3567 C.3     1  UNL1        0.0907
@<TRIPOS>BOND
     1    21    22    1
     2    22     9    1
     3     9    10   ar
     4    10    11   ar
     5    11     3    1
     6     3     4   am
     7     4     5    2
     8     4     6   am
     9     6     1    1
    10     1     2    1
    11     1    23    1
    12    24    23    1
    13    24    39    1
    14    39    40    1
    15    39    41    1
    16    24    25    1
    17    25    26    1
    18    26    27    1
    19    27    28    1
    20    28    29    1
    21    29    31    1
    22    31    32    1
    23    32    33   ar
    24    33    34   ar
    25    34    35   ar
    26    35    36    1
    27    35    37   ar
    28    37    38   ar
    29    29    30    1
    30    11    12   ar
    31    12    13   ar
    32    13    15    1
    33    15    16   ar
    34    16    17   ar
    35    17    18   ar
    36    18    19   ar
    37    19    20    1
    38    13    14   ar
    39    14     9   ar
    40    30    25    1
    41    19    15   ar
    42    38    32   ar
    43     3     7    1
    44     6     8    1
