@<TRIPOS>MOLECULE
*****
 31 33 0 0 0
SMALL
GASTEIGER

@<TRIPOS>ATOM
      1 N          -6.5964  -14.7577   25.0545 N.3     1  UNL1       -0.2972
      2 H          -6.4983  -14.3557   25.9868 H       1  UNL1        0.1233
      3 C          -8.0935  -15.3430   26.4387 C.3     1  UNL1        0.0161
      4 C          -8.0071  -15.2552   24.9438 C.3     1  UNL1        0.0462
      5 C          -7.9209  -15.1674   23.4488 C.3     1  UNL1        0.0161
      6 C          -9.4180  -15.7528   24.8331 C.3     1  UNL1        0.0424
      7 C          -9.6828  -17.2096   24.5932 C.2     1  UNL1       -0.0005
      8 C          -9.4203  -18.3246   25.5616 C.2     1  UNL1        0.0942
      9 N          -9.8319  -19.6113   24.9096 N.2     1  UNL1       -0.2482
     10 C         -10.3487  -19.2915   23.5382 C.2     1  UNL1        0.0633
     11 C         -10.8913  -20.1601   22.4423 C.3     1  UNL1        0.0749
     12 C         -11.3417  -19.5443   21.1508 C.2     1  UNL1        0.0168
     13 C         -11.2495  -18.0600   20.9553 C.2     1  UNL1        0.1298
     14 O         -11.7000  -17.4443   19.6637 O.2     1  UNL1       -0.5058
     15 C         -10.7069  -17.1914   22.0512 C.2     1  UNL1        0.0372
     16 C         -10.2565  -17.8071   23.3426 C.2     1  UNL1        0.0144
     17 H         -12.0389  -17.9869   18.9791 H       1  UNL1        0.2922
     18 C          -5.4497  -15.7066   24.8692 C.3     1  UNL1        0.1020
     19 C          -4.6398  -15.6671   23.6072 C.3     1  UNL1        0.1697
     20 O          -4.6235  -14.4258   22.7652 O.3     1  UNL1       -0.3793
     21 H          -5.1843  -13.7492   23.1757 H       1  UNL1        0.2106
     22 C          -3.8464  -16.8688   23.1873 C.3     1  UNL1        0.2358
     23 O          -4.4330  -18.2419   23.3292 O.3     1  UNL1       -0.4721
     24 C          -5.2971  -18.8047   22.2398 C.ar    1  UNL1        0.1482
     25 C          -6.7677  -18.5100   22.2214 C.ar    1  UNL1        0.0376
     26 C          -7.6318  -19.0727   21.1320 C.ar    1  UNL1        0.0032
     27 C          -7.0252  -19.9301   20.0611 C.ar    1  UNL1        0.0009
     28 C          -5.5546  -20.2248   20.0795 C.ar    1  UNL1        0.0133
     29 C          -4.6905  -19.6621   21.1689 C.ar    1  UNL1        0.1023
     30 C          -3.2199  -19.9567   21.1874 C.1     1  UNL1        0.1035
     31 N          -1.7493  -20.2515   21.2058 N.1     1  UNL1       -0.1907
@<TRIPOS>BOND
     1     3     4    1
     2     4     5    1
     3     4     6    1
     4     6     7    1
     5     7     8    2
     6     8     9    1
     7     9    10    2
     8    10    11    1
     9    11    12    1
    10    12    13    2
    11    13    14    1
    12    13    15    1
    13    15    16    2
    14     4     1    1
    15     1    18    1
    16    18    19    1
    17    19    20    1
    18    19    22    1
    19    22    23    1
    20    23    24    1
    21    24    25   ar
    22    25    26   ar
    23    26    27   ar
    24    27    28   ar
    25    28    29   ar
    26    29    30    1
    27    30    31    3
    28    16     7    1
    29    29    24   ar
    30    16    10    1
    31    14    17    1
    32     1     2    1
    33    20    21    1
@<TRIPOS>MOLECULE
*****
 31 33 0 0 0
SMALL
GASTEIGER

@<TRIPOS>ATOM
      1 N          -6.7322  -14.7804   24.9140 N.3     1  UNL1       -0.2972
      2 H          -6.8119  -14.2203   25.7627 H       1  UNL1        0.1233
      3 C          -8.3347  -15.5347   26.0814 C.3     1  UNL1        0.0161
      4 C          -8.1026  -15.3126   24.6162 C.3     1  UNL1        0.0462
      5 C          -7.8705  -15.0906   23.1510 C.3     1  UNL1        0.0161
      6 C          -9.4731  -15.8449   24.3185 C.3     1  UNL1        0.0424
      7 C          -9.6322  -17.0869   23.4926 C.2     1  UNL1       -0.0005
      8 C          -9.1572  -18.4602   23.8649 C.2     1  UNL1        0.0942
      9 N          -9.5257  -19.3956   22.7517 N.2     1  UNL1       -0.2482
     10 C         -10.2283  -18.6006   21.6914 C.2     1  UNL1        0.0633
     11 C         -10.8167  -18.9915   20.3682 C.3     1  UNL1        0.0749
     12 C         -11.4709  -17.9556   19.5029 C.2     1  UNL1        0.0168
     13 C         -11.5367  -16.5287   19.9608 C.2     1  UNL1        0.1298
     14 O         -12.1909  -15.4927   19.0954 O.2     1  UNL1       -0.5058
     15 C         -10.9483  -16.1377   21.2840 C.2     1  UNL1        0.0372
     16 C         -10.2941  -17.1737   22.1493 C.2     1  UNL1        0.0144
     17 H         -12.5584  -15.7370   18.2688 H       1  UNL1        0.2922
     18 C          -5.5892  -15.7283   25.1266 C.3     1  UNL1        0.1020
     19 C          -4.6642  -16.0543   23.9917 C.3     1  UNL1        0.1697
     20 O          -4.4471  -15.0583   22.8913 O.3     1  UNL1       -0.3793
     21 H          -4.9750  -14.2635   23.0658 H       1  UNL1        0.2106
     22 C          -3.9564  -17.3764   23.9571 C.3     1  UNL1        0.2358
     23 O          -4.1436  -18.2970   22.7878 O.3     1  UNL1       -0.4721
     24 C          -3.2552  -18.1728   21.5856 C.ar    1  UNL1        0.1482
     25 C          -2.0895  -17.2290   21.6088 C.ar    1  UNL1        0.0376
     26 C          -1.2011  -17.1049   20.4066 C.ar    1  UNL1        0.0032
     27 C          -1.4783  -17.9245   19.1813 C.ar    1  UNL1        0.0009
     28 C          -2.6439  -18.8683   19.1581 C.ar    1  UNL1        0.0133
     29 C          -3.5323  -18.9924   20.3603 C.ar    1  UNL1        0.1023
     30 C          -4.6980  -19.9362   20.3372 C.1     1  UNL1        0.1035
     31 N          -5.8636  -20.8800   20.3142 N.1     1  UNL1       -0.1907
@<TRIPOS>BOND
     1     3     4    1
     2     4     5    1
     3     4     6    1
     4     6     7    1
     5     7     8    2
     6     8     9    1
     7     9    10    2
     8    10    11    1
     9    11    12    1
    10    12    13    2
    11    13    14    1
    12    13    15    1
    13    15    16    2
    14     4     1    1
    15     1    18    1
    16    18    19    1
    17    19    20    1
    18    19    22    1
    19    22    23    1
    20    23    24    1
    21    24    25   ar
    22    25    26   ar
    23    26    27   ar
    24    27    28   ar
    25    28    29   ar
    26    29    30    1
    27    30    31    3
    28    16     7    1
    29    29    24   ar
    30    16    10    1
    31    14    17    1
    32     1     2    1
    33    20    21    1
@<TRIPOS>MOLECULE
*****
 31 33 0 0 0
SMALL
GASTEIGER

@<TRIPOS>ATOM
      1 N          -4.9542  -19.4873   22.2003 N.3     1  UNL1       -0.2972
      2 H          -4.5474  -20.4204   22.1350 H       1  UNL1        0.1233
      3 C          -5.9174  -20.7625   20.8053 C.3     1  UNL1        0.0161
      4 C          -6.3353  -19.5757   21.6218 C.3     1  UNL1        0.0462
      5 C          -6.7534  -18.3889   22.4383 C.3     1  UNL1        0.0161
      6 C          -7.7165  -19.6641   21.0432 C.3     1  UNL1        0.0424
      7 C          -8.9137  -19.5635   21.9413 C.2     1  UNL1       -0.0005
      8 C          -9.0992  -20.2786   23.2467 C.2     1  UNL1        0.0942
      9 N         -10.4358  -19.8871   23.8038 N.2     1  UNL1       -0.2482
     10 C         -11.0763  -18.9301   22.8427 C.2     1  UNL1        0.0633
     11 C         -12.3946  -18.2149   22.8669 C.3     1  UNL1        0.0749
     12 C         -12.7722  -17.2998   21.7401 C.2     1  UNL1        0.0168
     13 C         -11.8315  -17.0998   20.5889 C.2     1  UNL1        0.1298
     14 O         -12.2091  -16.1845   19.4620 O.2     1  UNL1       -0.5058
     15 C         -10.5132  -17.8149   20.5647 C.2     1  UNL1        0.0372
     16 C         -10.1356  -18.7301   21.6915 C.2     1  UNL1        0.0144
     17 H         -13.0326  -15.7378   19.4772 H       1  UNL1        0.2922
     18 C          -3.9540  -18.5367   21.6121 C.3     1  UNL1        0.1020
     19 C          -3.2867  -17.5154   22.4848 C.3     1  UNL1        0.1697
     20 O          -1.9403  -16.9720   22.1083 O.3     1  UNL1       -0.3793
     21 H          -1.6459  -17.3825   21.2803 H       1  UNL1        0.2106
     22 C          -3.9659  -17.0376   23.7339 C.3     1  UNL1        0.2358
     23 O          -4.8783  -15.8481   23.6835 O.3     1  UNL1       -0.4721
     24 C          -5.9397  -15.6721   24.7286 C.ar    1  UNL1        0.1482
     25 C          -5.5887  -15.7930   26.1819 C.ar    1  UNL1        0.0376
     26 C          -6.6502  -15.6171   27.2271 C.ar    1  UNL1        0.0032
     27 C          -8.0627  -15.3203   26.8189 C.ar    1  UNL1        0.0009
     28 C          -8.4138  -15.1994   25.3656 C.ar    1  UNL1        0.0133
     29 C          -7.3523  -15.3754   24.3204 C.ar    1  UNL1        0.1023
     30 C          -7.7033  -15.2545   22.8671 C.1     1  UNL1        0.1035
     31 N          -8.0542  -15.1336   21.4138 N.1     1  UNL1       -0.1907
@<TRIPOS>BOND
     1     3     4    1
     2     4     5    1
     3     4     6    1
     4     6     7    1
     5     7     8    2
     6     8     9    1
     7     9    10    2
     8    10    11    1
     9    11    12    1
    10    12    13    2
    11    13    14    1
    12    13    15    1
    13    15    16    2
    14     4     1    1
    15     1    18    1
    16    18    19    1
    17    19    20    1
    18    19    22    1
    19    22    23    1
    20    23    24    1
    21    24    25   ar
    22    25    26   ar
    23    26    27   ar
    24    27    28   ar
    25    28    29   ar
    26    29    30    1
    27    30    31    3
    28    16     7    1
    29    29    24   ar
    30    16    10    1
    31    14    17    1
    32     1     2    1
    33    20    21    1
@<TRIPOS>MOLECULE
*****
 31 33 0 0 0
SMALL
GASTEIGER

@<TRIPOS>ATOM
      1 N          -6.3418  -14.8830   25.4494 N.3     1  UNL1       -0.2972
      2 H          -6.2532  -14.4286   26.3583 H       1  UNL1        0.1233
      3 C          -7.8394  -15.7770   26.6566 C.3     1  UNL1        0.0161
      4 C          -7.7944  -15.2103   25.2686 C.3     1  UNL1        0.0462
      5 C          -7.7494  -14.6435   23.8805 C.3     1  UNL1        0.0161
      6 C          -9.2471  -15.5376   25.0879 C.3     1  UNL1        0.0424
      7 C          -9.7011  -16.2880   23.8710 C.2     1  UNL1       -0.0005
      8 C         -10.0374  -15.6864   22.5387 C.2     1  UNL1        0.0942
      9 N         -10.4426  -16.7983   21.6171 N.2     1  UNL1       -0.2482
     10 C         -10.3567  -18.0871   22.3797 C.2     1  UNL1        0.0633
     11 C         -10.6365  -19.5071   21.9857 C.3     1  UNL1        0.0749
     12 C         -10.4581  -20.6117   22.9846 C.2     1  UNL1        0.0168
     13 C          -9.9997  -20.2963   24.3776 C.2     1  UNL1        0.1298
     14 O          -9.8213  -21.4009   25.3767 O.2     1  UNL1       -0.5058
     15 C          -9.7199  -18.8763   24.7717 C.2     1  UNL1        0.0372
     16 C          -9.8984  -17.7717   23.7727 C.2     1  UNL1        0.0144
     17 H          -9.9961  -22.2880   25.1305 H       1  UNL1        0.2922
     18 C          -5.3160  -15.9767   25.4103 C.3     1  UNL1        0.1020
     19 C          -4.6101  -16.2974   24.1262 C.3     1  UNL1        0.1697
     20 O          -4.5996  -15.2993   23.0066 O.3     1  UNL1       -0.3793
     21 H          -5.0906  -14.5070   23.2751 H       1  UNL1        0.2106
     22 C          -3.9148  -17.6163   23.9618 C.3     1  UNL1        0.2358
     23 O          -4.1496  -18.4396   22.7301 O.3     1  UNL1       -0.4721
     24 C          -3.2606  -18.2701   21.5339 C.ar    1  UNL1        0.1482
     25 C          -2.1469  -17.2658   21.5635 C.ar    1  UNL1        0.0376
     26 C          -1.2578  -17.0964   20.3673 C.ar    1  UNL1        0.0032
     27 C          -1.4826  -17.9313   19.1415 C.ar    1  UNL1        0.0009
     28 C          -2.5963  -18.9356   19.1120 C.ar    1  UNL1        0.0133
     29 C          -3.4854  -19.1050   20.3082 C.ar    1  UNL1        0.1023
     30 C          -4.5991  -20.1093   20.2787 C.1     1  UNL1        0.1035
     31 N          -5.7128  -21.1136   20.2493 N.1     1  UNL1       -0.1907
@<TRIPOS>BOND
     1     3     4    1
     2     4     5    1
     3     4     6    1
     4     6     7    1
     5     7     8    2
     6     8     9    1
     7     9    10    2
     8    10    11    1
     9    11    12    1
    10    12    13    2
    11    13    14    1
    12    13    15    1
    13    15    16    2
    14     4     1    1
    15     1    18    1
    16    18    19    1
    17    19    20    1
    18    19    22    1
    19    22    23    1
    20    23    24    1
    21    24    25   ar
    22    25    26   ar
    23    26    27   ar
    24    27    28   ar
    25    28    29   ar
    26    29    30    1
    27    30    31    3
    28    16     7    1
    29    29    24   ar
    30    16    10    1
    31    14    17    1
    32     1     2    1
    33    20    21    1
@<TRIPOS>MOLECULE
*****
 31 33 0 0 0
SMALL
GASTEIGER

@<TRIPOS>ATOM
      1 N         -11.1618   -7.7949   17.8528 N.3     1  UNL1       -0.2972
      2 H         -11.2609   -7.9643   18.8537 H       1  UNL1        0.1233
      3 C         -11.0036   -6.2709   16.3858 C.3     1  UNL1        0.0161
      4 C         -10.3428   -6.5472   17.7037 C.3     1  UNL1        0.0462
      5 C          -9.6819   -6.8234   19.0216 C.3     1  UNL1        0.0161
      6 C          -9.5237   -5.2994   17.5545 C.3     1  UNL1        0.0424
      7 C         -10.1996   -3.9619   17.4897 C.2     1  UNL1       -0.0005
      8 C          -9.8337   -2.8326   16.5728 C.2     1  UNL1        0.0942
      9 N         -10.7681   -1.6916   16.8468 N.2     1  UNL1       -0.2482
     10 C         -11.7115   -2.1158   17.9332 C.2     1  UNL1        0.0633
     11 C         -12.8451   -1.4056   18.6119 C.3     1  UNL1        0.0749
     12 C         -13.6273   -2.0986   19.6879 C.2     1  UNL1        0.0168
     13 C         -13.2760   -3.5017   20.0852 C.2     1  UNL1        0.1298
     14 O         -14.0583   -4.1947   21.1613 O.2     1  UNL1       -0.5058
     15 C         -12.1424   -4.2118   19.4065 C.2     1  UNL1        0.0372
     16 C         -11.3602   -3.5189   18.3305 C.2     1  UNL1        0.0144
     17 H         -14.7664   -3.7510   21.5852 H       1  UNL1        0.2922
     18 C         -12.5397   -7.8626   17.2637 C.3     1  UNL1        0.1020
     19 C         -13.7392   -7.8969   18.1637 C.3     1  UNL1        0.1697
     20 O         -14.0750   -9.1489   18.9185 O.3     1  UNL1       -0.3793
     21 H         -13.4210   -9.8353   18.7133 H       1  UNL1        0.2106
     22 C         -14.6029   -6.6792   18.3089 C.3     1  UNL1        0.2358
     23 O         -15.3143   -6.4140   19.6025 O.3     1  UNL1       -0.4721
     24 C         -16.7880   -6.1343   19.6045 C.ar    1  UNL1        0.1482
     25 C         -17.2832   -4.7212   19.5158 C.ar    1  UNL1        0.0376
     26 C         -18.7569   -4.4415   19.5178 C.ar    1  UNL1        0.0032
     27 C         -19.7353   -5.5748   19.6086 C.ar    1  UNL1        0.0009
     28 C         -19.2401   -6.9879   19.6973 C.ar    1  UNL1        0.0133
     29 C         -17.7664   -7.2676   19.6953 C.ar    1  UNL1        0.1023
     30 C         -17.2711   -8.6807   19.7841 C.1     1  UNL1        0.1035
     31 N         -16.7757  -10.0937   19.8727 N.1     1  UNL1       -0.1907
@<TRIPOS>BOND
     1     3     4    1
     2     4     5    1
     3     4     6    1
     4     6     7    1
     5     7     8    2
     6     8     9    1
     7     9    10    2
     8    10    11    1
     9    11    12    1
    10    12    13    2
    11    13    14    1
    12    13    15    1
    13    15    16    2
    14     4     1    1
    15     1    18    1
    16    18    19    1
    17    19    20    1
    18    19    22    1
    19    22    23    1
    20    23    24    1
    21    24    25   ar
    22    25    26   ar
    23    26    27   ar
    24    27    28   ar
    25    28    29   ar
    26    29    30    1
    27    30    31    3
    28    16     7    1
    29    29    24   ar
    30    16    10    1
    31    14    17    1
    32     1     2    1
    33    20    21    1
@<TRIPOS>MOLECULE
*****
 31 33 0 0 0
SMALL
GASTEIGER

@<TRIPOS>ATOM
      1 N          -6.3928  -15.3100   24.4514 N.3     1  UNL1       -0.2972
      2 H          -6.1978  -15.1391   25.4379 H       1  UNL1        0.1233
      3 C          -8.0198  -15.5901   25.7834 C.3     1  UNL1        0.0161
      4 C          -7.8850  -15.3600   24.3073 C.3     1  UNL1        0.0462
      5 C          -7.7503  -15.1299   22.8312 C.3     1  UNL1        0.0161
      6 C          -9.3773  -15.4100   24.1633 C.3     1  UNL1        0.0424
      7 C         -10.0027  -16.3192   23.1473 C.2     1  UNL1       -0.0005
      8 C         -10.5424  -15.9077   21.8096 C.2     1  UNL1        0.0942
      9 N         -11.0714  -17.1338   21.1262 N.2     1  UNL1       -0.2482
     10 C         -10.8585  -18.3030   22.0414 C.2     1  UNL1        0.0633
     11 C         -11.1808  -19.7609   21.8988 C.3     1  UNL1        0.0749
     12 C         -10.8426  -20.7155   23.0053 C.2     1  UNL1        0.0168
     13 C         -10.1820  -20.2121   24.2544 C.2     1  UNL1        0.1298
     14 O          -9.8438  -21.1667   25.3610 O.2     1  UNL1       -0.5058
     15 C          -9.8598  -18.7541   24.3970 C.2     1  UNL1        0.0372
     16 C         -10.1980  -17.7995   23.2906 C.2     1  UNL1        0.0144
     17 H         -10.0451  -22.0775   25.2719 H       1  UNL1        0.2922
     18 C          -5.5599  -16.4888   24.0432 C.3     1  UNL1        0.1020
     19 C          -4.1885  -16.2770   23.4736 C.3     1  UNL1        0.1697
     20 O          -3.9050  -15.0692   22.6304 O.3     1  UNL1       -0.3793
     21 H          -4.7095  -14.5329   22.5529 H       1  UNL1        0.2106
     22 C          -3.1007  -17.2729   23.7472 C.3     1  UNL1        0.2358
     23 O          -2.5441  -18.1020   22.6280 O.3     1  UNL1       -0.4721
     24 C          -3.4575  -18.9613   21.8050 C.ar    1  UNL1        0.1482
     25 C          -4.7256  -19.4949   22.4027 C.ar    1  UNL1        0.0376
     26 C          -5.6390  -20.3542   21.5797 C.ar    1  UNL1        0.0032
     27 C          -5.2843  -20.6799   20.1591 C.ar    1  UNL1        0.0009
     28 C          -4.0162  -20.1464   19.5615 C.ar    1  UNL1        0.0133
     29 C          -3.1028  -19.2870   20.3844 C.ar    1  UNL1        0.1023
     30 C          -1.8347  -18.7534   19.7869 C.1     1  UNL1        0.1035
     31 N          -0.5665  -18.2199   19.1893 N.1     1  UNL1       -0.1907
@<TRIPOS>BOND
     1     3     4    1
     2     4     5    1
     3     4     6    1
     4     6     7    1
     5     7     8    2
     6     8     9    1
     7     9    10    2
     8    10    11    1
     9    11    12    1
    10    12    13    2
    11    13    14    1
    12    13    15    1
    13    15    16    2
    14     4     1    1
    15     1    18    1
    16    18    19    1
    17    19    20    1
    18    19    22    1
    19    22    23    1
    20    23    24    1
    21    24    25   ar
    22    25    26   ar
    23    26    27   ar
    24    27    28   ar
    25    28    29   ar
    26    29    30    1
    27    30    31    3
    28    16     7    1
    29    29    24   ar
    30    16    10    1
    31    14    17    1
    32     1     2    1
    33    20    21    1
@<TRIPOS>MOLECULE
*****
 31 33 0 0 0
SMALL
GASTEIGER

@<TRIPOS>ATOM
      1 N          -5.2314  -15.7609   24.2210 N.3     1  UNL1       -0.2972
      2 H          -6.0506  -16.3418   24.0421 H       1  UNL1        0.1233
      3 C          -3.8680  -15.7684   22.5960 C.3     1  UNL1        0.0161
      4 C          -4.0307  -16.5788   23.8477 C.3     1  UNL1        0.0462
      5 C          -4.1934  -17.3891   25.0994 C.3     1  UNL1        0.0161
      6 C          -2.8300  -17.3966   23.4743 C.3     1  UNL1        0.0424
      7 C          -2.8917  -18.3260   22.2984 C.2     1  UNL1       -0.0005
      8 C          -1.7522  -18.6695   21.3854 C.2     1  UNL1        0.0942
      9 N          -2.2601  -19.6308   20.3519 N.2     1  UNL1       -0.2482
     10 C          -3.7133  -19.8813   20.6262 C.2     1  UNL1        0.0633
     11 C          -4.7316  -20.7396   19.9360 C.3     1  UNL1        0.0749
     12 C          -6.1403  -20.7914   20.4488 C.2     1  UNL1        0.0168
     13 C          -6.5306  -19.9850   21.6519 C.2     1  UNL1        0.1298
     14 O          -7.9393  -20.0368   22.1646 O.2     1  UNL1       -0.5058
     15 C          -5.5123  -19.1267   22.3421 C.2     1  UNL1        0.0372
     16 C          -4.1037  -19.0749   21.8293 C.2     1  UNL1        0.0144
     17 H          -8.5754  -20.5730   21.7335 H       1  UNL1        0.2922
     18 C          -5.3732  -15.2307   25.6170 C.3     1  UNL1        0.1020
     19 C          -6.7295  -15.1424   26.2516 C.3     1  UNL1        0.1697
     20 O          -6.8688  -14.6344   27.6561 O.3     1  UNL1       -0.3793
     21 H          -5.9930  -14.4082   28.0064 H       1  UNL1        0.2106
     22 C          -7.9465  -15.5622   25.4817 C.3     1  UNL1        0.2358
     23 O          -7.9408  -16.8509   24.7141 O.3     1  UNL1       -0.4721
     24 C          -9.2220  -17.3987   24.1587 C.ar    1  UNL1        0.1482
     25 C         -10.0215  -18.3882   24.9535 C.ar    1  UNL1        0.0376
     26 C         -11.3027  -18.9360   24.3981 C.ar    1  UNL1        0.0032
     27 C         -11.7843  -18.4944   23.0479 C.ar    1  UNL1        0.0009
     28 C         -10.9848  -17.5049   22.2531 C.ar    1  UNL1        0.0133
     29 C          -9.7036  -16.9571   22.8085 C.ar    1  UNL1        0.1023
     30 C          -8.9041  -15.9676   22.0138 C.1     1  UNL1        0.1035
     31 N          -8.1046  -14.9781   21.2191 N.1     1  UNL1       -0.1907
@<TRIPOS>BOND
     1     3     4    1
     2     4     5    1
     3     4     6    1
     4     6     7    1
     5     7     8    2
     6     8     9    1
     7     9    10    2
     8    10    11    1
     9    11    12    1
    10    12    13    2
    11    13    14    1
    12    13    15    1
    13    15    16    2
    14     4     1    1
    15     1    18    1
    16    18    19    1
    17    19    20    1
    18    19    22    1
    19    22    23    1
    20    23    24    1
    21    24    25   ar
    22    25    26   ar
    23    26    27   ar
    24    27    28   ar
    25    28    29   ar
    26    29    30    1
    27    30    31    3
    28    16     7    1
    29    29    24   ar
    30    16    10    1
    31    14    17    1
    32     1     2    1
    33    20    21    1
@<TRIPOS>MOLECULE
*****
 31 33 0 0 0
SMALL
GASTEIGER

@<TRIPOS>ATOM
      1 N         -11.7957   -6.4916   16.7633 N.3     1  UNL1       -0.2972
      2 H         -11.6037   -5.6272   17.2695 H       1  UNL1        0.1233
      3 C         -13.2469   -7.9610   17.2476 C.3     1  UNL1        0.0161
      4 C         -13.2863   -6.5941   16.6313 C.3     1  UNL1        0.0462
      5 C         -13.3259   -5.2272   16.0150 C.3     1  UNL1        0.0161
      6 C         -14.7771   -6.6967   16.4994 C.3     1  UNL1        0.0424
      7 C         -15.6495   -6.5427   17.7098 C.2     1  UNL1       -0.0005
      8 C         -15.7345   -5.3287   18.5867 C.2     1  UNL1        0.0942
      9 N         -16.7276   -5.6115   19.6747 N.2     1  UNL1       -0.2482
     10 C         -17.2564   -7.0002   19.4703 C.2     1  UNL1        0.0633
     11 C         -18.2585   -7.8151   20.2330 C.3     1  UNL1        0.0749
     12 C         -18.5943   -9.2054   19.7813 C.2     1  UNL1        0.0168
     13 C         -17.9280   -9.7810   18.5669 C.2     1  UNL1        0.1298
     14 O         -18.2638  -11.1714   18.1152 O.2     1  UNL1       -0.5058
     15 C         -16.9259   -8.9661   17.8042 C.2     1  UNL1        0.0372
     16 C         -16.5901   -7.5758   18.2559 C.2     1  UNL1        0.0144
     17 H         -18.8898  -11.6804   18.5916 H       1  UNL1        0.2922
     18 C         -11.0275   -7.5783   17.4552 C.3     1  UNL1        0.1020
     19 C         -10.0695   -7.2347   18.5571 C.3     1  UNL1        0.1697
     20 O          -9.3933   -8.3274   19.3310 O.3     1  UNL1       -0.3793
     21 H          -9.6840   -9.1895   18.9944 H       1  UNL1        0.2106
     22 C          -9.7877   -5.7984   18.8852 C.3     1  UNL1        0.2358
     23 O         -10.9170   -4.8706   19.2223 O.3     1  UNL1       -0.4721
     24 C         -11.0541   -3.5627   18.5008 C.ar    1  UNL1        0.1482
     25 C         -10.1238   -3.2273   17.3729 C.ar    1  UNL1        0.0376
     26 C         -10.2609   -1.9194   16.6514 C.ar    1  UNL1        0.0032
     27 C         -11.3282   -0.9469   17.0577 C.ar    1  UNL1        0.0009
     28 C         -12.2585   -1.2823   18.1856 C.ar    1  UNL1        0.0133
     29 C         -12.1214   -2.5902   18.9071 C.ar    1  UNL1        0.1023
     30 C         -13.0516   -2.9257   20.0349 C.1     1  UNL1        0.1035
     31 N         -13.9819   -3.2613   21.1628 N.1     1  UNL1       -0.1907
@<TRIPOS>BOND
     1     3     4    1
     2     4     5    1
     3     4     6    1
     4     6     7    1
     5     7     8    2
     6     8     9    1
     7     9    10    2
     8    10    11    1
     9    11    12    1
    10    12    13    2
    11    13    14    1
    12    13    15    1
    13    15    16    2
    14     4     1    1
    15     1    18    1
    16    18    19    1
    17    19    20    1
    18    19    22    1
    19    22    23    1
    20    23    24    1
    21    24    25   ar
    22    25    26   ar
    23    26    27   ar
    24    27    28   ar
    25    28    29   ar
    26    29    30    1
    27    30    31    3
    28    16     7    1
    29    29    24   ar
    30    16    10    1
    31    14    17    1
    32     1     2    1
    33    20    21    1
@<TRIPOS>MOLECULE
*****
 31 33 0 0 0
SMALL
GASTEIGER

@<TRIPOS>ATOM
      1 N          -8.2744  -16.6241   24.9773 N.3     1  UNL1       -0.2972
      2 H          -7.7607  -17.3869   25.4185 H       1  UNL1        0.1233
      3 C          -9.3823  -18.3584   25.4918 C.3     1  UNL1        0.0161
      4 C          -9.6271  -17.1637   24.6184 C.3     1  UNL1        0.0462
      5 C          -9.8720  -15.9690   23.7451 C.3     1  UNL1        0.0161
      6 C         -10.9800  -17.7034   24.2596 C.3     1  UNL1        0.0424
      7 C         -11.3503  -17.9022   22.8196 C.2     1  UNL1       -0.0005
      8 C         -12.6625  -17.5417   22.1888 C.2     1  UNL1        0.0942
      9 N         -12.5965  -17.9132   20.7371 N.2     1  UNL1       -0.2482
     10 C         -11.2435  -18.5034   20.4707 C.2     1  UNL1        0.0633
     11 C         -10.6133  -19.0461   19.2223 C.3     1  UNL1        0.0749
     12 C          -9.2129  -19.5820   19.2611 C.2     1  UNL1        0.0168
     13 C          -8.4427  -19.5752   20.5483 C.2     1  UNL1        0.1298
     14 O          -7.0422  -20.1112   20.5870 O.2     1  UNL1       -0.5058
     15 C          -9.0728  -19.0325   21.7966 C.2     1  UNL1        0.0372
     16 C         -10.4732  -18.4966   21.7578 C.2     1  UNL1        0.0144
     17 H          -6.6485  -20.4502   19.8072 H       1  UNL1        0.2922
     18 C          -7.3833  -16.0627   23.9093 C.3     1  UNL1        0.1020
     19 C          -5.9869  -16.5857   23.7461 C.3     1  UNL1        0.1697
     20 O          -4.8673  -15.9999   24.5544 O.3     1  UNL1       -0.3793
     21 H          -5.2149  -15.2992   25.1281 H       1  UNL1        0.2106
     22 C          -5.7102  -17.6945   22.7745 C.3     1  UNL1        0.2358
     23 O          -4.3928  -18.4108   22.8092 O.3     1  UNL1       -0.4721
     24 C          -3.2740  -17.9672   21.9139 C.ar    1  UNL1        0.1482
     25 C          -2.4940  -16.7296   22.2452 C.ar    1  UNL1        0.0376
     26 C          -1.3753  -16.2860   21.3498 C.ar    1  UNL1        0.0032
     27 C          -1.0366  -17.0801   20.1232 C.ar    1  UNL1        0.0009
     28 C          -1.8166  -18.3178   19.7919 C.ar    1  UNL1        0.0133
     29 C          -2.9353  -18.7613   20.6872 C.ar    1  UNL1        0.1023
     30 C          -3.7153  -19.9990   20.3560 C.1     1  UNL1        0.1035
     31 N          -4.4954  -21.2366   20.0248 N.1     1  UNL1       -0.1907
@<TRIPOS>BOND
     1     3     4    1
     2     4     5    1
     3     4     6    1
     4     6     7    1
     5     7     8    2
     6     8     9    1
     7     9    10    2
     8    10    11    1
     9    11    12    1
    10    12    13    2
    11    13    14    1
    12    13    15    1
    13    15    16    2
    14     4     1    1
    15     1    18    1
    16    18    19    1
    17    19    20    1
    18    19    22    1
    19    22    23    1
    20    23    24    1
    21    24    25   ar
    22    25    26   ar
    23    26    27   ar
    24    27    28   ar
    25    28    29   ar
    26    29    30    1
    27    30    31    3
    28    16     7    1
    29    29    24   ar
    30    16    10    1
    31    14    17    1
    32     1     2    1
    33    20    21    1
