@<TRIPOS>MOLECULE
*****
 38 41 0 0 0
SMALL
GASTEIGER

@<TRIPOS>ATOM
      1 C           5.0723   -0.6446   34.4340 C.ar    1  UNL1       -0.0206
      2 C           4.2895   -1.8163   33.9199 C.ar    1  UNL1       -0.0042
      3 C           4.8985   -2.7379   32.9051 C.ar    1  UNL1       -0.0003
      4 C           6.2902   -2.4878   32.4044 C.ar    1  UNL1        0.0001
      5 C           7.0730   -1.3161   32.9186 C.ar    1  UNL1       -0.0003
      6 C           6.4640   -0.3945   33.9333 C.ar    1  UNL1       -0.0042
      7 C           3.6952    1.5562   39.0320 C.3     1  UNL1        0.0897
      8 N           3.8304    1.2887   37.5623 N.3     1  UNL1       -0.2708
      9 C           3.2223    2.1022   36.4584 C.3     1  UNL1        0.0816
     10 C           3.6135    1.4770   35.1522 C.3     1  UNL1        0.0981
     11 C           4.4634    0.2771   35.4488 C.3     1  UNL1        0.0483
     12 C           4.5974    0.1607   36.9382 C.3     1  UNL1        0.0770
     13 C           3.2234    1.9659   33.7888 C.2     1  UNL1        0.2274
     14 O           4.2498    2.5993   32.8971 O.2     1  UNL1       -0.2747
     15 N           1.8068    1.8215   33.3173 N.am    1  UNL1       -0.2839
     16 H           1.1331    1.4058   33.9026 H       1  UNL1        0.1549
     17 C           1.4166    2.3104   31.9539 C.ar    1  UNL1        0.0504
     18 C           1.0296    3.7457   31.7542 C.ar    1  UNL1        0.0155
     19 C           0.6395    4.2346   30.3908 C.ar    1  UNL1        0.0127
     20 C           0.6363    3.2881   29.2272 C.ar    1  UNL1        0.0578
     21 CL          0.2462    3.7770   27.8638 Cl      1  UNL1       -0.0822
     22 C           1.0233    1.8527   29.4268 C.ar    1  UNL1        0.0127
     23 C           1.4135    1.3639   30.7902 C.ar    1  UNL1        0.0155
     24 C           6.8991   -3.4095   31.3897 C.2     1  UNL1        0.0047
     25 C           6.8659   -3.0491   29.9339 C.2     1  UNL1        0.0580
     26 C           7.4748   -3.9707   28.9191 C.2     1  UNL1        0.2497
     27 O           8.8874   -3.7557   28.4629 O.2     1  UNL1       -0.2698
     28 N           6.6710   -5.1073   28.3604 N.am    1  UNL1       -0.2794
     29 H           5.7438   -5.2485   28.6598 H       1  UNL1        0.1552
     30 C           7.2800   -6.0289   27.3456 C.ar    1  UNL1        0.0636
     31 C           7.9977   -7.2678   27.7926 C.ar    1  UNL1        0.0159
     32 C           8.6066   -8.1893   26.7777 C.ar    1  UNL1        0.0014
     33 C           8.4978   -7.8718   25.3157 C.ar    1  UNL1        0.0013
     34 C           7.7801   -6.6329   24.8687 C.ar    1  UNL1        0.0153
     35 C           7.1712   -5.7114   25.8836 C.ar    1  UNL1        0.0552
     36 N           6.4535   -4.4724   25.4365 N.pl3   1  UNL1       -0.3560
     37 H           6.3821   -4.2641   24.4770 H       1  UNL1        0.1424
     38 H           6.0538   -3.8676   26.1026 H       1  UNL1        0.1424
@<TRIPOS>BOND
     1     7     8    1
     2     8     9    1
     3     9    10    1
     4    10    13    1
     5    13    14    2
     6    13    15   am
     7    15    17    1
     8    17    18   ar
     9    18    19   ar
    10    19    20   ar
    11    20    21    1
    12    20    22   ar
    13    22    23   ar
    14    10    11    1
    15    11     1    1
    16     1     2   ar
    17     2     3   ar
    18     3     4   ar
    19     4    24    1
    20    24    25    2
    21    25    26    1
    22    26    27    2
    23    26    28   am
    24    28    30    1
    25    30    31   ar
    26    31    32   ar
    27    32    33   ar
    28    33    34   ar
    29    34    35   ar
    30    35    36    1
    31     4     5   ar
    32     5     6   ar
    33    11    12    1
    34    12     8    1
    35    23    17   ar
    36     6     1   ar
    37    35    30   ar
    38    15    16    1
    39    28    29    1
    40    36    37    1
    41    36    38    1
@<TRIPOS>MOLECULE
*****
 38 41 0 0 0
SMALL
GASTEIGER

@<TRIPOS>ATOM
      1 C         -13.0825   -4.1875   19.2731 C.ar    1  UNL1       -0.0206
      2 C         -13.3330   -3.1798   18.1907 C.ar    1  UNL1       -0.0042
      3 C         -14.1775   -1.9722   18.4710 C.ar    1  UNL1       -0.0003
      4 C         -14.7715   -1.7723   19.8338 C.ar    1  UNL1        0.0001
      5 C         -14.5210   -2.7800   20.9163 C.ar    1  UNL1       -0.0003
      6 C         -13.6765   -3.9875   20.6359 C.ar    1  UNL1       -0.0042
      7 C          -8.9071   -7.3443   18.5790 C.3     1  UNL1        0.0897
      8 N         -10.3188   -6.8461   18.6738 N.3     1  UNL1       -0.2708
      9 C         -11.5583   -7.6607   18.4494 C.3     1  UNL1        0.0816
     10 C         -12.7443   -6.7639   18.6466 C.3     1  UNL1        0.0981
     11 C         -12.2380   -5.3950   18.9929 C.3     1  UNL1        0.0483
     12 C         -10.7390   -5.4459   19.0097 C.3     1  UNL1        0.0770
     13 C         -14.1841   -7.1654   18.5197 C.2     1  UNL1        0.2274
     14 O         -15.1117   -6.3671   17.6524 O.2     1  UNL1       -0.2747
     15 N         -14.6961   -8.3652   19.2602 N.am    1  UNL1       -0.2839
     16 H         -14.0872   -8.8891   19.8294 H       1  UNL1        0.1549
     17 C         -16.1358   -8.7668   19.1333 C.ar    1  UNL1        0.0504
     18 C         -17.1914   -8.0257   19.8990 C.ar    1  UNL1        0.0155
     19 C         -18.6310   -8.4272   19.7721 C.ar    1  UNL1        0.0127
     20 C         -19.0151   -9.5699   18.8795 C.ar    1  UNL1        0.0578
     21 CL        -20.4548   -9.9715   18.7526 Cl      1  UNL1       -0.0822
     22 C         -17.9595  -10.3111   18.1138 C.ar    1  UNL1        0.0127
     23 C         -16.5198   -9.9095   18.2407 C.ar    1  UNL1        0.0155
     24 C         -15.6160   -0.5647   20.1141 C.2     1  UNL1        0.0047
     25 C         -17.1076   -0.6968   20.2023 C.2     1  UNL1        0.0580
     26 C         -17.9521    0.5107   20.4826 C.2     1  UNL1        0.2497
     27 O         -19.3253    0.6198   19.8888 O.2     1  UNL1       -0.2698
     28 N         -17.4236    1.6093   21.3566 N.am    1  UNL1       -0.2794
     29 H         -16.5224    1.5378   21.7463 H       1  UNL1        0.1552
     30 C         -18.2682    2.8168   21.6368 C.ar    1  UNL1        0.0636
     31 C         -18.5613    3.7979   20.5406 C.ar    1  UNL1        0.0159
     32 C         -19.4059    5.0054   20.8209 C.ar    1  UNL1        0.0014
     33 C         -19.9575    5.2317   22.1973 C.ar    1  UNL1        0.0013
     34 C         -19.6645    4.2506   23.2935 C.ar    1  UNL1        0.0153
     35 C         -18.8199    3.0432   23.0132 C.ar    1  UNL1        0.0552
     36 N         -18.5268    2.0620   24.1093 N.pl3   1  UNL1       -0.3560
     37 H         -18.8889    2.2106   25.0127 H       1  UNL1        0.1424
     38 H         -17.9725    1.2695   23.9254 H       1  UNL1        0.1424
@<TRIPOS>BOND
     1     7     8    1
     2     8     9    1
     3     9    10    1
     4    10    13    1
     5    13    14    2
     6    13    15   am
     7    15    17    1
     8    17    18   ar
     9    18    19   ar
    10    19    20   ar
    11    20    21    1
    12    20    22   ar
    13    22    23   ar
    14    10    11    1
    15    11     1    1
    16     1     2   ar
    17     2     3   ar
    18     3     4   ar
    19     4    24    1
    20    24    25    2
    21    25    26    1
    22    26    27    2
    23    26    28   am
    24    28    30    1
    25    30    31   ar
    26    31    32   ar
    27    32    33   ar
    28    33    34   ar
    29    34    35   ar
    30    35    36    1
    31     4     5   ar
    32     5     6   ar
    33    11    12    1
    34    12     8    1
    35    23    17   ar
    36     6     1   ar
    37    35    30   ar
    38    15    16    1
    39    28    29    1
    40    36    37    1
    41    36    38    1
@<TRIPOS>MOLECULE
*****
 38 41 0 0 0
SMALL
GASTEIGER

@<TRIPOS>ATOM
      1 C           2.0518    0.3616   28.7154 C.ar    1  UNL1       -0.0206
      2 C           0.6994   -0.2529   28.9237 C.ar    1  UNL1       -0.0042
      3 C          -0.5222    0.4164   28.3673 C.ar    1  UNL1       -0.0003
      4 C          -0.3915    1.7003   27.6026 C.ar    1  UNL1        0.0001
      5 C           0.9609    2.3148   27.3943 C.ar    1  UNL1       -0.0003
      6 C           2.1825    1.6454   27.9507 C.ar    1  UNL1       -0.0042
      7 C           5.5535   -1.6971   32.0889 C.3     1  UNL1        0.0897
      8 N           4.8831   -1.2540   30.8224 N.3     1  UNL1       -0.2708
      9 C           5.4240   -1.4212   29.4332 C.3     1  UNL1        0.0816
     10 C           4.4292   -0.8363   28.4750 C.3     1  UNL1        0.0981
     11 C           3.2735   -0.3077   29.2717 C.3     1  UNL1        0.0483
     12 C           3.5540   -0.5658   30.7225 C.3     1  UNL1        0.0770
     13 C           4.5661   -0.7886   26.9819 C.2     1  UNL1        0.2274
     14 O           5.6183    0.0756   26.3526 O.2     1  UNL1       -0.2747
     15 N           3.6508   -1.6049   26.1184 N.am    1  UNL1       -0.2839
     16 H           2.9602   -2.1720   26.5314 H       1  UNL1        0.1549
     17 C           3.7877   -1.5571   24.6253 C.ar    1  UNL1        0.0504
     18 C           4.7125   -2.5088   23.9262 C.ar    1  UNL1        0.0155
     19 C           4.8494   -2.4610   22.4332 C.ar    1  UNL1        0.0127
     20 C           4.0615   -1.4615   21.6395 C.ar    1  UNL1        0.0578
     21 CL          4.1984   -1.4137   20.1464 Cl      1  UNL1       -0.0822
     22 C           3.1367   -0.5098   22.3386 C.ar    1  UNL1        0.0127
     23 C           2.9998   -0.5576   23.8316 C.ar    1  UNL1        0.0155
     24 C          -1.6132    2.3695   27.0462 C.2     1  UNL1        0.0047
     25 C          -1.6027    3.8450   26.7762 C.2     1  UNL1        0.0580
     26 C          -2.8243    4.5143   26.2198 C.2     1  UNL1        0.2497
     27 O          -2.6822    5.7022   25.3149 O.2     1  UNL1       -0.2698
     28 N          -4.1881    3.9959   26.5683 N.am    1  UNL1       -0.2794
     29 H          -4.2814    3.2163   27.1623 H       1  UNL1        0.1552
     30 C          -5.4097    4.6653   26.0119 C.ar    1  UNL1        0.0636
     31 C          -6.0792    5.7646   26.7823 C.ar    1  UNL1        0.0159
     32 C          -7.3008    6.4339   26.2258 C.ar    1  UNL1        0.0014
     33 C          -7.8528    6.0041   24.8990 C.ar    1  UNL1        0.0013
     34 C          -7.1833    4.9048   24.1286 C.ar    1  UNL1        0.0153
     35 C          -5.9617    4.2355   24.6851 C.ar    1  UNL1        0.0552
     36 N          -5.2922    3.1363   23.9147 N.pl3   1  UNL1       -0.3560
     37 H          -5.6545    2.8542   23.0439 H       1  UNL1        0.1424
     38 H          -4.4904    2.6969   24.2800 H       1  UNL1        0.1424
@<TRIPOS>BOND
     1     7     8    1
     2     8     9    1
     3     9    10    1
     4    10    13    1
     5    13    14    2
     6    13    15   am
     7    15    17    1
     8    17    18   ar
     9    18    19   ar
    10    19    20   ar
    11    20    21    1
    12    20    22   ar
    13    22    23   ar
    14    10    11    1
    15    11     1    1
    16     1     2   ar
    17     2     3   ar
    18     3     4   ar
    19     4    24    1
    20    24    25    2
    21    25    26    1
    22    26    27    2
    23    26    28   am
    24    28    30    1
    25    30    31   ar
    26    31    32   ar
    27    32    33   ar
    28    33    34   ar
    29    34    35   ar
    30    35    36    1
    31     4     5   ar
    32     5     6   ar
    33    11    12    1
    34    12     8    1
    35    23    17   ar
    36     6     1   ar
    37    35    30   ar
    38    15    16    1
    39    28    29    1
    40    36    37    1
    41    36    38    1
@<TRIPOS>MOLECULE
*****
 38 41 0 0 0
SMALL
GASTEIGER

@<TRIPOS>ATOM
      1 C           1.7114    0.4976   28.8395 C.ar    1  UNL1       -0.0206
      2 C           0.3660   -0.1578   28.7377 C.ar    1  UNL1       -0.0042
      3 C          -0.7665    0.5557   28.0607 C.ar    1  UNL1       -0.0003
      4 C          -0.5536    1.9245   27.4853 C.ar    1  UNL1        0.0001
      5 C           0.7918    2.5799   27.5870 C.ar    1  UNL1       -0.0003
      6 C           1.9243    1.8664   28.2641 C.ar    1  UNL1       -0.0042
      7 C           4.7580   -1.7070   32.5460 C.3     1  UNL1        0.0897
      8 N           4.2444   -1.2291   31.2202 N.3     1  UNL1       -0.2708
      9 C           4.9294   -1.3980   29.8964 C.3     1  UNL1        0.0816
     10 C           4.0638   -0.7717   28.8435 C.3     1  UNL1        0.0981
     11 C           2.8440   -0.2158   29.5165 C.3     1  UNL1        0.0483
     12 C           2.9555   -0.4985   30.9854 C.3     1  UNL1        0.0770
     13 C           4.3653   -0.7118   27.3753 C.2     1  UNL1        0.2274
     14 O           5.4101    0.2342   26.8622 O.2     1  UNL1       -0.2747
     15 N           3.6219   -1.5980   26.4203 N.am    1  UNL1       -0.2839
     16 H           2.9362   -2.2189   26.7571 H       1  UNL1        0.1549
     17 C           3.9234   -1.5381   24.9521 C.ar    1  UNL1        0.0504
     18 C           5.0113   -2.3940   24.3743 C.ar    1  UNL1        0.0155
     19 C           5.3127   -2.3341   22.9061 C.ar    1  UNL1        0.0127
     20 C           4.5262   -1.4183   22.0158 C.ar    1  UNL1        0.0578
     21 CL          4.8277   -1.3585   20.5475 Cl      1  UNL1       -0.0822
     22 C           3.4383   -0.5624   22.5935 C.ar    1  UNL1        0.0127
     23 C           3.1369   -0.6223   24.0617 C.ar    1  UNL1        0.0155
     24 C          -1.6862    2.6379   26.8082 C.2     1  UNL1        0.0047
     25 C          -1.5989    2.9667   25.3473 C.2     1  UNL1        0.0580
     26 C          -2.7314    3.6800   24.6701 C.2     1  UNL1        0.2497
     27 O          -2.6357    5.1524   24.4000 O.2     1  UNL1       -0.2698
     28 N          -3.9596    2.9211   24.2631 N.am    1  UNL1       -0.2794
     29 H          -4.0224    1.9547   24.4405 H       1  UNL1        0.1552
     30 C          -5.0920    3.6345   23.5860 C.ar    1  UNL1        0.0636
     31 C          -6.0727    4.4265   24.3990 C.ar    1  UNL1        0.0159
     32 C          -7.2051    5.1399   23.7218 C.ar    1  UNL1        0.0014
     33 C          -7.3569    5.0614   22.2316 C.ar    1  UNL1        0.0013
     34 C          -6.3762    4.2694   21.4185 C.ar    1  UNL1        0.0153
     35 C          -5.2438    3.5560   22.0958 C.ar    1  UNL1        0.0552
     36 N          -4.2631    2.7640   21.2828 N.pl3   1  UNL1       -0.3560
     37 H          -4.3627    2.7125   20.3047 H       1  UNL1        0.1424
     38 H          -3.5198    2.2958   21.7272 H       1  UNL1        0.1424
@<TRIPOS>BOND
     1     7     8    1
     2     8     9    1
     3     9    10    1
     4    10    13    1
     5    13    14    2
     6    13    15   am
     7    15    17    1
     8    17    18   ar
     9    18    19   ar
    10    19    20   ar
    11    20    21    1
    12    20    22   ar
    13    22    23   ar
    14    10    11    1
    15    11     1    1
    16     1     2   ar
    17     2     3   ar
    18     3     4   ar
    19     4    24    1
    20    24    25    2
    21    25    26    1
    22    26    27    2
    23    26    28   am
    24    28    30    1
    25    30    31   ar
    26    31    32   ar
    27    32    33   ar
    28    33    34   ar
    29    34    35   ar
    30    35    36    1
    31     4     5   ar
    32     5     6   ar
    33    11    12    1
    34    12     8    1
    35    23    17   ar
    36     6     1   ar
    37    35    30   ar
    38    15    16    1
    39    28    29    1
    40    36    37    1
    41    36    38    1
@<TRIPOS>MOLECULE
*****
 38 41 0 0 0
SMALL
GASTEIGER

@<TRIPOS>ATOM
      1 C          -0.6696    3.2247   24.3714 C.ar    1  UNL1       -0.0206
      2 C          -0.9583    2.0934   25.3131 C.ar    1  UNL1       -0.0042
      3 C          -0.0169    1.7995   26.4433 C.ar    1  UNL1       -0.0003
      4 C           1.2133    2.6369   26.6318 C.ar    1  UNL1        0.0001
      5 C           1.5021    3.7682   25.6901 C.ar    1  UNL1       -0.0003
      6 C           0.5606    4.0620   24.5599 C.ar    1  UNL1       -0.0042
      7 C          -4.8665    4.8937   21.6363 C.3     1  UNL1        0.0897
      8 N          -3.5401    4.2858   21.9839 N.3     1  UNL1       -0.2708
      9 C          -2.5789    3.6561   21.0197 C.3     1  UNL1        0.0816
     10 C          -1.3866    3.1819   21.7968 C.3     1  UNL1        0.0981
     11 C          -1.6109    3.5186   23.2412 C.3     1  UNL1        0.0483
     12 C          -2.9418    4.2008   23.3569 C.3     1  UNL1        0.0770
     13 C          -0.1817    2.4922   21.2290 C.2     1  UNL1        0.2274
     14 O           1.1673    3.1415   21.3217 O.2     1  UNL1       -0.2747
     15 N          -0.3257    1.1532   20.5685 N.am    1  UNL1       -0.2839
     16 H          -1.2111    0.7270   20.5076 H       1  UNL1        0.1549
     17 C           0.8793    0.4634   20.0007 C.ar    1  UNL1        0.0504
     18 C           1.5793   -0.5988   20.7954 C.ar    1  UNL1        0.0155
     19 C           2.7843   -1.2885   20.2276 C.ar    1  UNL1        0.0127
     20 C           3.2891   -0.9159   18.8651 C.ar    1  UNL1        0.0578
     21 CL          4.4941   -1.6057   18.2973 Cl      1  UNL1       -0.0822
     22 C           2.5891    0.1463   18.0704 C.ar    1  UNL1        0.0127
     23 C           1.3842    0.8360   18.6382 C.ar    1  UNL1        0.0155
     24 C           2.1547    2.3429   27.7620 C.2     1  UNL1        0.0047
     25 C           2.0349    1.0554   28.5222 C.2     1  UNL1        0.0580
     26 C           2.9762    0.7613   29.6524 C.2     1  UNL1        0.2497
     27 O           4.3202    1.4256   29.7012 O.2     1  UNL1       -0.2698
     28 N           2.5736   -0.1970   30.7339 N.am    1  UNL1       -0.2794
     29 H           1.6915   -0.6330   30.7019 H       1  UNL1        0.1552
     30 C           3.5149   -0.4910   31.8641 C.ar    1  UNL1        0.0636
     31 C           4.5336   -1.5834   31.7269 C.ar    1  UNL1        0.0159
     32 C           5.4749   -1.8773   32.8572 C.ar    1  UNL1        0.0014
     33 C           5.3976   -1.0788   34.1246 C.ar    1  UNL1        0.0013
     34 C           4.3790    0.0137   34.2618 C.ar    1  UNL1        0.0153
     35 C           3.4376    0.3076   33.1315 C.ar    1  UNL1        0.0552
     36 N           2.4190    1.4001   33.2687 N.pl3   1  UNL1       -0.3560
     37 H           2.3682    1.9242   34.1005 H       1  UNL1        0.1424
     38 H           1.8011    1.5930   32.5269 H       1  UNL1        0.1424
@<TRIPOS>BOND
     1     7     8    1
     2     8     9    1
     3     9    10    1
     4    10    13    1
     5    13    14    2
     6    13    15   am
     7    15    17    1
     8    17    18   ar
     9    18    19   ar
    10    19    20   ar
    11    20    21    1
    12    20    22   ar
    13    22    23   ar
    14    10    11    1
    15    11     1    1
    16     1     2   ar
    17     2     3   ar
    18     3     4   ar
    19     4    24    1
    20    24    25    2
    21    25    26    1
    22    26    27    2
    23    26    28   am
    24    28    30    1
    25    30    31   ar
    26    31    32   ar
    27    32    33   ar
    28    33    34   ar
    29    34    35   ar
    30    35    36    1
    31     4     5   ar
    32     5     6   ar
    33    11    12    1
    34    12     8    1
    35    23    17   ar
    36     6     1   ar
    37    35    30   ar
    38    15    16    1
    39    28    29    1
    40    36    37    1
    41    36    38    1
@<TRIPOS>MOLECULE
*****
 38 41 0 0 0
SMALL
GASTEIGER

@<TRIPOS>ATOM
      1 C           1.2964    2.3364   28.1156 C.ar    1  UNL1       -0.0206
      2 C           0.1139    1.9433   27.2806 C.ar    1  UNL1       -0.0042
      3 C           0.3218    1.3196   25.9324 C.ar    1  UNL1       -0.0003
      4 C           1.7123    1.0890   25.4190 C.ar    1  UNL1        0.0001
      5 C           2.8948    1.4821   26.2539 C.ar    1  UNL1       -0.0003
      6 C           2.6868    2.1058   27.6022 C.ar    1  UNL1       -0.0042
      7 C          -0.1470    5.6933   31.9272 C.3     1  UNL1        0.0897
      8 N           0.4250    4.5030   31.2159 N.3     1  UNL1       -0.2708
      9 C           1.1123    3.3363   31.8615 C.3     1  UNL1        0.0816
     10 C           1.5223    2.3828   30.7786 C.3     1  UNL1        0.0981
     11 C           1.0885    2.9600   29.4638 C.3     1  UNL1        0.0483
     12 C           0.4104    4.2704   29.7341 C.3     1  UNL1        0.0770
     13 C           2.2401    1.0805   30.9759 C.2     1  UNL1        0.2274
     14 O           1.6222   -0.1974   30.4910 O.2     1  UNL1       -0.2747
     15 N           3.5758    1.0562   31.6581 N.am    1  UNL1       -0.2839
     16 H           3.9813    1.8949   31.9763 H       1  UNL1        0.1549
     17 C           4.2936   -0.2461   31.8554 C.ar    1  UNL1        0.0504
     18 C           3.9957   -1.0920   33.0577 C.ar    1  UNL1        0.0155
     19 C           4.7135   -2.3942   33.2550 C.ar    1  UNL1        0.0127
     20 C           5.7292   -2.8505   32.2499 C.ar    1  UNL1        0.0578
     21 CL          6.4471   -4.1528   32.4473 Cl      1  UNL1       -0.0822
     22 C           6.0271   -2.0046   31.0476 C.ar    1  UNL1        0.0127
     23 C           5.3093   -0.7024   30.8503 C.ar    1  UNL1        0.0155
     24 C           1.9202    0.4654   24.0708 C.2     1  UNL1        0.0047
     25 C           3.0006   -0.5567   23.8758 C.2     1  UNL1        0.0580
     26 C           3.2085   -1.1805   22.5276 C.2     1  UNL1        0.2497
     27 O           2.3272   -0.7921   21.3776 O.2     1  UNL1       -0.2698
     28 N           4.2978   -2.1925   22.3293 N.am    1  UNL1       -0.2794
     29 H           4.8762   -2.4475   23.0840 H       1  UNL1        0.1552
     30 C           4.5056   -2.8162   20.9810 C.ar    1  UNL1        0.0636
     31 C           3.8974   -4.1518   20.6706 C.ar    1  UNL1        0.0159
     32 C           4.1054   -4.7753   19.3223 C.ar    1  UNL1        0.0014
     33 C           4.9215   -4.0634   18.2845 C.ar    1  UNL1        0.0013
     34 C           5.5296   -2.7278   18.5949 C.ar    1  UNL1        0.0153
     35 C           5.3217   -2.1042   19.9432 C.ar    1  UNL1        0.0552
     36 N           5.9299   -0.7687   20.2537 N.pl3   1  UNL1       -0.3560
     37 H           6.4655   -0.3014   19.5725 H       1  UNL1        0.1424
     38 H           5.7934   -0.3594   21.1386 H       1  UNL1        0.1424
@<TRIPOS>BOND
     1     7     8    1
     2     8     9    1
     3     9    10    1
     4    10    13    1
     5    13    14    2
     6    13    15   am
     7    15    17    1
     8    17    18   ar
     9    18    19   ar
    10    19    20   ar
    11    20    21    1
    12    20    22   ar
    13    22    23   ar
    14    10    11    1
    15    11     1    1
    16     1     2   ar
    17     2     3   ar
    18     3     4   ar
    19     4    24    1
    20    24    25    2
    21    25    26    1
    22    26    27    2
    23    26    28   am
    24    28    30    1
    25    30    31   ar
    26    31    32   ar
    27    32    33   ar
    28    33    34   ar
    29    34    35   ar
    30    35    36    1
    31     4     5   ar
    32     5     6   ar
    33    11    12    1
    34    12     8    1
    35    23    17   ar
    36     6     1   ar
    37    35    30   ar
    38    15    16    1
    39    28    29    1
    40    36    37    1
    41    36    38    1
@<TRIPOS>MOLECULE
*****
 38 41 0 0 0
SMALL
GASTEIGER

@<TRIPOS>ATOM
      1 C           1.9885    0.6095   28.3310 C.ar    1  UNL1       -0.0206
      2 C           0.6341    0.0613   28.6705 C.ar    1  UNL1       -0.0042
      3 C          -0.6014    0.7874   28.2274 C.ar    1  UNL1       -0.0003
      4 C          -0.4827    2.0616   27.4449 C.ar    1  UNL1        0.0001
      5 C           0.8717    2.6097   27.1054 C.ar    1  UNL1       -0.0003
      6 C           2.1072    1.8837   27.5485 C.ar    1  UNL1       -0.0042
      7 C           6.0495   -2.7618   28.4833 C.3     1  UNL1        0.0897
      8 N           5.0908   -1.6661   28.8440 N.3     1  UNL1       -0.2708
      9 C           5.1602   -0.8011   30.0677 C.3     1  UNL1        0.0816
     10 C           4.0065    0.1566   30.0243 C.3     1  UNL1        0.0981
     11 C           3.2240   -0.1165   28.7740 C.3     1  UNL1        0.0483
     12 C           3.8941   -1.2429   28.0446 C.3     1  UNL1        0.0770
     13 C           3.6907    1.2035   31.0511 C.2     1  UNL1        0.2274
     14 O           4.5360    2.4390   31.1470 O.2     1  UNL1       -0.2747
     15 N           2.5297    1.0150   31.9819 N.am    1  UNL1       -0.2839
     16 H           1.9749    0.2042   31.9190 H       1  UNL1        0.1549
     17 C           2.2140    2.0620   33.0087 C.ar    1  UNL1        0.0504
     18 C           1.3264    3.2177   32.6531 C.ar    1  UNL1        0.0155
     19 C           1.0107    4.2646   33.6798 C.ar    1  UNL1        0.0127
     20 C           1.5825    4.1558   35.0623 C.ar    1  UNL1        0.0578
     21 CL          1.2667    5.2027   36.0891 Cl      1  UNL1       -0.0822
     22 C           2.4701    3.0001   35.4179 C.ar    1  UNL1        0.0127
     23 C           2.7858    1.9532   34.3912 C.ar    1  UNL1        0.0155
     24 C          -1.7182    2.7876   27.0019 C.2     1  UNL1        0.0047
     25 C          -1.8234    3.3001   25.5961 C.2     1  UNL1        0.0580
     26 C          -3.0590    4.0261   25.1530 C.2     1  UNL1        0.2497
     27 O          -2.9794    5.0358   24.0466 O.2     1  UNL1       -0.2698
     28 N          -4.3742    3.7424   25.8163 N.am    1  UNL1       -0.2794
     29 H          -4.4265    3.0797   26.5425 H       1  UNL1        0.1552
     30 C          -5.6097    4.4685   25.3731 C.ar    1  UNL1        0.0636
     31 C          -6.2475    4.1301   24.0584 C.ar    1  UNL1        0.0159
     32 C          -7.4830    4.8562   23.6153 C.ar    1  UNL1        0.0014
     33 C          -8.0806    5.9206   24.4870 C.ar    1  UNL1        0.0013
     34 C          -7.4428    6.2590   25.8018 C.ar    1  UNL1        0.0153
     35 C          -6.2073    5.5329   26.2449 C.ar    1  UNL1        0.0552
     36 N          -5.5695    5.8712   27.5596 N.pl3   1  UNL1       -0.3560
     37 H          -5.9617    6.5698   28.1318 H       1  UNL1        0.1424
     38 H          -4.7586    5.3946   27.8505 H       1  UNL1        0.1424
@<TRIPOS>BOND
     1     7     8    1
     2     8     9    1
     3     9    10    1
     4    10    13    1
     5    13    14    2
     6    13    15   am
     7    15    17    1
     8    17    18   ar
     9    18    19   ar
    10    19    20   ar
    11    20    21    1
    12    20    22   ar
    13    22    23   ar
    14    10    11    1
    15    11     1    1
    16     1     2   ar
    17     2     3   ar
    18     3     4   ar
    19     4    24    1
    20    24    25    2
    21    25    26    1
    22    26    27    2
    23    26    28   am
    24    28    30    1
    25    30    31   ar
    26    31    32   ar
    27    32    33   ar
    28    33    34   ar
    29    34    35   ar
    30    35    36    1
    31     4     5   ar
    32     5     6   ar
    33    11    12    1
    34    12     8    1
    35    23    17   ar
    36     6     1   ar
    37    35    30   ar
    38    15    16    1
    39    28    29    1
    40    36    37    1
    41    36    38    1
@<TRIPOS>MOLECULE
*****
 38 41 0 0 0
SMALL
GASTEIGER

@<TRIPOS>ATOM
      1 C          -2.3273    3.5654   23.0224 C.ar    1  UNL1       -0.0206
      2 C          -3.2203    3.6802   24.2221 C.ar    1  UNL1       -0.0042
      3 C          -2.6896    3.3523   25.5862 C.ar    1  UNL1       -0.0003
      4 C          -1.2658    2.9096   25.7507 C.ar    1  UNL1        0.0001
      5 C          -0.3728    2.7948   24.5510 C.ar    1  UNL1       -0.0003
      6 C          -0.9035    3.1227   23.1869 C.ar    1  UNL1       -0.0042
      7 C          -5.4367    5.3176   19.1311 C.3     1  UNL1        0.0897
      8 N          -4.2871    4.6987   19.8696 N.3     1  UNL1       -0.2708
      9 C          -3.0615    4.0970   19.2483 C.3     1  UNL1        0.0816
     10 C          -2.1782    3.5992   20.3538 C.3     1  UNL1        0.0981
     11 C          -2.8579    3.8933   21.6583 C.3     1  UNL1        0.0483
     12 C          -4.1612    4.5728   21.3591 C.3     1  UNL1        0.0770
     13 C          -0.8487    2.9257   20.1845 C.2     1  UNL1        0.2274
     14 O           0.4048    3.7468   20.1165 O.2     1  UNL1       -0.2747
     15 N          -0.7726    1.4311   20.0832 N.am    1  UNL1       -0.2839
     16 H          -1.5953    0.8922   20.1278 H       1  UNL1        0.1549
     17 C           0.5570    0.7575   19.9138 C.ar    1  UNL1        0.0504
     18 C           1.2491    0.1551   21.1004 C.ar    1  UNL1        0.0155
     19 C           2.5786   -0.5184   20.9310 C.ar    1  UNL1        0.0127
     20 C           3.2160   -0.5895   19.5751 C.ar    1  UNL1        0.0578
     21 CL          4.5456   -1.2631   19.4057 Cl      1  UNL1       -0.0822
     22 C           2.5239    0.0129   18.3885 C.ar    1  UNL1        0.0127
     23 C           1.1944    0.6864   18.5579 C.ar    1  UNL1        0.0155
     24 C          -0.7352    2.5817   27.1149 C.2     1  UNL1        0.0047
     25 C          -0.0926    1.2505   27.3695 C.2     1  UNL1        0.0580
     26 C           0.4381    0.9225   28.7336 C.2     1  UNL1        0.2497
     27 O          -0.2576   -0.0993   29.5833 O.2     1  UNL1       -0.2698
     28 N           1.6644    1.6163   29.2482 N.am    1  UNL1       -0.2794
     29 H           2.1211    2.2870   28.6906 H       1  UNL1        0.1552
     30 C           2.1950    1.2883   30.6123 C.ar    1  UNL1        0.0636
     31 C           1.8053    2.1301   31.7911 C.ar    1  UNL1        0.0159
     32 C           2.3360    1.8020   33.1552 C.ar    1  UNL1        0.0014
     33 C           3.2562    0.6321   33.3405 C.ar    1  UNL1        0.0013
     34 C           3.6459   -0.2097   32.1617 C.ar    1  UNL1        0.0153
     35 C           3.1153    0.1184   30.7976 C.ar    1  UNL1        0.0552
     36 N           3.5049   -0.7235   29.6189 N.pl3   1  UNL1       -0.3560
     37 H           4.1090   -1.4913   29.7405 H       1  UNL1        0.1424
     38 H           3.1567   -0.5081   28.7236 H       1  UNL1        0.1424
@<TRIPOS>BOND
     1     7     8    1
     2     8     9    1
     3     9    10    1
     4    10    13    1
     5    13    14    2
     6    13    15   am
     7    15    17    1
     8    17    18   ar
     9    18    19   ar
    10    19    20   ar
    11    20    21    1
    12    20    22   ar
    13    22    23   ar
    14    10    11    1
    15    11     1    1
    16     1     2   ar
    17     2     3   ar
    18     3     4   ar
    19     4    24    1
    20    24    25    2
    21    25    26    1
    22    26    27    2
    23    26    28   am
    24    28    30    1
    25    30    31   ar
    26    31    32   ar
    27    32    33   ar
    28    33    34   ar
    29    34    35   ar
    30    35    36    1
    31     4     5   ar
    32     5     6   ar
    33    11    12    1
    34    12     8    1
    35    23    17   ar
    36     6     1   ar
    37    35    30   ar
    38    15    16    1
    39    28    29    1
    40    36    37    1
    41    36    38    1
@<TRIPOS>MOLECULE
*****
 38 41 0 0 0
SMALL
GASTEIGER

@<TRIPOS>ATOM
      1 C           3.4315   -0.4583   22.2024 C.ar    1  UNL1       -0.0206
      2 C           4.0603   -1.7068   22.7462 C.ar    1  UNL1       -0.0042
      3 C           4.1213   -1.9317   24.2280 C.ar    1  UNL1       -0.0003
      4 C           3.5535   -0.9081   25.1660 C.ar    1  UNL1        0.0001
      5 C           2.9247    0.3405   24.6222 C.ar    1  UNL1       -0.0003
      6 C           2.8638    0.5654   23.1404 C.ar    1  UNL1       -0.0042
      7 C           4.7183   -0.3480   17.0825 C.3     1  UNL1        0.0897
      8 N           3.9619   -0.1826   18.3673 N.3     1  UNL1       -0.2708
      9 C           2.5910    0.4086   18.5136 C.3     1  UNL1        0.0816
     10 C           2.2256    0.3772   19.9680 C.3     1  UNL1        0.0981
     11 C           3.3705   -0.2333   20.7207 C.3     1  UNL1        0.0483
     12 C           4.4436   -0.5793   19.7314 C.3     1  UNL1        0.0770
     13 C           0.9407    0.8699   20.5650 C.2     1  UNL1        0.2274
     14 O          -0.1646   -0.0976   20.8690 O.2     1  UNL1       -0.2747
     15 N           0.7611    2.3300   20.8580 N.am    1  UNL1       -0.2839
     16 H           1.4865    2.9649   20.6585 H       1  UNL1        0.1549
     17 C          -0.5238    2.8226   21.4550 C.ar    1  UNL1        0.0504
     18 C          -1.7255    3.0305   20.5817 C.ar    1  UNL1        0.0155
     19 C          -3.0103    3.5232   21.1787 C.ar    1  UNL1        0.0127
     20 C          -3.0935    3.8080   22.6490 C.ar    1  UNL1        0.0578
     21 CL         -4.3784    4.3007   23.2460 Cl      1  UNL1       -0.0822
     22 C          -1.8918    3.6001   23.5224 C.ar    1  UNL1        0.0127
     23 C          -0.6070    3.1074   22.9254 C.ar    1  UNL1        0.0155
     24 C           3.6145   -1.1330   26.6478 C.2     1  UNL1        0.0047
     25 C           2.8680   -0.2215   27.5761 C.2     1  UNL1        0.0580
     26 C           2.9290   -0.4464   29.0579 C.2     1  UNL1        0.2497
     27 O           1.6619   -0.5973   29.8463 O.2     1  UNL1       -0.2698
     28 N           4.2570   -0.5204   29.7513 N.am    1  UNL1       -0.2794
     29 H           5.0887   -0.4214   29.2339 H       1  UNL1        0.1552
     30 C           4.3179   -0.7453   31.2331 C.ar    1  UNL1        0.0636
     31 C           4.8512   -2.0387   31.7741 C.ar    1  UNL1        0.0159
     32 C           4.9120   -2.2635   33.2559 C.ar    1  UNL1        0.0014
     33 C           4.4396   -1.1949   34.1967 C.ar    1  UNL1        0.0013
     34 C           3.9063    0.0985   33.6556 C.ar    1  UNL1        0.0153
     35 C           3.8455    0.3233   32.1738 C.ar    1  UNL1        0.0552
     36 N           3.3122    1.6167   31.6327 N.pl3   1  UNL1       -0.3560
     37 H           3.0022    2.3180   32.2502 H       1  UNL1        0.1424
     38 H           3.2723    1.7643   30.6602 H       1  UNL1        0.1424
@<TRIPOS>BOND
     1     7     8    1
     2     8     9    1
     3     9    10    1
     4    10    13    1
     5    13    14    2
     6    13    15   am
     7    15    17    1
     8    17    18   ar
     9    18    19   ar
    10    19    20   ar
    11    20    21    1
    12    20    22   ar
    13    22    23   ar
    14    10    11    1
    15    11     1    1
    16     1     2   ar
    17     2     3   ar
    18     3     4   ar
    19     4    24    1
    20    24    25    2
    21    25    26    1
    22    26    27    2
    23    26    28   am
    24    28    30    1
    25    30    31   ar
    26    31    32   ar
    27    32    33   ar
    28    33    34   ar
    29    34    35   ar
    30    35    36    1
    31     4     5   ar
    32     5     6   ar
    33    11    12    1
    34    12     8    1
    35    23    17   ar
    36     6     1   ar
    37    35    30   ar
    38    15    16    1
    39    28    29    1
    40    36    37    1
    41    36    38    1
