@<TRIPOS>MOLECULE
*****
 31 33 0 0 0
SMALL
GASTEIGER

@<TRIPOS>ATOM
      1 C          -8.9827  -19.0624   20.5520 C.2     1  UNL1        0.2618
      2 O         -10.0833  -20.0503   20.3021 O.2     1  UNL1       -0.2686
      3 N          -9.3125  -17.6700   21.0019 N.am    1  UNL1       -0.2946
      4 H          -8.5901  -17.0215   21.1659 H       1  UNL1        0.1501
      5 C          -5.1350  -19.3790   20.1512 C.ar    1  UNL1        0.0568
      6 C          -5.5665  -20.7996   19.9375 C.ar    1  UNL1        0.0186
      7 C          -7.0604  -20.8539   20.0617 C.ar    1  UNL1        0.0231
      8 C          -7.5521  -19.4669   20.3521 C.ar    1  UNL1        0.1107
      9 N          -6.3622  -18.5553   20.4074 N.ar    1  UNL1       -0.3496
     10 H          -6.3829  -17.5865   20.5813 H       1  UNL1        0.1661
     11 C           0.5089  -17.3478   20.0065 C.3     1  UNL1        0.0334
     12 C          -0.9021  -17.8556   20.0426 C.ar    1  UNL1        0.0056
     13 C          -1.5228  -18.2532   21.3490 C.ar    1  UNL1       -0.0020
     14 C          -2.9338  -18.7610   21.3852 C.ar    1  UNL1        0.0012
     15 C          -3.7240  -18.8712   20.1150 C.ar    1  UNL1        0.0178
     16 C          -3.1033  -18.4736   18.8087 C.ar    1  UNL1        0.0307
     17 C          -1.6923  -17.9658   18.7725 C.ar    1  UNL1        0.1362
     18 F          -1.0716  -17.5681   17.4661 F       1  UNL1       -0.2045
     19 C         -10.7430  -17.2656   21.2018 C.3     1  UNL1        0.1341
     20 C         -11.4865  -17.7176   22.4237 C.ar    1  UNL1        0.1072
     21 N         -10.8845  -18.3802   23.6272 N.ar    1  UNL1       -0.2397
     22 C         -11.9885  -18.6585   24.6039 C.ar    1  UNL1        0.1037
     23 C         -13.2727  -18.1680   24.0039 C.ar    1  UNL1        0.0568
     24 S         -12.9625  -17.5865   22.6565 S.2     1  UNL1       -0.0710
     25 C         -14.6291  -18.2454   24.6397 C.3     1  UNL1        0.1717
     26 O         -14.7729  -18.7662   26.0390 O.3     1  UNL1       -0.3767
     27 H         -14.5295  -19.7049   26.0612 H       1  UNL1        0.2109
     28 C         -11.4301  -16.4090   20.1799 C.3     1  UNL1        0.0917
     29 N         -10.6887  -15.2804   19.5266 N.3     1  UNL1       -0.3194
     30 H         -10.4678  -14.5698   20.2242 H       1  UNL1        0.1189
     31 H         -11.2697  -14.8701   18.7955 H       1  UNL1        0.1189
@<TRIPOS>BOND
     1    11    12    1
     2    12    13   ar
     3    13    14   ar
     4    14    15   ar
     5    15     5    1
     6     5     6   ar
     7     6     7   ar
     8     7     8   ar
     9     8     1    1
    10     1     2    2
    11     1     3   am
    12     3    19    1
    13    19    28    1
    14    28    29    1
    15    19    20    1
    16    20    21   ar
    17    21    22   ar
    18    22    23   ar
    19    23    25    1
    20    25    26    1
    21    23    24   ar
    22     8     9   ar
    23    15    16   ar
    24    16    17   ar
    25    17    18    1
    26    17    12   ar
    27     9     5   ar
    28    24    20   ar
    29     3     4    1
    30    29    30    1
    31    29    31    1
    32    26    27    1
    33     9    10    1
@<TRIPOS>MOLECULE
*****
 31 33 0 0 0
SMALL
GASTEIGER

@<TRIPOS>ATOM
      1 C          -8.3258  -19.4301   21.7263 C.2     1  UNL1        0.2618
      2 O          -9.5167  -20.0034   21.0171 O.2     1  UNL1       -0.2686
      3 N          -8.5181  -18.5698   22.9400 N.am    1  UNL1       -0.2946
      4 H          -7.7364  -18.1935   23.4055 H       1  UNL1        0.1501
      5 C          -4.6011  -19.4648   20.6349 C.ar    1  UNL1        0.0568
      6 C          -5.0270  -20.8524   20.2565 C.ar    1  UNL1        0.0186
      7 C          -6.4741  -21.0083   20.6192 C.ar    1  UNL1        0.0231
      8 C          -6.9426  -19.7171   21.2219 C.ar    1  UNL1        0.1107
      9 N          -5.7850  -18.7632   21.2316 N.ar    1  UNL1       -0.3496
     10 H          -5.7997  -17.8388   21.5701 H       1  UNL1        0.1661
     11 C           0.8763  -17.1309   19.8924 C.3     1  UNL1        0.0334
     12 C          -0.4931  -17.7144   20.0780 C.ar    1  UNL1        0.0056
     13 C          -0.9943  -18.0276   21.4567 C.ar    1  UNL1       -0.0020
     14 C          -2.3637  -18.6110   21.6423 C.ar    1  UNL1        0.0012
     15 C          -3.2318  -18.8813   20.4493 C.ar    1  UNL1        0.0178
     16 C          -2.7305  -18.5682   19.0707 C.ar    1  UNL1        0.0307
     17 C          -1.3612  -17.9847   18.8850 C.ar    1  UNL1        0.1362
     18 F          -0.8600  -17.6715   17.5063 F       1  UNL1       -0.2045
     19 C          -9.9012  -18.2829   23.4443 C.3     1  UNL1        0.1341
     20 C         -10.9356  -17.7176   22.5167 C.ar    1  UNL1        0.1072
     21 N         -12.4140  -17.9598   22.5918 N.ar    1  UNL1       -0.2397
     22 C         -13.0652  -17.2027   21.4726 C.ar    1  UNL1        0.1037
     23 C         -11.9893  -16.4927   20.7056 C.ar    1  UNL1        0.0568
     24 S         -10.6731  -16.8108   21.3509 S.2     1  UNL1       -0.0710
     25 C         -12.1937  -15.6180   19.5043 C.3     1  UNL1        0.1717
     26 O         -11.0103  -15.0279   18.7962 O.3     1  UNL1       -0.3767
     27 H         -10.5643  -14.3969   19.3824 H       1  UNL1        0.2109
     28 C         -10.2501  -18.5613   24.8764 C.3     1  UNL1        0.0917
     29 N         -10.2481  -19.9713   25.3884 N.3     1  UNL1       -0.3194
     30 H         -10.9868  -20.5017   24.9265 H       1  UNL1        0.1189
     31 H         -10.4108  -19.9676   26.3953 H       1  UNL1        0.1189
@<TRIPOS>BOND
     1    11    12    1
     2    12    13   ar
     3    13    14   ar
     4    14    15   ar
     5    15     5    1
     6     5     6   ar
     7     6     7   ar
     8     7     8   ar
     9     8     1    1
    10     1     2    2
    11     1     3   am
    12     3    19    1
    13    19    28    1
    14    28    29    1
    15    19    20    1
    16    20    21   ar
    17    21    22   ar
    18    22    23   ar
    19    23    25    1
    20    25    26    1
    21    23    24   ar
    22     8     9   ar
    23    15    16   ar
    24    16    17   ar
    25    17    18    1
    26    17    12   ar
    27     9     5   ar
    28    24    20   ar
    29     3     4    1
    30    29    30    1
    31    29    31    1
    32    26    27    1
    33     9    10    1
@<TRIPOS>MOLECULE
*****
 31 33 0 0 0
SMALL
GASTEIGER

@<TRIPOS>ATOM
      1 C           7.3778   -4.5255   24.4527 C.2     1  UNL1        0.2618
      2 O           8.8456   -4.4726   24.7569 O.2     1  UNL1       -0.2686
      3 N           6.4268   -5.1227   25.4472 N.am    1  UNL1       -0.2946
      4 H           5.4633   -5.1575   25.2475 H       1  UNL1        0.1501
      5 C           5.4920   -2.8240   21.5177 C.ar    1  UNL1        0.0568
      6 C           6.6392   -3.4636   20.7932 C.ar    1  UNL1        0.0186
      7 C           7.4853   -4.1788   21.8044 C.ar    1  UNL1        0.0231
      8 C           6.8610   -3.9813   23.1540 C.ar    1  UNL1        0.1107
      9 N           5.6291   -3.1440   22.9767 N.ar    1  UNL1       -0.3496
     10 H           5.0178   -2.8552   23.6924 H       1  UNL1        0.1661
     11 C           1.1223    0.4408   19.0184 C.3     1  UNL1        0.0334
     12 C           2.2147   -0.3754   19.6432 C.ar    1  UNL1        0.0056
     13 C           2.2230   -0.6084   21.1250 C.ar    1  UNL1       -0.0020
     14 C           3.3154   -1.4246   21.7498 C.ar    1  UNL1        0.0012
     15 C           4.3996   -2.0078   20.8929 C.ar    1  UNL1        0.0178
     16 C           4.3913   -1.7749   19.4111 C.ar    1  UNL1        0.0307
     17 C           3.2988   -0.9587   18.7863 C.ar    1  UNL1        0.1362
     18 F           3.2906   -0.7258   17.3045 F       1  UNL1       -0.2045
     19 C           6.9436   -5.6669   26.7458 C.3     1  UNL1        0.1341
     20 C           6.8205   -4.8552   28.0012 C.ar    1  UNL1        0.1072
     21 N           6.5420   -3.3832   28.0757 N.ar    1  UNL1       -0.2397
     22 C           6.5036   -2.9913   29.5231 C.ar    1  UNL1        0.1037
     23 C           6.7582   -4.2212   30.3432 C.ar    1  UNL1        0.0568
     24 S           6.9541   -5.3731   29.4027 S.2     1  UNL1       -0.0710
     25 C           6.8082   -4.2875   31.8409 C.3     1  UNL1        0.1717
     26 O           6.4112   -5.5485   32.5495 O.3     1  UNL1       -0.3767
     27 H           5.4653   -5.7130   32.4112 H       1  UNL1        0.2109
     28 C           7.5837   -7.0228   26.7891 C.3     1  UNL1        0.0917
     29 N           6.7558   -8.2509   26.5519 N.3     1  UNL1       -0.3194
     30 H           6.0801   -8.3569   27.3086 H       1  UNL1        0.1189
     31 H           7.3632   -9.0698   26.5213 H       1  UNL1        0.1189
@<TRIPOS>BOND
     1    11    12    1
     2    12    13   ar
     3    13    14   ar
     4    14    15   ar
     5    15     5    1
     6     5     6   ar
     7     6     7   ar
     8     7     8   ar
     9     8     1    1
    10     1     2    2
    11     1     3   am
    12     3    19    1
    13    19    28    1
    14    28    29    1
    15    19    20    1
    16    20    21   ar
    17    21    22   ar
    18    22    23   ar
    19    23    25    1
    20    25    26    1
    21    23    24   ar
    22     8     9   ar
    23    15    16   ar
    24    16    17   ar
    25    17    18    1
    26    17    12   ar
    27     9     5   ar
    28    24    20   ar
    29     3     4    1
    30    29    30    1
    31    29    31    1
    32    26    27    1
    33     9    10    1
@<TRIPOS>MOLECULE
*****
 31 33 0 0 0
SMALL
GASTEIGER

@<TRIPOS>ATOM
      1 C          -2.5192    3.4903   20.5063 C.2     1  UNL1        0.2618
      2 O          -2.6274    4.9863   20.4911 O.2     1  UNL1       -0.2686
      3 N          -3.7107    2.6557   20.8723 N.am    1  UNL1       -0.2946
      4 H          -3.6396    1.6739   20.8823 H       1  UNL1        0.1501
      5 C           0.7003    1.3444   20.1972 C.ar    1  UNL1        0.0568
      6 C           0.8610    2.2774   19.0338 C.ar    1  UNL1        0.0186
      7 C          -0.3254    3.1948   19.0079 C.ar    1  UNL1        0.0231
      8 C          -1.2194    2.8288   20.1554 C.ar    1  UNL1        0.1107
      9 N          -0.5855    1.6852   20.8904 N.ar    1  UNL1       -0.3496
     10 H          -0.9495    1.2369   21.6878 H       1  UNL1        0.1661
     11 C           4.5283   -2.9899   21.7973 C.3     1  UNL1        0.0334
     12 C           3.5713   -1.9064   21.3973 C.ar    1  UNL1        0.0056
     13 C           3.1469   -0.8734   22.3986 C.ar    1  UNL1       -0.0020
     14 C           2.1899    0.2102   21.9986 C.ar    1  UNL1        0.0012
     15 C           1.6573    0.2608   20.5972 C.ar    1  UNL1        0.0178
     16 C           2.0818   -0.7722   19.5959 C.ar    1  UNL1        0.0307
     17 C           3.0388   -1.8558   19.9959 C.ar    1  UNL1        0.1362
     18 F           3.4632   -2.8888   18.9945 F       1  UNL1       -0.2045
     19 C          -5.0103    3.3172   21.2232 C.3     1  UNL1        0.1341
     20 C          -5.2959    3.7032   22.6443 C.ar    1  UNL1        0.1072
     21 N          -6.5739    4.2984   23.1565 N.ar    1  UNL1       -0.2397
     22 C          -6.4214    4.5247   24.6315 C.ar    1  UNL1        0.1037
     23 C          -5.0491    4.0694   25.0308 C.ar    1  UNL1        0.0568
     24 S          -4.3535    3.5617   23.8027 S.2     1  UNL1       -0.0710
     25 C          -4.4735    4.1140   26.4152 C.3     1  UNL1        0.1717
     26 O          -5.0935    4.9972   27.4572 O.3     1  UNL1       -0.3767
     27 H          -4.9785    5.9263   27.2036 H       1  UNL1        0.2109
     28 C          -6.0245    3.5928   20.1529 C.3     1  UNL1        0.0917
     29 N          -7.0079    4.7129   20.3220 N.3     1  UNL1       -0.3194
     30 H          -7.6334    4.5017   21.0995 H       1  UNL1        0.1189
     31 H          -7.5529    4.8190   19.4664 H       1  UNL1        0.1189
@<TRIPOS>BOND
     1    11    12    1
     2    12    13   ar
     3    13    14   ar
     4    14    15   ar
     5    15     5    1
     6     5     6   ar
     7     6     7   ar
     8     7     8   ar
     9     8     1    1
    10     1     2    2
    11     1     3   am
    12     3    19    1
    13    19    28    1
    14    28    29    1
    15    19    20    1
    16    20    21   ar
    17    21    22   ar
    18    22    23   ar
    19    23    25    1
    20    25    26    1
    21    23    24   ar
    22     8     9   ar
    23    15    16   ar
    24    16    17   ar
    25    17    18    1
    26    17    12   ar
    27     9     5   ar
    28    24    20   ar
    29     3     4    1
    30    29    30    1
    31    29    31    1
    32    26    27    1
    33     9    10    1
@<TRIPOS>MOLECULE
*****
 31 33 0 0 0
SMALL
GASTEIGER

@<TRIPOS>ATOM
      1 C           7.4777   -4.4208   27.6208 C.2     1  UNL1        0.2618
      2 O           8.9135   -4.5368   28.0391 O.2     1  UNL1       -0.2686
      3 N           6.3947   -4.3880   28.6581 N.am    1  UNL1       -0.2946
      4 H           5.4523   -4.3119   28.3836 H       1  UNL1        0.1501
      5 C           6.0368   -3.7201   24.0855 C.ar    1  UNL1        0.0568
      6 C           7.1273   -4.6991   23.7653 C.ar    1  UNL1        0.0186
      7 C           7.7998   -5.0808   25.0507 C.ar    1  UNL1        0.0231
      8 C           7.1250   -4.3377   26.1653 C.ar    1  UNL1        0.1107
      9 N           6.0354   -3.4967   25.5688 N.ar    1  UNL1       -0.3496
     10 H           5.4263   -2.9025   26.0639 H       1  UNL1        0.1661
     11 C           2.3315   -1.1493   20.1282 C.3     1  UNL1        0.0334
     12 C           3.2578   -1.7920   21.1175 C.ar    1  UNL1        0.0056
     13 C           3.3578   -1.2505   22.5128 C.ar    1  UNL1       -0.0020
     14 C           4.2841   -1.8933   23.5021 C.ar    1  UNL1        0.0012
     15 C           5.1105   -3.0774   23.0962 C.ar    1  UNL1        0.0178
     16 C           5.0105   -3.6189   21.7009 C.ar    1  UNL1        0.0307
     17 C           4.0842   -2.9761   20.7116 C.ar    1  UNL1        0.1362
     18 F           3.9842   -3.5177   19.3163 F       1  UNL1       -0.2045
     19 C           6.7475   -4.4711   30.1136 C.3     1  UNL1        0.1341
     20 C           6.8145   -3.2222   30.9417 C.ar    1  UNL1        0.1072
     21 N           7.6077   -3.0413   32.2018 N.ar    1  UNL1       -0.2397
     22 C           7.3835   -1.6422   32.6939 C.ar    1  UNL1        0.1037
     23 C           6.4516   -0.9584   31.7379 C.ar    1  UNL1        0.0568
     24 S           6.0999   -1.9348   30.6550 S.2     1  UNL1       -0.0710
     25 C           5.9580    0.4540   31.8459 C.3     1  UNL1        0.1717
     26 O           5.2144    0.8970   33.0709 O.3     1  UNL1       -0.3767
     27 H           4.3686    0.4250   33.1241 H       1  UNL1        0.2109
     28 C           7.0333   -5.8033   30.7411 C.3     1  UNL1        0.0917
     29 N           6.5846   -6.0829   32.1449 N.3     1  UNL1       -0.3194
     30 H           7.0916   -5.4776   32.7908 H       1  UNL1        0.1189
     31 H           6.7733   -7.0587   32.3742 H       1  UNL1        0.1189
@<TRIPOS>BOND
     1    11    12    1
     2    12    13   ar
     3    13    14   ar
     4    14    15   ar
     5    15     5    1
     6     5     6   ar
     7     6     7   ar
     8     7     8   ar
     9     8     1    1
    10     1     2    2
    11     1     3   am
    12     3    19    1
    13    19    28    1
    14    28    29    1
    15    19    20    1
    16    20    21   ar
    17    21    22   ar
    18    22    23   ar
    19    23    25    1
    20    25    26    1
    21    23    24   ar
    22     8     9   ar
    23    15    16   ar
    24    16    17   ar
    25    17    18    1
    26    17    12   ar
    27     9     5   ar
    28    24    20   ar
    29     3     4    1
    30    29    30    1
    31    29    31    1
    32    26    27    1
    33     9    10    1
@<TRIPOS>MOLECULE
*****
 31 33 0 0 0
SMALL
GASTEIGER

@<TRIPOS>ATOM
      1 C          -8.0291  -19.0279   22.7568 C.2     1  UNL1        0.2618
      2 O          -8.9451  -20.1377   23.1803 O.2     1  UNL1       -0.2686
      3 N          -8.3130  -17.6177   23.1819 N.am    1  UNL1       -0.2946
      4 H          -7.7118  -16.8893   22.9040 H       1  UNL1        0.1501
      5 C          -4.6472  -19.1701   20.8573 C.ar    1  UNL1        0.0568
      6 C          -5.3182  -20.4112   20.3480 C.ar    1  UNL1        0.0186
      7 C          -6.6668  -20.5090   20.9975 C.ar    1  UNL1        0.0231
      8 C          -6.8292  -19.3284   21.9083 C.ar    1  UNL1        0.1107
      9 N          -5.5811  -18.5009   21.8217 N.ar    1  UNL1       -0.3496
     10 H          -5.4057  -17.6653   22.3117 H       1  UNL1        0.1661
     11 C           0.8133  -17.2244   19.3092 C.3     1  UNL1        0.0334
     12 C          -0.5519  -17.7108   19.6962 C.ar    1  UNL1        0.0056
     13 C          -0.8492  -18.0511   21.1265 C.ar    1  UNL1       -0.0020
     14 C          -2.2143  -18.5376   21.5135 C.ar    1  UNL1        0.0012
     15 C          -3.2821  -18.6837   20.4703 C.ar    1  UNL1        0.0178
     16 C          -2.9848  -18.3434   19.0400 C.ar    1  UNL1        0.0307
     17 C          -1.6197  -17.8569   18.6530 C.ar    1  UNL1        0.1362
     18 F          -1.3224  -17.5166   17.2226 F       1  UNL1       -0.2045
     19 C          -9.5129  -17.3173   24.0304 C.3     1  UNL1        0.1341
     20 C         -10.8922  -17.5401   23.4846 C.ar    1  UNL1        0.1072
     21 N         -11.2981  -17.4357   22.0444 N.ar    1  UNL1       -0.2397
     22 C         -12.7645  -17.7375   21.9529 C.ar    1  UNL1        0.1037
     23 C         -13.2650  -18.0285   23.3367 C.ar    1  UNL1        0.0568
     24 S         -12.1079  -17.9065   24.2833 S.2     1  UNL1       -0.0710
     25 C         -14.6751  -18.3798   23.7086 C.3     1  UNL1        0.1717
     26 O         -15.0732  -18.4555   25.1528 O.3     1  UNL1       -0.3767
     27 H         -14.6050  -19.1903   25.5792 H       1  UNL1        0.2109
     28 C          -9.3335  -16.7941   25.4247 C.3     1  UNL1        0.0917
     29 N          -8.4356  -15.6187   25.6749 N.3     1  UNL1       -0.3194
     30 H          -7.4715  -15.8764   25.4639 H       1  UNL1        0.1189
     31 H          -8.5064  -15.3390   26.6533 H       1  UNL1        0.1189
@<TRIPOS>BOND
     1    11    12    1
     2    12    13   ar
     3    13    14   ar
     4    14    15   ar
     5    15     5    1
     6     5     6   ar
     7     6     7   ar
     8     7     8   ar
     9     8     1    1
    10     1     2    2
    11     1     3   am
    12     3    19    1
    13    19    28    1
    14    28    29    1
    15    19    20    1
    16    20    21   ar
    17    21    22   ar
    18    22    23   ar
    19    23    25    1
    20    25    26    1
    21    23    24   ar
    22     8     9   ar
    23    15    16   ar
    24    16    17   ar
    25    17    18    1
    26    17    12   ar
    27     9     5   ar
    28    24    20   ar
    29     3     4    1
    30    29    30    1
    31    29    31    1
    32    26    27    1
    33     9    10    1
@<TRIPOS>MOLECULE
*****
 31 33 0 0 0
SMALL
GASTEIGER

@<TRIPOS>ATOM
      1 C           7.1179   -4.6155   25.0697 C.2     1  UNL1        0.2618
      2 O           8.6115   -4.6621   24.9390 O.2     1  UNL1       -0.2686
      3 N           6.4176   -5.5527   26.0084 N.am    1  UNL1       -0.2946
      4 H           5.4373   -5.5221   26.0942 H       1  UNL1        0.1501
      5 C           5.3142   -2.4660   22.3878 C.ar    1  UNL1        0.0568
      6 C           4.8939   -1.7697   23.6481 C.ar    1  UNL1        0.0186
      7 C           5.5184   -2.4901   24.8062 C.ar    1  UNL1        0.0231
      8 C           6.3247   -3.6317   24.2616 C.ar    1  UNL1        0.1107
      9 N           6.1985   -3.6168   22.7670 N.ar    1  UNL1       -0.3496
     10 H           6.6218   -4.2510   22.1442 H       1  UNL1        0.1661
     11 C           3.7356   -0.9198   16.8095 C.3     1  UNL1        0.0334
     12 C           4.1303   -1.3064   18.2041 C.ar    1  UNL1        0.0056
     13 C           5.4675   -1.9368   18.4576 C.ar    1  UNL1       -0.0020
     14 C           5.8621   -2.3234   19.8522 C.ar    1  UNL1        0.0012
     15 C           4.9196   -2.0795   20.9933 C.ar    1  UNL1        0.0178
     16 C           3.5824   -1.4490   20.7397 C.ar    1  UNL1        0.0307
     17 C           3.1877   -1.0625   19.3452 C.ar    1  UNL1        0.1362
     18 F           1.8504   -0.4320   19.0917 F       1  UNL1       -0.2045
     19 C           7.2108   -6.5364   26.8164 C.3     1  UNL1        0.1341
     20 C           7.5234   -6.2466   28.2546 C.ar    1  UNL1        0.1072
     21 N           8.6345   -6.8576   29.0558 N.ar    1  UNL1       -0.2397
     22 C           8.5775   -6.2836   30.4405 C.ar    1  UNL1        0.1037
     23 C           7.4312   -5.3179   30.4951 C.ar    1  UNL1        0.0568
     24 S           6.7796   -5.2950   29.1442 S.2     1  UNL1       -0.0710
     25 C           7.0101   -4.5158   31.6906 C.3     1  UNL1        0.1717
     26 O           6.1972   -5.1574   32.7758 O.3     1  UNL1       -0.3767
     27 H           5.3249   -5.3984   32.4267 H       1  UNL1        0.2109
     28 C           7.6916   -7.8099   26.1863 C.3     1  UNL1        0.0917
     29 N           8.7829   -7.7724   25.1577 N.3     1  UNL1       -0.3194
     30 H           8.4494   -7.2855   24.3258 H       1  UNL1        0.1189
     31 H           9.0496   -8.7252   24.9101 H       1  UNL1        0.1189
@<TRIPOS>BOND
     1    11    12    1
     2    12    13   ar
     3    13    14   ar
     4    14    15   ar
     5    15     5    1
     6     5     6   ar
     7     6     7   ar
     8     7     8   ar
     9     8     1    1
    10     1     2    2
    11     1     3   am
    12     3    19    1
    13    19    28    1
    14    28    29    1
    15    19    20    1
    16    20    21   ar
    17    21    22   ar
    18    22    23   ar
    19    23    25    1
    20    25    26    1
    21    23    24   ar
    22     8     9   ar
    23    15    16   ar
    24    16    17   ar
    25    17    18    1
    26    17    12   ar
    27     9     5   ar
    28    24    20   ar
    29     3     4    1
    30    29    30    1
    31    29    31    1
    32    26    27    1
    33     9    10    1
@<TRIPOS>MOLECULE
*****
 31 33 0 0 0
SMALL
GASTEIGER

@<TRIPOS>ATOM
      1 C           5.1073   -2.3141   19.7216 C.2     1  UNL1        0.2618
      2 O           4.2221   -3.2618   18.9679 O.2     1  UNL1       -0.2686
      3 N           4.9026   -0.8337   19.5932 N.am    1  UNL1       -0.2946
      4 H           5.4836   -0.2116   20.0879 H       1  UNL1        0.1501
      5 C           7.4004   -4.1773   22.2387 C.ar    1  UNL1        0.0568
      6 C           8.3486   -3.1558   21.6840 C.ar    1  UNL1        0.0186
      7 C           7.6050   -2.3335   20.6736 C.ar    1  UNL1        0.0231
      8 C           6.1973   -2.8468   20.6038 C.ar    1  UNL1        0.1107
      9 N           6.0708   -3.9862   21.5711 N.ar    1  UNL1       -0.3496
     10 H           5.2579   -4.5158   21.7384 H       1  UNL1        0.1661
     11 C           8.6982   -8.3027   26.3976 C.3     1  UNL1        0.0334
     12 C           8.3738   -7.2713   25.3579 C.ar    1  UNL1        0.0056
     13 C           8.8902   -7.4288   23.9585 C.ar    1  UNL1       -0.0020
     14 C           8.5658   -6.3975   22.9188 C.ar    1  UNL1        0.0012
     15 C           7.7249   -5.2086   23.2784 C.ar    1  UNL1        0.0178
     16 C           7.2084   -5.0511   24.6779 C.ar    1  UNL1        0.0307
     17 C           7.5329   -6.0825   25.7176 C.ar    1  UNL1        0.1362
     18 F           7.0163   -5.9249   27.1171 F       1  UNL1       -0.2045
     19 C           3.8127   -0.3011   18.7110 C.3     1  UNL1        0.1341
     20 C           2.5006    0.1143   19.3076 C.ar    1  UNL1        0.1072
     21 N           1.5945   -0.7500   20.1334 N.ar    1  UNL1       -0.2397
     22 C           0.3981    0.0684   20.5193 C.ar    1  UNL1        0.1037
     23 C           0.5648    1.4386   19.9320 C.ar    1  UNL1        0.0568
     24 S           1.8642    1.4669   19.1832 S.2     1  UNL1       -0.0710
     25 C          -0.3987    2.5800   20.0695 C.3     1  UNL1        0.1717
     26 O          -1.7069    2.3764   20.7745 O.3     1  UNL1       -0.3767
     27 H          -2.2564    1.7606   20.2649 H       1  UNL1        0.2109
     28 C           4.0348   -0.1838   17.2322 C.3     1  UNL1        0.0917
     29 N           3.8277   -1.3761   16.3458 N.3     1  UNL1       -0.3194
     30 H           4.5230   -2.0890   16.5669 H       1  UNL1        0.1189
     31 H           3.9267   -1.0957   15.3701 H       1  UNL1        0.1189
@<TRIPOS>BOND
     1    11    12    1
     2    12    13   ar
     3    13    14   ar
     4    14    15   ar
     5    15     5    1
     6     5     6   ar
     7     6     7   ar
     8     7     8   ar
     9     8     1    1
    10     1     2    2
    11     1     3   am
    12     3    19    1
    13    19    28    1
    14    28    29    1
    15    19    20    1
    16    20    21   ar
    17    21    22   ar
    18    22    23   ar
    19    23    25    1
    20    25    26    1
    21    23    24   ar
    22     8     9   ar
    23    15    16   ar
    24    16    17   ar
    25    17    18    1
    26    17    12   ar
    27     9     5   ar
    28    24    20   ar
    29     3     4    1
    30    29    30    1
    31    29    31    1
    32    26    27    1
    33     9    10    1
@<TRIPOS>MOLECULE
*****
 31 33 0 0 0
SMALL
GASTEIGER

@<TRIPOS>ATOM
      1 C           2.5537    0.5816   27.1626 C.2     1  UNL1        0.2618
      2 O           2.5349    2.0788   27.2524 O.2     1  UNL1       -0.2686
      3 N           1.7235   -0.2368   28.1065 N.am    1  UNL1       -0.2946
      4 H           1.7359   -1.2195   28.0476 H       1  UNL1        0.1501
      5 C           4.0975   -1.2827   24.1284 C.ar    1  UNL1        0.0568
      6 C           5.3214   -1.0003   24.9483 C.ar    1  UNL1        0.0186
      7 C           4.8921   -0.2675   26.1848 C.ar    1  UNL1        0.0231
      8 C           3.4028   -0.0971   26.1290 C.ar    1  UNL1        0.1107
      9 N           2.9118   -0.7245   24.8581 N.ar    1  UNL1       -0.3496
     10 H           1.9756   -0.7631   24.5559 H       1  UNL1        0.1661
     11 C           3.9676   -4.1431   18.8557 C.3     1  UNL1        0.0334
     12 C           4.0000   -3.4280   20.1739 C.ar    1  UNL1        0.0056
     13 C           4.5893   -4.1011   21.3779 C.ar    1  UNL1       -0.0020
     14 C           4.6218   -3.3860   22.6961 C.ar    1  UNL1        0.0012
     15 C           4.0650   -1.9978   22.8102 C.ar    1  UNL1        0.0178
     16 C           3.4758   -1.3248   21.6062 C.ar    1  UNL1        0.0307
     17 C           3.4433   -2.0399   20.2880 C.ar    1  UNL1        0.1362
     18 F           2.8540   -1.3668   19.0839 F       1  UNL1       -0.2045
     19 C           0.8745    0.4419   29.1400 C.3     1  UNL1        0.1341
     20 C           1.4634    0.8127   30.4688 C.ar    1  UNL1        0.1072
     21 N           2.5414    0.0642   31.1952 N.ar    1  UNL1       -0.2397
     22 C           2.8220    0.7859   32.4798 C.ar    1  UNL1        0.1037
     23 C           1.9173    1.9805   32.5475 C.ar    1  UNL1        0.0568
     24 S           1.0777    1.9971   31.3046 S.2     1  UNL1       -0.0710
     25 C           1.8620    2.9826   33.6622 C.3     1  UNL1        0.1717
     26 O           2.0519    2.5366   35.0818 O.3     1  UNL1       -0.3767
     27 H           1.3140    1.9634   35.3421 H       1  UNL1        0.2109
     28 C          -0.5636    0.7499   28.8448 C.3     1  UNL1        0.0917
     29 N          -1.6513   -0.0530   29.4947 N.3     1  UNL1       -0.3194
     30 H          -1.6105   -1.0153   29.1590 H       1  UNL1        0.1189
     31 H          -2.5582    0.3507   29.2603 H       1  UNL1        0.1189
@<TRIPOS>BOND
     1    11    12    1
     2    12    13   ar
     3    13    14   ar
     4    14    15   ar
     5    15     5    1
     6     5     6   ar
     7     6     7   ar
     8     7     8   ar
     9     8     1    1
    10     1     2    2
    11     1     3   am
    12     3    19    1
    13    19    28    1
    14    28    29    1
    15    19    20    1
    16    20    21   ar
    17    21    22   ar
    18    22    23   ar
    19    23    25    1
    20    25    26    1
    21    23    24   ar
    22     8     9   ar
    23    15    16   ar
    24    16    17   ar
    25    17    18    1
    26    17    12   ar
    27     9     5   ar
    28    24    20   ar
    29     3     4    1
    30    29    30    1
    31    29    31    1
    32    26    27    1
    33     9    10    1
