@<TRIPOS>MOLECULE
*****
 31 34 0 0 0
SMALL
GASTEIGER

@<TRIPOS>ATOM
      1 C          -4.8915  -17.4027   23.0245 C.3     1  UNL1        0.1707
      2 N          -5.5869  -18.2632   22.0116 N.2     1  UNL1       -0.2641
      3 C          -7.0558  -18.5259   21.8584 C.2     1  UNL1        0.0779
      4 C          -8.1920  -17.9931   22.6801 C.ar    1  UNL1        0.0364
      5 C          -9.5125  -18.5068   22.1878 C.ar    1  UNL1        0.0398
      6 C         -10.7808  -18.0933   22.8735 C.ar    1  UNL1        0.1389
      7 C         -10.7288  -17.1661   24.0514 C.ar    1  UNL1        0.0384
      8 C          -9.4083  -16.6524   24.5437 C.ar    1  UNL1        0.0208
      9 C          -8.1399  -17.0659   23.8580 C.ar    1  UNL1        0.0678
     10 N          -6.9388  -16.4425   24.5051 N.ar    1  UNL1       -0.2791
     11 C          -7.0209  -15.5242   25.6884 C.ar    1  UNL1        0.1473
     12 C          -8.2773  -15.0984   26.3883 C.3     1  UNL1        0.0742
     13 N          -5.6260  -15.1066   26.0486 N.ar    1  UNL1       -0.1333
     14 N          -4.6818  -15.7668   25.0881 N.ar    1  UNL1       -0.1313
     15 C          -5.4931  -16.5924   24.1342 C.ar    1  UNL1        0.1697
     16 C          -7.4392  -19.4428   20.7348 C.ar    1  UNL1        0.0173
     17 C          -6.5981  -20.6466   20.4288 C.ar    1  UNL1        0.0023
     18 C          -6.9815  -21.5635   19.3053 C.ar    1  UNL1        0.0114
     19 C          -8.2060  -21.2765   18.4877 C.ar    1  UNL1        0.0577
     20 CL         -8.5893  -22.1934   17.3641 Cl      1  UNL1       -0.0822
     21 C          -9.0470  -20.0728   18.7936 C.ar    1  UNL1        0.0114
     22 C          -8.6637  -19.1559   19.9172 C.ar    1  UNL1        0.0023
     23 O         -12.1014  -18.6071   22.3812 O.3     1  UNL1       -0.4714
     24 C         -12.9601  -17.7471   21.5020 C.3     1  UNL1        0.2525
     25 C          -3.3968  -17.3448   22.9128 C.3     1  UNL1        0.1170
     26 N          -3.1854  -17.8513   20.3734 N.am    1  UNL1       -0.3043
     27 C          -2.7018  -18.0411   21.7805 C.2     1  UNL1        0.2249
     28 O          -1.5230  -18.9272   22.0554 O.2     1  UNL1       -0.2750
     29 H          -3.9590  -17.2697   20.1930 H       1  UNL1        0.1494
     30 C          -1.7079  -17.7521   18.2386 C.3     1  UNL1        0.0230
     31 C          -2.4903  -18.5476   19.2411 C.3     1  UNL1        0.0894
@<TRIPOS>BOND
     1    30    31    1
     2    31    26    1
     3    26    27   am
     4    27    28    2
     5    27    25    1
     6     1    25    1
     7     1     2    1
     8     2     3    2
     9     3    16    1
    10    16    17   ar
    11    17    18   ar
    12    18    19   ar
    13    19    20    1
    14    19    21   ar
    15    21    22   ar
    16     3     4    1
    17     4     5   ar
    18     5     6   ar
    19     6    23    1
    20    23    24    1
    21     6     7   ar
    22     7     8   ar
    23     8     9   ar
    24     9    10    1
    25    10    11   ar
    26    11    12    1
    27    11    13   ar
    28    13    14   ar
    29    14    15   ar
    30    15     1    1
    31    22    16   ar
    32     9     4   ar
    33    15    10   ar
    34    26    29    1
@<TRIPOS>MOLECULE
*****
 31 34 0 0 0
SMALL
GASTEIGER

@<TRIPOS>ATOM
      1 C           3.4274    2.4314   35.4719 C.3     1  UNL1        0.1707
      2 N           4.0292    1.2239   34.8162 N.2     1  UNL1       -0.2641
      3 C           3.7084    0.6296   33.4769 C.2     1  UNL1        0.0779
      4 C           2.7066    1.0958   32.4625 C.ar    1  UNL1        0.0364
      5 C           2.7023    0.2124   31.2503 C.ar    1  UNL1        0.0398
      6 C           1.7696    0.5047   30.1125 C.ar    1  UNL1        0.1389
      7 C           0.8412    1.6805   30.1869 C.ar    1  UNL1        0.0384
      8 C           0.8455    2.5640   31.3991 C.ar    1  UNL1        0.0208
      9 C           1.7782    2.2716   32.5369 C.ar    1  UNL1        0.0678
     10 N           1.6223    3.2715   33.6441 N.ar    1  UNL1       -0.2791
     11 C           0.6491    4.4120   33.5965 C.ar    1  UNL1        0.1473
     12 C          -0.2914    4.7221   32.4700 C.3     1  UNL1        0.0742
     13 N           0.7817    5.1880   34.8734 N.ar    1  UNL1       -0.1333
     14 N           1.8367    4.5270   35.7100 N.ar    1  UNL1       -0.1313
     15 C           2.3562    3.3427   34.9503 C.ar    1  UNL1        0.1697
     16 C           4.4931   -0.5927   33.1024 C.ar    1  UNL1        0.0173
     17 C           4.0418   -1.9455   33.5678 C.ar    1  UNL1        0.0023
     18 C           4.8266   -3.1677   33.1933 C.ar    1  UNL1        0.0114
     19 C           6.0626   -3.0373   32.3535 C.ar    1  UNL1        0.0577
     20 CL          6.8473   -4.2596   31.9791 Cl      1  UNL1       -0.0822
     21 C           6.5139   -1.6847   31.8882 C.ar    1  UNL1        0.0114
     22 C           5.7292   -0.4623   32.2626 C.ar    1  UNL1        0.0023
     23 O           1.7653   -0.3788   28.9002 O.3     1  UNL1       -0.4714
     24 C           3.0485   -0.6703   28.1801 C.3     1  UNL1        0.2525
     25 C           3.9684    2.7726   36.8287 C.3     1  UNL1        0.1170
     26 N           1.7999    2.0907   38.0866 N.am    1  UNL1       -0.3043
     27 C           3.2914    2.2475   38.0599 C.2     1  UNL1        0.2249
     28 O           4.1060    1.8791   39.2645 O.2     1  UNL1       -0.2750
     29 H           1.2652    2.3324   37.2961 H       1  UNL1        0.1494
     30 C           1.1273    0.0934   39.6061 C.3     1  UNL1        0.0230
     31 C           1.1229    1.5655   39.3179 C.3     1  UNL1        0.0894
@<TRIPOS>BOND
     1    30    31    1
     2    31    26    1
     3    26    27   am
     4    27    28    2
     5    27    25    1
     6     1    25    1
     7     1     2    1
     8     2     3    2
     9     3    16    1
    10    16    17   ar
    11    17    18   ar
    12    18    19   ar
    13    19    20    1
    14    19    21   ar
    15    21    22   ar
    16     3     4    1
    17     4     5   ar
    18     5     6   ar
    19     6    23    1
    20    23    24    1
    21     6     7   ar
    22     7     8   ar
    23     8     9   ar
    24     9    10    1
    25    10    11   ar
    26    11    12    1
    27    11    13   ar
    28    13    14   ar
    29    14    15   ar
    30    15     1    1
    31    22    16   ar
    32     9     4   ar
    33    15    10   ar
    34    26    29    1
@<TRIPOS>MOLECULE
*****
 31 34 0 0 0
SMALL
GASTEIGER

@<TRIPOS>ATOM
      1 C         -10.4951  -17.7884   21.1341 C.3     1  UNL1        0.1707
      2 N          -9.7190  -17.2066   22.2783 N.2     1  UNL1       -0.2641
      3 C          -8.3001  -17.4797   22.6806 C.2     1  UNL1        0.0779
      4 C          -7.3066  -18.4019   22.0382 C.ar    1  UNL1        0.0364
      5 C          -5.9917  -18.3793   22.7595 C.ar    1  UNL1        0.0398
      6 C          -4.8570  -19.2337   22.2773 C.ar    1  UNL1        0.1389
      7 C          -5.0373  -20.1106   21.0738 C.ar    1  UNL1        0.0384
      8 C          -6.3523  -20.1332   20.3525 C.ar    1  UNL1        0.0208
      9 C          -7.4870  -19.2789   20.8347 C.ar    1  UNL1        0.0678
     10 N          -8.7052  -19.4502   19.9765 N.ar    1  UNL1       -0.2791
     11 C          -8.7580  -20.3667   18.7901 C.ar    1  UNL1        0.1473
     12 C          -7.6364  -21.2287   18.2914 C.3     1  UNL1        0.0742
     13 N         -10.1294  -20.2698   18.1902 N.ar    1  UNL1       -0.1333
     14 N         -10.9241  -19.2934   19.0058 N.ar    1  UNL1       -0.1313
     15 C         -10.0440  -18.7869   20.1096 C.ar    1  UNL1        0.1697
     16 C          -7.8095  -16.7316   23.8847 C.ar    1  UNL1        0.0173
     17 C          -8.6076  -16.7485   25.1547 C.ar    1  UNL1        0.0023
     18 C          -8.1170  -16.0004   26.3588 C.ar    1  UNL1        0.0114
     19 C          -6.8285  -15.2353   26.2928 C.ar    1  UNL1        0.0577
     20 CL         -6.3380  -14.4872   27.4969 Cl      1  UNL1       -0.0822
     21 C          -6.0305  -15.2184   25.0229 C.ar    1  UNL1        0.0114
     22 C          -6.5210  -15.9664   23.8188 C.ar    1  UNL1        0.0023
     23 O          -3.5420  -19.2111   22.9986 O.3     1  UNL1       -0.4714
     24 C          -2.5522  -18.1191   22.7195 C.3     1  UNL1        0.2525
     25 C         -11.9095  -17.3082   20.9961 C.3     1  UNL1        0.1170
     26 N         -13.3893  -18.1533   22.9571 N.am    1  UNL1       -0.3043
     27 C         -12.7286  -17.0260   22.2205 C.2     1  UNL1        0.2249
     28 O         -12.8869  -15.6164   22.7085 O.2     1  UNL1       -0.2750
     29 H         -13.2854  -19.0784   22.6369 H       1  UNL1        0.1494
     30 C         -13.9051  -18.5819   25.4672 C.3     1  UNL1        0.0230
     31 C         -14.2085  -17.8710   24.1817 C.3     1  UNL1        0.0894
@<TRIPOS>BOND
     1    30    31    1
     2    31    26    1
     3    26    27   am
     4    27    28    2
     5    27    25    1
     6     1    25    1
     7     1     2    1
     8     2     3    2
     9     3    16    1
    10    16    17   ar
    11    17    18   ar
    12    18    19   ar
    13    19    20    1
    14    19    21   ar
    15    21    22   ar
    16     3     4    1
    17     4     5   ar
    18     5     6   ar
    19     6    23    1
    20    23    24    1
    21     6     7   ar
    22     7     8   ar
    23     8     9   ar
    24     9    10    1
    25    10    11   ar
    26    11    12    1
    27    11    13   ar
    28    13    14   ar
    29    14    15   ar
    30    15     1    1
    31    22    16   ar
    32     9     4   ar
    33    15    10   ar
    34    26    29    1
@<TRIPOS>MOLECULE
*****
 31 34 0 0 0
SMALL
GASTEIGER

@<TRIPOS>ATOM
      1 C          -6.2916  -19.9843   20.9600 C.3     1  UNL1        0.1707
      2 N          -7.6328  -19.6070   21.5157 N.2     1  UNL1       -0.2641
      3 C          -7.9628  -18.5450   22.5223 C.2     1  UNL1        0.0779
      4 C          -7.0333  -17.5979   23.2217 C.ar    1  UNL1        0.0364
      5 C          -7.7767  -16.6905   24.1564 C.ar    1  UNL1        0.0398
      6 C          -7.0309  -15.6642   24.9567 C.ar    1  UNL1        0.1389
      7 C          -5.5417  -15.5453   24.8222 C.ar    1  UNL1        0.0384
      8 C          -4.7983  -16.4528   23.8875 C.ar    1  UNL1        0.0208
      9 C          -5.5440  -17.4791   23.0872 C.ar    1  UNL1        0.0678
     10 N          -4.6166  -18.2779   22.2201 N.ar    1  UNL1       -0.2791
     11 C          -3.1332  -18.0594   22.1760 C.ar    1  UNL1        0.1473
     12 C          -2.3683  -17.0401   22.9669 C.3     1  UNL1        0.0742
     13 N          -2.5492  -19.0393   21.2020 N.ar    1  UNL1       -0.1333
     14 N          -3.6716  -19.8634   20.6442 N.ar    1  UNL1       -0.1313
     15 C          -4.9492  -19.3929   21.2734 C.ar    1  UNL1        0.1697
     16 C          -9.4144  -18.4124   22.8763 C.ar    1  UNL1        0.0173
     17 C          -9.9764  -19.1790   24.0368 C.ar    1  UNL1        0.0023
     18 C         -11.4280  -19.0464   24.3908 C.ar    1  UNL1        0.0114
     19 C         -12.3176  -18.1473   23.5844 C.ar    1  UNL1        0.0577
     20 CL        -13.7691  -18.0148   23.9385 Cl      1  UNL1       -0.0822
     21 C         -11.7556  -17.3808   22.4240 C.ar    1  UNL1        0.0114
     22 C         -10.3041  -17.5133   22.0699 C.ar    1  UNL1        0.0023
     23 O          -7.7744  -14.7567   25.8915 O.3     1  UNL1       -0.4714
     24 C          -8.1497  -15.2365   27.2622 C.3     1  UNL1        0.2525
     25 C          -6.2929  -21.1008   19.9582 C.3     1  UNL1        0.1170
     26 N          -8.5425  -20.2322   18.9914 N.am    1  UNL1       -0.3043
     27 C          -7.4033  -21.2073   18.9554 C.2     1  UNL1        0.2249
     28 O          -7.3744  -22.2889   17.9164 O.2     1  UNL1       -0.2750
     29 H          -8.5615  -19.5224   19.6732 H       1  UNL1        0.1494
     30 C          -9.4736  -21.1766   16.7572 C.3     1  UNL1        0.0230
     31 C          -9.6529  -20.3388   17.9884 C.3     1  UNL1        0.0894
@<TRIPOS>BOND
     1    30    31    1
     2    31    26    1
     3    26    27   am
     4    27    28    2
     5    27    25    1
     6     1    25    1
     7     1     2    1
     8     2     3    2
     9     3    16    1
    10    16    17   ar
    11    17    18   ar
    12    18    19   ar
    13    19    20    1
    14    19    21   ar
    15    21    22   ar
    16     3     4    1
    17     4     5   ar
    18     5     6   ar
    19     6    23    1
    20    23    24    1
    21     6     7   ar
    22     7     8   ar
    23     8     9   ar
    24     9    10    1
    25    10    11   ar
    26    11    12    1
    27    11    13   ar
    28    13    14   ar
    29    14    15   ar
    30    15     1    1
    31    22    16   ar
    32     9     4   ar
    33    15    10   ar
    34    26    29    1
@<TRIPOS>MOLECULE
*****
 31 34 0 0 0
SMALL
GASTEIGER

@<TRIPOS>ATOM
      1 C           6.0056   -3.3822   24.1930 C.3     1  UNL1        0.1707
      2 N           5.5319   -2.4631   25.2797 N.2     1  UNL1       -0.2641
      3 C           4.4854   -1.3909   25.2075 C.2     1  UNL1        0.0779
      4 C           3.6542   -0.9728   24.0308 C.ar    1  UNL1        0.0364
      5 C           2.7216    0.1462   24.3885 C.ar    1  UNL1        0.0398
      6 C           1.7991    0.7142   23.3511 C.ar    1  UNL1        0.1389
      7 C           1.8091    0.1631   21.9561 C.ar    1  UNL1        0.0384
      8 C           2.7417   -0.9559   21.5984 C.ar    1  UNL1        0.0208
      9 C           3.6642   -1.5239   22.6358 C.ar    1  UNL1        0.0678
     10 N           4.5080   -2.6290   22.0728 N.ar    1  UNL1       -0.2791
     11 C           4.4219   -3.0905   20.6481 C.ar    1  UNL1        0.1473
     12 C           3.5076   -2.5370   19.5958 C.3     1  UNL1        0.0742
     13 N           5.4108   -4.2028   20.4607 N.ar    1  UNL1       -0.1333
     14 N           6.1079   -4.4286   21.7695 N.ar    1  UNL1       -0.1313
     15 C           5.5500   -3.4561   22.7658 C.ar    1  UNL1        0.1697
     16 C           4.2373   -0.6369   26.4802 C.ar    1  UNL1        0.0173
     17 C           3.2953   -1.1900   27.5082 C.ar    1  UNL1        0.0023
     18 C           3.0471   -0.4361   28.7810 C.ar    1  UNL1        0.0114
     19 C           3.7410    0.8711   29.0258 C.ar    1  UNL1        0.0577
     20 CL          3.4928    1.6250   30.2986 Cl      1  UNL1       -0.0822
     21 C           4.6829    1.4243   27.9979 C.ar    1  UNL1        0.0114
     22 C           4.9311    0.6704   26.7251 C.ar    1  UNL1        0.0023
     23 O           0.8664    1.8333   23.7088 O.3     1  UNL1       -0.4714
     24 C           0.0088    1.7319   24.9353 C.3     1  UNL1        0.2525
     25 C           7.0767   -4.3562   24.5855 C.3     1  UNL1        0.1170
     26 N           6.3255   -4.6145   27.0591 N.am    1  UNL1       -0.3043
     27 C           6.9052   -5.2069   25.8089 C.2     1  UNL1        0.2249
     28 O           7.3133   -6.6501   25.7821 O.2     1  UNL1       -0.2750
     29 H           6.0576   -3.6673   27.0767 H       1  UNL1        0.1494
     30 C           7.1026   -5.3209   29.4355 C.3     1  UNL1        0.0230
     31 C           6.1540   -5.4653   28.2826 C.3     1  UNL1        0.0894
@<TRIPOS>BOND
     1    30    31    1
     2    31    26    1
     3    26    27   am
     4    27    28    2
     5    27    25    1
     6     1    25    1
     7     1     2    1
     8     2     3    2
     9     3    16    1
    10    16    17   ar
    11    17    18   ar
    12    18    19   ar
    13    19    20    1
    14    19    21   ar
    15    21    22   ar
    16     3     4    1
    17     4     5   ar
    18     5     6   ar
    19     6    23    1
    20    23    24    1
    21     6     7   ar
    22     7     8   ar
    23     8     9   ar
    24     9    10    1
    25    10    11   ar
    26    11    12    1
    27    11    13   ar
    28    13    14   ar
    29    14    15   ar
    30    15     1    1
    31    22    16   ar
    32     9     4   ar
    33    15    10   ar
    34    26    29    1
@<TRIPOS>MOLECULE
*****
 31 34 0 0 0
SMALL
GASTEIGER

@<TRIPOS>ATOM
      1 C          -6.0024  -19.2844   21.7043 C.3     1  UNL1        0.1707
      2 N          -6.5031  -18.4336   22.8337 N.2     1  UNL1       -0.2641
      3 C          -7.9001  -17.9541   23.0950 C.2     1  UNL1        0.0779
      4 C          -9.1414  -18.2068   22.2917 C.ar    1  UNL1        0.0364
      5 C         -10.3368  -17.5405   22.9059 C.ar    1  UNL1        0.0398
      6 C         -11.6829  -17.6690   22.2568 C.ar    1  UNL1        0.1389
      7 C         -11.8338  -18.4637   20.9937 C.ar    1  UNL1        0.0384
      8 C         -10.6385  -19.1300   20.3795 C.ar    1  UNL1        0.0208
      9 C          -9.2923  -19.0016   21.0286 C.ar    1  UNL1        0.0678
     10 N          -8.2391  -19.7399   20.2568 N.ar    1  UNL1       -0.2791
     11 C          -8.5209  -20.5036   18.9969 C.ar    1  UNL1        0.1473
     12 C          -9.8578  -20.6446   18.3317 C.3     1  UNL1        0.0742
     13 N          -7.2309  -21.1015   18.5190 N.ar    1  UNL1       -0.1333
     14 N          -6.1518  -20.7073   19.4835 N.ar    1  UNL1       -0.1313
     15 C          -6.7749  -19.8658   20.5574 C.ar    1  UNL1        0.1697
     16 C          -8.0796  -17.1101   24.3221 C.ar    1  UNL1        0.0173
     17 C          -8.7343  -17.6889   25.5413 C.ar    1  UNL1        0.0023
     18 C          -8.9137  -16.8450   26.7683 C.ar    1  UNL1        0.0114
     19 C          -8.4385  -15.4223   26.7761 C.ar    1  UNL1        0.0577
     20 CL         -8.6180  -14.5784   28.0032 Cl      1  UNL1       -0.0822
     21 C          -7.7839  -14.8435   25.5570 C.ar    1  UNL1        0.0114
     22 C          -7.6044  -15.6874   24.3300 C.ar    1  UNL1        0.0023
     23 O         -12.8783  -17.0026   22.8710 O.3     1  UNL1       -0.4714
     24 C         -13.7389  -17.7541   23.8430 C.3     1  UNL1        0.2525
     25 C          -4.5350  -19.5950   21.7244 C.3     1  UNL1        0.1170
     26 N          -2.8901  -18.9759   19.8110 N.am    1  UNL1       -0.3043
     27 C          -3.5572  -18.6371   21.1111 C.2     1  UNL1        0.2249
     28 O          -3.2463  -17.3402   21.7979 O.2     1  UNL1       -0.2750
     29 H          -3.0941  -19.8271   19.3603 H       1  UNL1        0.1494
     30 C          -0.4980  -17.9688   19.6950 C.3     1  UNL1        0.0230
     31 C          -1.9123  -18.0179   19.1977 C.3     1  UNL1        0.0894
@<TRIPOS>BOND
     1    30    31    1
     2    31    26    1
     3    26    27   am
     4    27    28    2
     5    27    25    1
     6     1    25    1
     7     1     2    1
     8     2     3    2
     9     3    16    1
    10    16    17   ar
    11    17    18   ar
    12    18    19   ar
    13    19    20    1
    14    19    21   ar
    15    21    22   ar
    16     3     4    1
    17     4     5   ar
    18     5     6   ar
    19     6    23    1
    20    23    24    1
    21     6     7   ar
    22     7     8   ar
    23     8     9   ar
    24     9    10    1
    25    10    11   ar
    26    11    12    1
    27    11    13   ar
    28    13    14   ar
    29    14    15   ar
    30    15     1    1
    31    22    16   ar
    32     9     4   ar
    33    15    10   ar
    34    26    29    1
@<TRIPOS>MOLECULE
*****
 31 34 0 0 0
SMALL
GASTEIGER

@<TRIPOS>ATOM
      1 C           6.7394   -2.9709   23.1729 C.3     1  UNL1        0.1707
      2 N           6.1881   -2.1766   24.3198 N.2     1  UNL1       -0.2641
      3 C           6.1300   -2.5477   25.7720 C.2     1  UNL1        0.0779
      4 C           6.6087   -3.8047   26.4360 C.ar    1  UNL1        0.0364
      5 C           6.3589   -3.7726   27.9147 C.ar    1  UNL1        0.0398
      6 C           6.7643   -4.9368   28.7692 C.ar    1  UNL1        0.1389
      7 C           7.4195   -6.1331   28.1450 C.ar    1  UNL1        0.0384
      8 C           7.6692   -6.1652   26.6664 C.ar    1  UNL1        0.0208
      9 C           7.2639   -5.0010   25.8119 C.ar    1  UNL1        0.0678
     10 N           7.6021   -5.2358   24.3695 N.ar    1  UNL1       -0.2791
     11 C           8.2627   -6.4859   23.8686 C.ar    1  UNL1        0.1473
     12 C           8.6758   -7.6606   24.7048 C.3     1  UNL1        0.0742
     13 N           8.4375   -6.3550   22.3846 N.ar    1  UNL1       -0.1333
     14 N           7.8850   -5.0241   21.9683 N.ar    1  UNL1       -0.1313
     15 C           7.3687   -4.3324   23.1950 C.ar    1  UNL1        0.1697
     16 C           5.5112   -1.5269   26.6803 C.ar    1  UNL1        0.0173
     17 C           4.0375   -1.5647   26.9575 C.ar    1  UNL1        0.0023
     18 C           3.4188   -0.5439   27.8658 C.ar    1  UNL1        0.0114
     19 C           4.2738    0.5149   28.4969 C.ar    1  UNL1        0.0577
     20 CL          3.6550    1.5357   29.4052 Cl      1  UNL1       -0.0822
     21 C           5.7473    0.5527   28.2196 C.ar    1  UNL1        0.0114
     22 C           6.3662   -0.4681   27.3114 C.ar    1  UNL1        0.0023
     23 O           6.5146   -4.9047   30.2480 O.3     1  UNL1       -0.4714
     24 C           7.2985   -5.8006   31.1606 C.3     1  UNL1        0.2525
     25 C           6.6496   -2.3173   21.8258 C.3     1  UNL1        0.1170
     26 N           5.7351   -3.7985   19.8972 N.am    1  UNL1       -0.3043
     27 C           5.5410   -2.6868   20.8853 C.2     1  UNL1        0.2249
     28 O           4.2384   -1.9445   20.9329 O.2     1  UNL1       -0.2750
     29 H           6.5900   -4.2857   19.8660 H       1  UNL1        0.1494
     30 C           3.4752   -4.9973   19.4434 C.3     1  UNL1        0.0230
     31 C           4.6264   -4.1680   18.9567 C.3     1  UNL1        0.0894
@<TRIPOS>BOND
     1    30    31    1
     2    31    26    1
     3    26    27   am
     4    27    28    2
     5    27    25    1
     6     1    25    1
     7     1     2    1
     8     2     3    2
     9     3    16    1
    10    16    17   ar
    11    17    18   ar
    12    18    19   ar
    13    19    20    1
    14    19    21   ar
    15    21    22   ar
    16     3     4    1
    17     4     5   ar
    18     5     6   ar
    19     6    23    1
    20    23    24    1
    21     6     7   ar
    22     7     8   ar
    23     8     9   ar
    24     9    10    1
    25    10    11   ar
    26    11    12    1
    27    11    13   ar
    28    13    14   ar
    29    14    15   ar
    30    15     1    1
    31    22    16   ar
    32     9     4   ar
    33    15    10   ar
    34    26    29    1
@<TRIPOS>MOLECULE
*****
 31 34 0 0 0
SMALL
GASTEIGER

@<TRIPOS>ATOM
      1 C          -0.0057    2.1926   21.2273 C.3     1  UNL1        0.1707
      2 N           0.1018    2.3072   22.7191 N.2     1  UNL1       -0.2641
      3 C           0.9935    1.5448   23.6537 C.2     1  UNL1        0.0779
      4 C           1.9981    0.4796   23.3276 C.ar    1  UNL1        0.0364
      5 C           2.6811   -0.0264   24.5634 C.ar    1  UNL1        0.0398
      6 C           3.7250   -1.0984   24.4578 C.ar    1  UNL1        0.1389
      7 C           4.0859   -1.6642   23.1163 C.ar    1  UNL1        0.0384
      8 C           3.4029   -1.1582   21.8805 C.ar    1  UNL1        0.0208
      9 C           2.3590   -0.0862   21.9861 C.ar    1  UNL1        0.0678
     10 N           1.8044    0.2733   20.6395 N.ar    1  UNL1       -0.2791
     11 C           2.2533   -0.3720   19.3619 C.ar    1  UNL1        0.1473
     12 C           3.2942   -1.4443   19.2341 C.3     1  UNL1        0.0742
     13 N           1.4783    0.2434   18.2347 N.ar    1  UNL1       -0.1333
     14 N           0.5505    1.2690   18.8156 N.ar    1  UNL1       -0.1313
     15 C           0.7521    1.2874   20.3018 C.ar    1  UNL1        0.1697
     16 C           0.8636    1.8938   25.1068 C.ar    1  UNL1        0.0173
     17 C          -0.2392    1.2924   25.9268 C.ar    1  UNL1        0.0023
     18 C          -0.3692    1.6414   27.3799 C.ar    1  UNL1        0.0114
     19 C           0.6036    2.5917   28.0129 C.ar    1  UNL1        0.0577
     20 CL          0.4736    2.9405   29.4659 Cl      1  UNL1       -0.0822
     21 C           1.7063    3.1929   27.1930 C.ar    1  UNL1        0.0114
     22 C           1.8364    2.8440   25.7399 C.ar    1  UNL1        0.0023
     23 O           4.4080   -1.6045   25.6937 O.3     1  UNL1       -0.4714
     24 C           3.7853   -1.3807   27.0398 C.3     1  UNL1        0.2525
     25 C          -1.0027    3.1037   20.5748 C.3     1  UNL1        0.1170
     26 N          -2.4126    4.0930   22.5198 N.am    1  UNL1       -0.3043
     27 C          -2.3341    3.3450   21.2220 C.2     1  UNL1        0.2249
     28 O          -3.5872    2.8383   20.5715 O.2     1  UNL1       -0.2750
     29 H          -1.5902    4.4256   22.9468 H       1  UNL1        0.1494
     30 C          -4.4319    3.2238   23.9044 C.3     1  UNL1        0.0230
     31 C          -3.7441    4.3344   23.1671 C.3     1  UNL1        0.0894
@<TRIPOS>BOND
     1    30    31    1
     2    31    26    1
     3    26    27   am
     4    27    28    2
     5    27    25    1
     6     1    25    1
     7     1     2    1
     8     2     3    2
     9     3    16    1
    10    16    17   ar
    11    17    18   ar
    12    18    19   ar
    13    19    20    1
    14    19    21   ar
    15    21    22   ar
    16     3     4    1
    17     4     5   ar
    18     5     6   ar
    19     6    23    1
    20    23    24    1
    21     6     7   ar
    22     7     8   ar
    23     8     9   ar
    24     9    10    1
    25    10    11   ar
    26    11    12    1
    27    11    13   ar
    28    13    14   ar
    29    14    15   ar
    30    15     1    1
    31    22    16   ar
    32     9     4   ar
    33    15    10   ar
    34    26    29    1
@<TRIPOS>MOLECULE
*****
 31 34 0 0 0
SMALL
GASTEIGER

@<TRIPOS>ATOM
      1 C           3.8914   -1.2405   24.6666 C.3     1  UNL1        0.1707
      2 N           2.9518   -0.1004   24.9261 N.2     1  UNL1       -0.2641
      3 C           2.0408    0.5988   23.9611 C.2     1  UNL1        0.0779
      4 C           1.8445    0.3308   22.4983 C.ar    1  UNL1        0.0364
      5 C           0.8339    1.2644   21.9009 C.ar    1  UNL1        0.0398
      6 C           0.4894    1.1645   20.4444 C.ar    1  UNL1        0.1389
      7 C           1.1556    0.1309   19.5854 C.ar    1  UNL1        0.0384
      8 C           2.1662   -0.8027   20.1828 C.ar    1  UNL1        0.0208
      9 C           2.5106   -0.7028   21.6393 C.ar    1  UNL1        0.0678
     10 N           3.5376   -1.7236   22.0308 N.ar    1  UNL1       -0.2791
     11 C           4.1310   -2.7098   21.0689 C.ar    1  UNL1        0.1473
     12 C           3.8011   -2.8267   19.6104 C.3     1  UNL1        0.0742
     13 N           5.1122   -3.5587   21.8217 N.ar    1  UNL1       -0.1333
     14 N           5.1253   -3.0970   23.2488 N.ar    1  UNL1       -0.1313
     15 C           4.1522   -1.9629   23.3781 C.ar    1  UNL1        0.1697
     16 C           1.2173    1.7136   24.5347 C.ar    1  UNL1        0.0173
     17 C          -0.0814    1.4100   25.2214 C.ar    1  UNL1        0.0023
     18 C          -0.9049    2.5248   25.7950 C.ar    1  UNL1        0.0114
     19 C          -0.4298    3.9431   25.6820 C.ar    1  UNL1        0.0577
     20 CL         -1.2535    5.0578   26.2556 Cl      1  UNL1       -0.0822
     21 C           0.8687    4.2466   24.9953 C.ar    1  UNL1        0.0114
     22 C           1.6923    3.1319   24.4217 C.ar    1  UNL1        0.0023
     23 O          -0.5212    2.0981   19.8470 O.3     1  UNL1       -0.4714
     24 C          -1.3642    2.9611   20.7384 C.3     1  UNL1        0.2525
     25 C           4.6738   -1.7219   25.8524 C.3     1  UNL1        0.1170
     26 N           2.8816   -1.1246   27.6360 N.am    1  UNL1       -0.3043
     27 C           4.3205   -1.2421   27.2289 C.2     1  UNL1        0.2249
     28 O           5.4062   -0.8797   28.1986 O.2     1  UNL1       -0.2750
     29 H           2.1690   -1.3624   26.9996 H       1  UNL1        0.1494
     30 C           1.1442   -0.1428   29.2997 C.3     1  UNL1        0.0230
     31 C           2.5283   -0.6448   29.0126 C.3     1  UNL1        0.0894
@<TRIPOS>BOND
     1    30    31    1
     2    31    26    1
     3    26    27   am
     4    27    28    2
     5    27    25    1
     6     1    25    1
     7     1     2    1
     8     2     3    2
     9     3    16    1
    10    16    17   ar
    11    17    18   ar
    12    18    19   ar
    13    19    20    1
    14    19    21   ar
    15    21    22   ar
    16     3     4    1
    17     4     5   ar
    18     5     6   ar
    19     6    23    1
    20    23    24    1
    21     6     7   ar
    22     7     8   ar
    23     8     9   ar
    24     9    10    1
    25    10    11   ar
    26    11    12    1
    27    11    13   ar
    28    13    14   ar
    29    14    15   ar
    30    15     1    1
    31    22    16   ar
    32     9     4   ar
    33    15    10   ar
    34    26    29    1
