@<TRIPOS>MOLECULE
*****
 35 39 0 0 0
SMALL
GASTEIGER

@<TRIPOS>ATOM
      1 C           1.9006    0.4817   22.2039 C.ar    1  UNL1        0.0829
      2 C           0.8536    1.4460   21.7308 C.ar    1  UNL1        0.0193
      3 C           0.0724    2.2523   22.7256 C.ar    1  UNL1        0.0074
      4 C           0.3381    2.0942   24.1934 C.ar    1  UNL1        0.0676
      5 C          -0.4432    2.9005   25.1881 C.ar    1  UNL1        0.1376
      6 N          -0.1775    2.7424   26.6559 N.ar    1  UNL1       -0.1986
      7 C           0.8696    1.7779   27.1289 C.ar    1  UNL1        0.2228
      8 N           1.6508    0.9717   26.1342 N.ar    1  UNL1       -0.1944
      9 C           1.3851    1.1298   24.6664 C.ar    1  UNL1        0.1678
     10 N           2.1663    0.3235   23.6717 N.ar    1  UNL1       -0.2264
     11 N           1.1353    1.6198   28.5967 N.pl3   1  UNL1       -0.2732
     12 C           0.5883    2.6215   29.5701 C.3     1  UNL1        0.1231
     13 C           0.8540    2.4634   31.0379 C.3     1  UNL1        0.1350
     14 C           0.3070    3.4650   32.0113 C.3     1  UNL1        0.0339
     15 O           1.6667    1.3035   31.5323 O.3     1  UNL1       -0.3552
     16 C           2.2137    0.3019   30.5589 C.3     1  UNL1        0.1350
     17 C           3.0263   -0.8579   31.0533 C.3     1  UNL1        0.0339
     18 C           1.9479    0.4600   29.0911 C.3     1  UNL1        0.1231
     19 C           4.2445   -1.9372   19.2196 C.ar    1  UNL1        0.1370
     20 C           4.2330   -2.3367   20.6653 C.ar    1  UNL1        0.0367
     21 C           3.4517   -1.5304   21.6601 C.ar    1  UNL1        0.0046
     22 C           2.6819   -0.3246   21.2091 C.ar    1  UNL1        0.0177
     23 C           2.6934    0.0749   19.7633 C.ar    1  UNL1        0.0027
     24 C           3.4746   -0.7313   18.7686 C.ar    1  UNL1        0.0410
     25 C           3.4861   -0.3318   17.3228 C.3     1  UNL1        0.1666
     26 O           3.7034   -1.3678   16.2601 O.3     1  UNL1       -0.3771
     27 H           4.6016   -1.7260   16.3366 H       1  UNL1        0.2109
     28 C           6.4994   -2.5138   18.0653 C.3     1  UNL1        0.2525
     29 O           5.0257   -2.7434   18.2248 O.3     1  UNL1       -0.4717
     30 N          -1.4901    3.8649   24.7151 N.pl3   1  UNL1       -0.2879
     31 C          -1.1090    5.2720   24.3621 C.3     1  UNL1        0.1242
     32 C          -2.1561    6.2364   23.8891 C.3     1  UNL1        0.1636
     33 O          -3.5842    5.7936   23.7690 O.3     1  UNL1       -0.3501
     34 C          -3.9653    4.3865   24.1220 C.3     1  UNL1        0.1636
     35 C          -2.9183    3.4221   24.5950 C.3     1  UNL1        0.1242
@<TRIPOS>BOND
     1    28    29    1
     2    29    19    1
     3    19    20   ar
     4    20    21   ar
     5    21    22   ar
     6    22     1    1
     7     1     2   ar
     8     2     3   ar
     9     3     4   ar
    10     4     5   ar
    11     5    30    1
    12    30    31    1
    13    31    32    1
    14    32    33    1
    15    33    34    1
    16    34    35    1
    17     5     6   ar
    18     6     7   ar
    19     7    11    1
    20    11    12    1
    21    12    13    1
    22    13    14    1
    23    13    15    1
    24    15    16    1
    25    16    17    1
    26    16    18    1
    27     7     8   ar
    28     8     9   ar
    29     9    10   ar
    30    22    23   ar
    31    23    24   ar
    32    24    25    1
    33    25    26    1
    34    24    19   ar
    35    10     1   ar
    36     9     4   ar
    37    35    30    1
    38    18    11    1
    39    26    27    1
@<TRIPOS>MOLECULE
*****
 35 39 0 0 0
SMALL
GASTEIGER

@<TRIPOS>ATOM
      1 C           2.4435   -0.3163   22.2440 C.ar    1  UNL1        0.0829
      2 C           2.4211    0.2489   23.6332 C.ar    1  UNL1        0.0193
      3 C           1.4460    1.3325   23.9864 C.ar    1  UNL1        0.0074
      4 C           0.4932    1.8509   22.9503 C.ar    1  UNL1        0.0676
      5 C          -0.4820    2.9346   23.3035 C.ar    1  UNL1        0.1376
      6 N          -1.4348    3.4531   22.2674 N.ar    1  UNL1       -0.1986
      7 C          -1.4124    2.8878   20.8781 C.ar    1  UNL1        0.2228
      8 N          -0.4372    1.8042   20.5250 N.ar    1  UNL1       -0.1944
      9 C           0.5156    1.2857   21.5611 C.ar    1  UNL1        0.1678
     10 N           1.4907    0.2021   21.2079 N.ar    1  UNL1       -0.2264
     11 N          -2.3651    3.4062   19.8421 N.pl3   1  UNL1       -0.2732
     12 C          -3.8448    3.3161   20.0718 C.3     1  UNL1        0.1231
     13 C          -4.7975    3.8345   19.0357 C.3     1  UNL1        0.1350
     14 C          -6.2771    3.7444   19.2654 C.3     1  UNL1        0.0339
     15 O          -4.2707    4.4431   17.7699 O.3     1  UNL1       -0.3552
     16 C          -2.7912    4.5332   17.5402 C.3     1  UNL1        0.1350
     17 C          -2.2644    5.1417   16.2745 C.3     1  UNL1        0.0339
     18 C          -1.8384    4.0148   18.5763 C.3     1  UNL1        0.1231
     19 C           5.3690   -3.5673   21.1843 C.ar    1  UNL1        0.1370
     20 C           5.1965   -3.1508   22.6149 C.ar    1  UNL1        0.0367
     21 C           4.2213   -2.0671   22.9682 C.ar    1  UNL1        0.0046
     22 C           3.4187   -1.4000   21.8908 C.ar    1  UNL1        0.0177
     23 C           3.5913   -1.8165   20.4601 C.ar    1  UNL1        0.0027
     24 C           4.5664   -2.9001   20.1069 C.ar    1  UNL1        0.0410
     25 C           4.7390   -3.3167   18.6762 C.3     1  UNL1        0.1666
     26 O           4.6214   -4.7631   18.2968 O.3     1  UNL1       -0.3771
     27 H           5.3480   -5.2633   18.7003 H       1  UNL1        0.2109
     28 C           7.8187   -4.3961   20.9353 C.3     1  UNL1        0.2525
     29 O           6.3442   -4.6509   20.8311 O.3     1  UNL1       -0.4717
     30 N          -0.5044    3.4998   24.6927 N.pl3   1  UNL1       -0.2879
     31 C          -1.3627    2.8656   25.7468 C.3     1  UNL1        0.1242
     32 C          -1.3851    3.4308   27.1360 C.3     1  UNL1        0.1636
     33 O          -0.5491    4.6303   27.4713 O.3     1  UNL1       -0.3501
     34 C           0.3092    5.2646   26.4172 C.3     1  UNL1        0.1636
     35 C           0.3316    4.6994   25.0280 C.3     1  UNL1        0.1242
@<TRIPOS>BOND
     1    28    29    1
     2    29    19    1
     3    19    20   ar
     4    20    21   ar
     5    21    22   ar
     6    22     1    1
     7     1     2   ar
     8     2     3   ar
     9     3     4   ar
    10     4     5   ar
    11     5    30    1
    12    30    31    1
    13    31    32    1
    14    32    33    1
    15    33    34    1
    16    34    35    1
    17     5     6   ar
    18     6     7   ar
    19     7    11    1
    20    11    12    1
    21    12    13    1
    22    13    14    1
    23    13    15    1
    24    15    16    1
    25    16    17    1
    26    16    18    1
    27     7     8   ar
    28     8     9   ar
    29     9    10   ar
    30    22    23   ar
    31    23    24   ar
    32    24    25    1
    33    25    26    1
    34    24    19   ar
    35    10     1   ar
    36     9     4   ar
    37    35    30    1
    38    18    11    1
    39    26    27    1
@<TRIPOS>MOLECULE
*****
 35 39 0 0 0
SMALL
GASTEIGER

@<TRIPOS>ATOM
      1 C           5.3252   -1.9747   23.7338 C.ar    1  UNL1        0.0829
      2 C           6.4922   -2.6163   24.4239 C.ar    1  UNL1        0.0193
      3 C           6.5747   -2.6085   25.9216 C.ar    1  UNL1        0.0074
      4 C           5.4902   -1.9591   26.7291 C.ar    1  UNL1        0.0676
      5 C           5.5728   -1.9513   28.2269 C.ar    1  UNL1        0.1376
      6 N           4.4883   -1.3019   29.0344 N.ar    1  UNL1       -0.1986
      7 C           3.3212   -0.6603   28.3442 C.ar    1  UNL1        0.2228
      8 N           3.2387   -0.6680   26.8465 N.ar    1  UNL1       -0.1944
      9 C           4.3232   -1.3175   26.0390 C.ar    1  UNL1        0.1678
     10 N           4.2407   -1.3252   24.5413 N.ar    1  UNL1       -0.2264
     11 N           2.2367   -0.0108   29.1517 N.pl3   1  UNL1       -0.2732
     12 C           0.8013   -0.1730   28.7476 C.3     1  UNL1        0.1231
     13 C          -0.2832    0.4764   29.5551 C.3     1  UNL1        0.1350
     14 C          -1.7186    0.3142   29.1510 C.3     1  UNL1        0.0339
     15 O           0.0677    1.2880   30.7668 O.3     1  UNL1       -0.3552
     16 C           1.5031    1.4502   31.1710 C.3     1  UNL1        0.1350
     17 C           1.8540    2.2617   32.3826 C.3     1  UNL1        0.0339
     18 C           2.5876    0.8007   30.3634 C.3     1  UNL1        0.1231
     19 C           5.0775   -1.9980   19.2406 C.ar    1  UNL1        0.1370
     20 C           5.8253   -0.9049   19.9448 C.ar    1  UNL1        0.0367
     21 C           5.9079   -0.8972   21.4426 C.ar    1  UNL1        0.0046
     22 C           5.2426   -1.9824   22.2360 C.ar    1  UNL1        0.0177
     23 C           4.4948   -3.0755   21.5318 C.ar    1  UNL1        0.0027
     24 C           4.4122   -3.0833   20.0341 C.ar    1  UNL1        0.0410
     25 C           3.6644   -4.1764   19.3299 C.3     1  UNL1        0.1666
     26 O           4.3487   -4.9940   18.2749 O.3     1  UNL1       -0.3771
     27 H           4.5628   -4.4290   17.5161 H       1  UNL1        0.2109
     28 C           4.0312   -1.0962   17.0402 C.3     1  UNL1        0.2525
     29 O           4.9949   -2.0058   17.7429 O.3     1  UNL1       -0.4717
     30 N           6.7398   -2.5930   28.9170 N.pl3   1  UNL1       -0.2879
     31 C           7.9506   -1.7763   29.2590 C.3     1  UNL1        0.1242
     32 C           9.1177   -2.4180   29.9491 C.3     1  UNL1        0.1636
     33 O           9.0739   -3.8763   30.2973 O.3     1  UNL1       -0.3501
     34 C           7.8630   -4.6930   29.9554 C.3     1  UNL1        0.1636
     35 C           6.6960   -4.0514   29.2653 C.3     1  UNL1        0.1242
@<TRIPOS>BOND
     1    28    29    1
     2    29    19    1
     3    19    20   ar
     4    20    21   ar
     5    21    22   ar
     6    22     1    1
     7     1     2   ar
     8     2     3   ar
     9     3     4   ar
    10     4     5   ar
    11     5    30    1
    12    30    31    1
    13    31    32    1
    14    32    33    1
    15    33    34    1
    16    34    35    1
    17     5     6   ar
    18     6     7   ar
    19     7    11    1
    20    11    12    1
    21    12    13    1
    22    13    14    1
    23    13    15    1
    24    15    16    1
    25    16    17    1
    26    16    18    1
    27     7     8   ar
    28     8     9   ar
    29     9    10   ar
    30    22    23   ar
    31    23    24   ar
    32    24    25    1
    33    25    26    1
    34    24    19   ar
    35    10     1   ar
    36     9     4   ar
    37    35    30    1
    38    18    11    1
    39    26    27    1
@<TRIPOS>MOLECULE
*****
 35 39 0 0 0
SMALL
GASTEIGER

@<TRIPOS>ATOM
      1 C          -2.2774    3.1145   25.8478 C.ar    1  UNL1        0.0829
      2 C          -1.7002    2.9327   27.2203 C.ar    1  UNL1        0.0193
      3 C          -0.3776    2.2463   27.3927 C.ar    1  UNL1        0.0074
      4 C           0.3676    1.7418   26.1927 C.ar    1  UNL1        0.0676
      5 C           1.6902    1.0553   26.3652 C.ar    1  UNL1        0.1376
      6 N           2.4354    0.5508   25.1652 N.ar    1  UNL1       -0.1986
      7 C           1.8581    0.7327   23.7927 C.ar    1  UNL1        0.2228
      8 N           0.5356    1.4190   23.6202 N.ar    1  UNL1       -0.1944
      9 C          -0.2097    1.9236   24.8203 C.ar    1  UNL1        0.1678
     10 N          -1.5322    2.6100   24.6478 N.ar    1  UNL1       -0.2264
     11 N           2.6033    0.2281   22.5926 N.pl3   1  UNL1       -0.2732
     12 C           3.1854   -1.1544   22.5979 C.3     1  UNL1        0.1231
     13 C           3.9306   -1.6590   21.3979 C.3     1  UNL1        0.1350
     14 C           4.5126   -3.0414   21.4031 C.3     1  UNL1        0.0339
     15 O           4.0938   -0.7810   20.1926 O.3     1  UNL1       -0.3552
     16 C           3.5118    0.6015   20.1874 C.3     1  UNL1        0.1350
     17 C           3.6751    1.4793   18.9822 C.3     1  UNL1        0.0339
     18 C           2.7666    1.1060   21.3874 C.3     1  UNL1        0.1231
     19 C          -6.2451    5.1737   25.3303 C.ar    1  UNL1        0.1370
     20 C          -5.4473    5.3868   26.5826 C.ar    1  UNL1        0.0367
     21 C          -4.1247    4.7004   26.7550 C.ar    1  UNL1        0.0046
     22 C          -3.6000    3.8010   25.6754 C.ar    1  UNL1        0.0177
     23 C          -4.3979    3.5879   24.4231 C.ar    1  UNL1        0.0027
     24 C          -5.7204    4.2743   24.2506 C.ar    1  UNL1        0.0410
     25 C          -6.5183    4.0612   22.9984 C.3     1  UNL1        0.1666
     26 O          -8.0010    3.8502   23.0807 O.3     1  UNL1       -0.3771
     27 H          -8.1837    3.0123   23.5340 H       1  UNL1        0.2109
     28 C          -8.0294    6.8643   26.1719 C.3     1  UNL1        0.2525
     29 O          -7.5676    5.8601   25.1578 O.3     1  UNL1       -0.4717
     30 N           2.2675    0.8735   27.7376 N.pl3   1  UNL1       -0.2879
     31 C           3.1941    1.9079   28.3046 C.3     1  UNL1        0.1242
     32 C           3.7713    1.7260   29.6772 C.3     1  UNL1        0.1636
     33 O           3.4220    0.5098   30.4826 O.3     1  UNL1       -0.3501
     34 C           2.4954   -0.5246   29.9156 C.3     1  UNL1        0.1636
     35 C           1.9181   -0.3428   28.5431 C.3     1  UNL1        0.1242
@<TRIPOS>BOND
     1    28    29    1
     2    29    19    1
     3    19    20   ar
     4    20    21   ar
     5    21    22   ar
     6    22     1    1
     7     1     2   ar
     8     2     3   ar
     9     3     4   ar
    10     4     5   ar
    11     5    30    1
    12    30    31    1
    13    31    32    1
    14    32    33    1
    15    33    34    1
    16    34    35    1
    17     5     6   ar
    18     6     7   ar
    19     7    11    1
    20    11    12    1
    21    12    13    1
    22    13    14    1
    23    13    15    1
    24    15    16    1
    25    16    17    1
    26    16    18    1
    27     7     8   ar
    28     8     9   ar
    29     9    10   ar
    30    22    23   ar
    31    23    24   ar
    32    24    25    1
    33    25    26    1
    34    24    19   ar
    35    10     1   ar
    36     9     4   ar
    37    35    30    1
    38    18    11    1
    39    26    27    1
@<TRIPOS>MOLECULE
*****
 35 39 0 0 0
SMALL
GASTEIGER

@<TRIPOS>ATOM
      1 C          -2.2393    3.0898   25.8313 C.ar    1  UNL1        0.0829
      2 C          -1.6658    2.9279   27.2078 C.ar    1  UNL1        0.0193
      3 C          -0.3459    2.2402   27.3943 C.ar    1  UNL1        0.0074
      4 C           0.4005    1.7143   26.2042 C.ar    1  UNL1        0.0676
      5 C           1.7205    1.0265   26.3907 C.ar    1  UNL1        0.1376
      6 N           2.4669    0.5006   25.2006 N.ar    1  UNL1       -0.1986
      7 C           1.8934    0.6625   23.8241 C.ar    1  UNL1        0.2228
      8 N           0.5735    1.3503   23.6376 N.ar    1  UNL1       -0.1944
      9 C          -0.1730    1.8762   24.8277 C.ar    1  UNL1        0.1678
     10 N          -1.4928    2.5639   24.6412 N.ar    1  UNL1       -0.2264
     11 N           2.6398    0.1366   22.6340 N.pl3   1  UNL1       -0.2732
     12 C           2.7145    0.9502   21.3760 C.3     1  UNL1        0.1231
     13 C           3.4609    0.4244   20.1859 C.3     1  UNL1        0.1350
     14 C           3.5357    1.2379   18.9280 C.3     1  UNL1        0.0339
     15 O           4.1327   -0.9152   20.2538 O.3     1  UNL1       -0.3552
     16 C           4.0579   -1.7287   21.5118 C.3     1  UNL1        0.1350
     17 C           4.7296   -3.0682   21.5797 C.3     1  UNL1        0.0339
     18 C           3.3115   -1.2028   22.7019 C.3     1  UNL1        0.1231
     19 C          -6.1991    5.1532   25.2717 C.ar    1  UNL1        0.1370
     20 C          -5.4103    5.3722   26.5286 C.ar    1  UNL1        0.0367
     21 C          -4.0903    4.6844   26.7151 C.ar    1  UNL1        0.0046
     22 C          -3.5592    3.7776   25.6448 C.ar    1  UNL1        0.0177
     23 C          -4.3481    3.5586   24.3879 C.ar    1  UNL1        0.0027
     24 C          -5.6680    4.2463   24.2013 C.ar    1  UNL1        0.0410
     25 C          -6.4568    4.0273   22.9444 C.3     1  UNL1        0.1666
     26 O          -7.9502    3.9028   23.0083 O.3     1  UNL1       -0.3771
     27 H          -8.1870    3.0956   23.4913 H       1  UNL1        0.2109
     28 C          -8.0769    6.7025   26.1789 C.3     1  UNL1        0.2525
     29 O          -7.5190    5.8409   25.0851 O.3     1  UNL1       -0.4717
     30 N           2.2939    0.8646   27.7673 N.pl3   1  UNL1       -0.2879
     31 C           1.9531   -0.3465   28.5841 C.3     1  UNL1        0.1242
     32 C           2.5266   -0.5083   29.9607 C.3     1  UNL1        0.1636
     33 O           3.4409    0.5408   30.5204 O.3     1  UNL1       -0.3501
     34 C           3.7817    1.7519   29.7036 C.3     1  UNL1        0.1636
     35 C           3.2083    1.9137   28.3270 C.3     1  UNL1        0.1242
@<TRIPOS>BOND
     1    28    29    1
     2    29    19    1
     3    19    20   ar
     4    20    21   ar
     5    21    22   ar
     6    22     1    1
     7     1     2   ar
     8     2     3   ar
     9     3     4   ar
    10     4     5   ar
    11     5    30    1
    12    30    31    1
    13    31    32    1
    14    32    33    1
    15    33    34    1
    16    34    35    1
    17     5     6   ar
    18     6     7   ar
    19     7    11    1
    20    11    12    1
    21    12    13    1
    22    13    14    1
    23    13    15    1
    24    15    16    1
    25    16    17    1
    26    16    18    1
    27     7     8   ar
    28     8     9   ar
    29     9    10   ar
    30    22    23   ar
    31    23    24   ar
    32    24    25    1
    33    25    26    1
    34    24    19   ar
    35    10     1   ar
    36     9     4   ar
    37    35    30    1
    38    18    11    1
    39    26    27    1
@<TRIPOS>MOLECULE
*****
 35 39 0 0 0
SMALL
GASTEIGER

@<TRIPOS>ATOM
      1 C           3.8365   -0.9957   23.6911 C.ar    1  UNL1        0.0829
      2 C           2.8352   -0.0273   24.2473 C.ar    1  UNL1        0.0193
      3 C           2.7540    0.2000   25.7278 C.ar    1  UNL1        0.0074
      4 C           3.6741   -0.5411   26.6520 C.ar    1  UNL1        0.0676
      5 C           3.5928   -0.3138   28.1325 C.ar    1  UNL1        0.1376
      6 N           4.5129   -1.0550   29.0566 N.ar    1  UNL1       -0.1986
      7 C           5.5142   -2.0235   28.5003 C.ar    1  UNL1        0.2228
      8 N           5.5954   -2.2508   27.0199 N.ar    1  UNL1       -0.1944
      9 C           4.6754   -1.5096   26.0957 C.ar    1  UNL1        0.1678
     10 N           4.7566   -1.7369   24.6153 N.ar    1  UNL1       -0.2264
     11 N           6.4343   -2.7647   29.4245 N.pl3   1  UNL1       -0.2732
     12 C           6.8098   -4.1863   29.1278 C.3     1  UNL1        0.1231
     13 C           7.7299   -4.9275   30.0520 C.3     1  UNL1        0.1350
     14 C           8.1054   -6.3491   29.7554 C.3     1  UNL1        0.0339
     15 O           8.2744   -4.2470   31.2729 O.3     1  UNL1       -0.3552
     16 C           7.8989   -2.8254   31.5696 C.3     1  UNL1        0.1350
     17 C           8.4435   -2.1450   32.7904 C.3     1  UNL1        0.0339
     18 C           6.9788   -2.0843   30.6454 C.3     1  UNL1        0.1231
     19 C           4.0803   -1.6778   19.2497 C.ar    1  UNL1        0.1370
     20 C           4.1554   -0.2843   19.7997 C.ar    1  UNL1        0.0367
     21 C           4.0741   -0.0570   21.2802 C.ar    1  UNL1        0.0046
     22 C           3.9178   -1.2231   22.2106 C.ar    1  UNL1        0.0177
     23 C           3.8427   -2.6166   21.6606 C.ar    1  UNL1        0.0027
     24 C           3.9240   -2.8440   20.1802 C.ar    1  UNL1        0.0410
     25 C           3.8489   -4.2375   19.6302 C.3     1  UNL1        0.1666
     26 O           4.5749   -4.5842   18.3643 O.3     1  UNL1       -0.3771
     27 H           4.1838   -4.0959   17.6231 H       1  UNL1        0.2109
     28 C           3.8335   -0.7909   16.8203 C.3     1  UNL1        0.2525
     29 O           4.1615   -1.9052   17.7693 O.3     1  UNL1       -0.4717
     30 N           2.5915    0.6547   28.6887 N.pl3   1  UNL1       -0.2879
     31 C           2.9777    2.0866   28.9131 C.3     1  UNL1        0.1242
     32 C           1.9763    3.0551   29.4694 C.3     1  UNL1        0.1636
     33 O           0.5889    2.5916   29.8012 O.3     1  UNL1       -0.3501
     34 C           0.2027    1.1597   29.5767 C.3     1  UNL1        0.1636
     35 C           1.2040    0.1912   29.0205 C.3     1  UNL1        0.1242
@<TRIPOS>BOND
     1    28    29    1
     2    29    19    1
     3    19    20   ar
     4    20    21   ar
     5    21    22   ar
     6    22     1    1
     7     1     2   ar
     8     2     3   ar
     9     3     4   ar
    10     4     5   ar
    11     5    30    1
    12    30    31    1
    13    31    32    1
    14    32    33    1
    15    33    34    1
    16    34    35    1
    17     5     6   ar
    18     6     7   ar
    19     7    11    1
    20    11    12    1
    21    12    13    1
    22    13    14    1
    23    13    15    1
    24    15    16    1
    25    16    17    1
    26    16    18    1
    27     7     8   ar
    28     8     9   ar
    29     9    10   ar
    30    22    23   ar
    31    23    24   ar
    32    24    25    1
    33    25    26    1
    34    24    19   ar
    35    10     1   ar
    36     9     4   ar
    37    35    30    1
    38    18    11    1
    39    26    27    1
@<TRIPOS>MOLECULE
*****
 35 39 0 0 0
SMALL
GASTEIGER

@<TRIPOS>ATOM
      1 C          -2.2615    3.2704   25.7966 C.ar    1  UNL1        0.0829
      2 C          -1.4262    2.9831   24.5843 C.ar    1  UNL1        0.0193
      3 C          -0.0644    2.3735   24.7393 C.ar    1  UNL1        0.0074
      4 C           0.4619    2.0512   26.1064 C.ar    1  UNL1        0.0676
      5 C           1.8237    1.4416   26.2613 C.ar    1  UNL1        0.1376
      6 N           2.3501    1.1193   27.6284 N.ar    1  UNL1       -0.1986
      7 C           1.5146    1.4067   28.8407 C.ar    1  UNL1        0.2228
      8 N           0.1529    2.0163   28.6858 N.ar    1  UNL1       -0.1944
      9 C          -0.3734    2.3386   27.3186 C.ar    1  UNL1        0.1678
     10 N          -1.7352    2.9482   27.1637 N.ar    1  UNL1       -0.2264
     11 N           2.0410    1.0844   30.2079 N.pl3   1  UNL1       -0.2732
     12 C           2.8712   -0.1466   30.4209 C.3     1  UNL1        0.1231
     13 C           3.3976   -0.4689   31.7881 C.3     1  UNL1        0.1350
     14 C           4.2277   -1.6999   32.0012 C.3     1  UNL1        0.0339
     15 O           3.0937    0.4399   32.9422 O.3     1  UNL1       -0.3552
     16 C           2.2635    1.6709   32.7291 C.3     1  UNL1        0.1350
     17 C           1.9597    2.5796   33.8831 C.3     1  UNL1        0.0339
     18 C           1.7372    1.9932   31.3619 C.3     1  UNL1        0.1231
     19 C          -6.3469    5.0993   25.3319 C.ar    1  UNL1        0.1370
     20 C          -5.5630    5.3248   26.5907 C.ar    1  UNL1        0.0367
     21 C          -4.2012    4.7151   26.7456 C.ar    1  UNL1        0.0046
     22 C          -3.6233    3.8800   25.6417 C.ar    1  UNL1        0.0177
     23 C          -4.4072    3.6545   24.3828 C.ar    1  UNL1        0.0027
     24 C          -5.7690    4.2641   24.2279 C.ar    1  UNL1        0.0410
     25 C          -6.5528    4.0386   22.9691 C.3     1  UNL1        0.1666
     26 O          -8.0436    3.8852   23.0312 O.3     1  UNL1       -0.3771
     27 H          -8.2652    3.0704   23.5086 H       1  UNL1        0.2109
     28 C          -7.9101    7.1714   25.4418 C.3     1  UNL1        0.2525
     29 O          -7.7086    5.7088   25.1770 O.3     1  UNL1       -0.4717
     30 N           2.6591    1.1543   25.0491 N.pl3   1  UNL1       -0.2879
     31 C           2.5049   -0.1496   24.3238 C.3     1  UNL1        0.1242
     32 C           3.3403   -0.4370   23.1115 C.3     1  UNL1        0.1636
     33 O           4.3299    0.5796   22.6245 O.3     1  UNL1       -0.3501
     34 C           4.4842    1.8835   23.3498 C.3     1  UNL1        0.1636
     35 C           3.6488    2.1709   24.5620 C.3     1  UNL1        0.1242
@<TRIPOS>BOND
     1    28    29    1
     2    29    19    1
     3    19    20   ar
     4    20    21   ar
     5    21    22   ar
     6    22     1    1
     7     1     2   ar
     8     2     3   ar
     9     3     4   ar
    10     4     5   ar
    11     5    30    1
    12    30    31    1
    13    31    32    1
    14    32    33    1
    15    33    34    1
    16    34    35    1
    17     5     6   ar
    18     6     7   ar
    19     7    11    1
    20    11    12    1
    21    12    13    1
    22    13    14    1
    23    13    15    1
    24    15    16    1
    25    16    17    1
    26    16    18    1
    27     7     8   ar
    28     8     9   ar
    29     9    10   ar
    30    22    23   ar
    31    23    24   ar
    32    24    25    1
    33    25    26    1
    34    24    19   ar
    35    10     1   ar
    36     9     4   ar
    37    35    30    1
    38    18    11    1
    39    26    27    1
@<TRIPOS>MOLECULE
*****
 35 39 0 0 0
SMALL
GASTEIGER

@<TRIPOS>ATOM
      1 C           1.6831    1.2029   19.2316 C.ar    1  UNL1        0.0829
      2 C           0.9722    1.9997   18.1781 C.ar    1  UNL1        0.0193
      3 C          -0.1681    2.8968   18.5584 C.ar    1  UNL1        0.0074
      4 C          -0.5976    2.9972   19.9921 C.ar    1  UNL1        0.0676
      5 C          -1.7381    3.8944   20.3724 C.ar    1  UNL1        0.1376
      6 N          -2.1676    3.9947   21.8060 N.ar    1  UNL1       -0.1986
      7 C          -1.4566    3.1979   22.8595 C.ar    1  UNL1        0.2228
      8 N          -0.3163    2.3007   22.4792 N.ar    1  UNL1       -0.1944
      9 C           0.1132    2.2004   21.0455 C.ar    1  UNL1        0.1678
     10 N           1.2536    1.3032   20.6653 N.ar    1  UNL1       -0.2264
     11 N          -1.8862    3.2982   24.2932 N.pl3   1  UNL1       -0.2732
     12 C          -1.0265    2.7164   25.3761 C.3     1  UNL1        0.1231
     13 C          -1.4560    2.8168   26.8098 C.3     1  UNL1        0.1350
     14 C          -0.5965    2.2351   27.8927 C.3     1  UNL1        0.0339
     15 O          -2.7452    3.4989   27.1605 O.3     1  UNL1       -0.3552
     16 C          -3.6047    4.0806   26.0776 C.3     1  UNL1        0.1350
     17 C          -4.8937    4.7627   26.4284 C.3     1  UNL1        0.0339
     18 C          -3.1752    3.9803   24.6439 C.3     1  UNL1        0.1231
     19 C           5.1043   -1.4888   18.0909 C.ar    1  UNL1        0.1370
     20 C           5.1144   -0.0469   17.6775 C.ar    1  UNL1        0.0367
     21 C           3.9739    0.8503   18.0578 C.ar    1  UNL1        0.0046
     22 C           2.8235    0.3057   18.8513 C.ar    1  UNL1        0.0177
     23 C           2.8134   -1.1362   19.2647 C.ar    1  UNL1        0.0027
     24 C           3.9538   -2.0334   18.8845 C.ar    1  UNL1        0.0410
     25 C           3.9437   -3.4753   19.2979 C.3     1  UNL1        0.1666
     26 O           4.4234   -4.5315   18.3470 O.3     1  UNL1       -0.3771
     27 H           3.8246   -4.5768   17.5852 H       1  UNL1        0.2109
     28 C           7.5481   -2.2951   18.4473 C.3     1  UNL1        0.2525
     29 O           6.2446   -2.3860   17.7107 O.3     1  UNL1       -0.4717
     30 N          -2.4489    4.6912   19.3189 N.pl3   1  UNL1       -0.2879
     31 C          -3.6279    4.1032   18.6018 C.3     1  UNL1        0.1242
     32 C          -4.3388    4.9001   17.5484 C.3     1  UNL1        0.1636
     33 O          -3.8706    6.2849   17.2120 O.3     1  UNL1       -0.3501
     34 C          -2.6916    6.8729   17.9292 C.3     1  UNL1        0.1636
     35 C          -1.9808    6.0761   18.9826 C.3     1  UNL1        0.1242
@<TRIPOS>BOND
     1    28    29    1
     2    29    19    1
     3    19    20   ar
     4    20    21   ar
     5    21    22   ar
     6    22     1    1
     7     1     2   ar
     8     2     3   ar
     9     3     4   ar
    10     4     5   ar
    11     5    30    1
    12    30    31    1
    13    31    32    1
    14    32    33    1
    15    33    34    1
    16    34    35    1
    17     5     6   ar
    18     6     7   ar
    19     7    11    1
    20    11    12    1
    21    12    13    1
    22    13    14    1
    23    13    15    1
    24    15    16    1
    25    16    17    1
    26    16    18    1
    27     7     8   ar
    28     8     9   ar
    29     9    10   ar
    30    22    23   ar
    31    23    24   ar
    32    24    25    1
    33    25    26    1
    34    24    19   ar
    35    10     1   ar
    36     9     4   ar
    37    35    30    1
    38    18    11    1
    39    26    27    1
@<TRIPOS>MOLECULE
*****
 35 39 0 0 0
SMALL
GASTEIGER

@<TRIPOS>ATOM
      1 C           1.3060    1.0971   25.4595 C.ar    1  UNL1        0.0829
      2 C           2.4095    0.3306   24.7928 C.ar    1  UNL1        0.0193
      3 C           2.4860    0.2751   23.2958 C.ar    1  UNL1        0.0074
      4 C           1.4590    0.9862   22.4655 C.ar    1  UNL1        0.0676
      5 C           1.5355    0.9307   20.9684 C.ar    1  UNL1        0.1376
      6 N           0.5084    1.6418   20.1381 N.ar    1  UNL1       -0.1986
      7 C          -0.5952    2.4084   20.8048 C.ar    1  UNL1        0.2228
      8 N          -0.6717    2.4639   22.3018 N.ar    1  UNL1       -0.1944
      9 C           0.3554    1.7528   23.1322 C.ar    1  UNL1        0.1678
     10 N           0.2789    1.8082   24.6291 N.ar    1  UNL1       -0.2264
     11 N          -1.6223    3.1195   19.9745 N.pl3   1  UNL1       -0.2732
     12 C          -3.0412    3.2103   20.4525 C.3     1  UNL1        0.1231
     13 C          -4.0683    3.9214   19.6222 C.3     1  UNL1        0.1350
     14 C          -5.4872    4.0122   20.1002 C.3     1  UNL1        0.0339
     15 O          -3.6764    4.5416   18.3138 O.3     1  UNL1       -0.3552
     16 C          -2.2576    4.4508   17.8358 C.3     1  UNL1        0.1350
     17 C          -1.8658    5.0711   16.5275 C.3     1  UNL1        0.0339
     18 C          -1.2305    3.7397   18.6662 C.3     1  UNL1        0.1231
     19 C           1.0764    1.2636   29.9506 C.ar    1  UNL1        0.1370
     20 C           0.1723    2.1264   29.1209 C.ar    1  UNL1        0.0367
     21 C           0.2489    2.0708   27.6239 C.ar    1  UNL1        0.0046
     22 C           1.2294    1.1527   26.9566 C.ar    1  UNL1        0.0177
     23 C           2.1335    0.2899   27.7862 C.ar    1  UNL1        0.0027
     24 C           2.0570    0.3454   29.2832 C.ar    1  UNL1        0.0410
     25 C           2.9611   -0.5173   30.1129 C.3     1  UNL1        0.1666
     26 O           2.4046   -1.2899   31.2719 O.3     1  UNL1       -0.3771
     27 H           2.0979   -0.6727   31.9545 H       1  UNL1        0.2109
     28 C           1.7625    2.3697   32.1991 C.3     1  UNL1        0.2525
     29 O           0.9999    1.3191   31.4476 O.3     1  UNL1       -0.4717
     30 N           2.6390    0.1641   20.3018 N.pl3   1  UNL1       -0.2879
     31 C           3.9269    0.8511   19.9563 C.3     1  UNL1        0.1242
     32 C           5.0305    0.0844   19.2896 C.3     1  UNL1        0.1636
     33 O           4.8462   -1.3691   18.9685 O.3     1  UNL1       -0.3501
     34 C           3.5583   -2.0561   19.3140 C.3     1  UNL1        0.1636
     35 C           2.4547   -1.2895   19.9806 C.3     1  UNL1        0.1242
@<TRIPOS>BOND
     1    28    29    1
     2    29    19    1
     3    19    20   ar
     4    20    21   ar
     5    21    22   ar
     6    22     1    1
     7     1     2   ar
     8     2     3   ar
     9     3     4   ar
    10     4     5   ar
    11     5    30    1
    12    30    31    1
    13    31    32    1
    14    32    33    1
    15    33    34    1
    16    34    35    1
    17     5     6   ar
    18     6     7   ar
    19     7    11    1
    20    11    12    1
    21    12    13    1
    22    13    14    1
    23    13    15    1
    24    15    16    1
    25    16    17    1
    26    16    18    1
    27     7     8   ar
    28     8     9   ar
    29     9    10   ar
    30    22    23   ar
    31    23    24   ar
    32    24    25    1
    33    25    26    1
    34    24    19   ar
    35    10     1   ar
    36     9     4   ar
    37    35    30    1
    38    18    11    1
    39    26    27    1
