@<TRIPOS>MOLECULE
*****
 20 23 0 0 0
SMALL
GASTEIGER

@<TRIPOS>ATOM
      1 C          -7.5947  -19.2969   19.7219 C.3     1  UNL1        0.0896
      2 N          -8.3797  -19.4053   20.9956 N.3     1  UNL1       -0.2724
      3 C          -7.7880  -20.1032   22.1842 C.3     1  UNL1        0.0724
      4 C          -8.5729  -20.2116   23.4578 C.3     1  UNL1        0.0214
      5 C          -9.9497  -19.6222   23.5428 C.3     1  UNL1        0.0213
      6 C         -10.1810  -19.3982   23.2127 C.3     1  UNL1        0.0041
      7 C         -10.1038  -19.5152   23.4393 C.3     1  UNL1        0.0003
      8 C         -10.5436  -18.9965   22.5558 C.3     1  UNL1        0.0001
      9 C         -10.4122  -19.1256   22.7483 C.3     1  UNL1        0.0017
     10 C         -10.5414  -18.9243   22.3541 C.3     1  UNL1        0.0188
     11 C          -9.7564  -18.8159   21.0805 C.3     1  UNL1        0.0621
     12 C         -11.1332  -18.2265   21.1655 C.3     1  UNL1        0.0420
     13 C         -11.9181  -18.3349   22.4390 C.ar    1  UNL1       -0.0246
     14 C         -13.2948  -17.7455   22.5239 C.ar    1  UNL1       -0.0014
     15 C         -14.0799  -17.8539   23.7976 C.ar    1  UNL1        0.0363
     16 C         -13.4881  -18.5517   24.9862 C.ar    1  UNL1        0.1333
     17 O         -14.2731  -18.6601   26.2598 O.3     1  UNL1       -0.5055
     18 C         -12.1113  -19.1412   24.9013 C.ar    1  UNL1        0.0320
     19 C         -11.3264  -19.0327   23.6277 C.ar    1  UNL1       -0.0236
     20 H         -15.1331  -18.2920   26.3129 H       1  UNL1        0.2922
@<TRIPOS>BOND
     1     1     2    1
     2     2     3    1
     3     3     4    1
     4     5     4    1
     5     5     6    1
     6     6     7    1
     7     7     8    1
     8     8     9    1
     9    10     9    1
    10    10    11    1
    11    11    12    1
    12    12    13    1
    13    13    14   ar
    14    14    15   ar
    15    15    16   ar
    16    16    17    1
    17    16    18   ar
    18    18    19   ar
    19    11     2    1
    20    19    13   ar
    21    10     5    1
    22    19     5    1
    23    17    20    1
@<TRIPOS>MOLECULE
*****
 20 23 0 0 0
SMALL
GASTEIGER

@<TRIPOS>ATOM
      1 C         -10.6478  -19.3191   20.2424 C.3     1  UNL1        0.0896
      2 N         -10.4118  -18.6930   21.5850 N.3     1  UNL1       -0.2724
      3 C         -11.4645  -18.7828   22.6498 C.3     1  UNL1        0.0724
      4 C         -11.2286  -18.1568   23.9923 C.3     1  UNL1        0.0214
      5 C          -9.9400  -17.4409   24.2700 C.3     1  UNL1        0.0213
      6 C          -9.5833  -17.3819   23.9838 C.3     1  UNL1        0.0041
      7 C          -9.7498  -17.3809   24.1919 C.3     1  UNL1        0.0003
      8 C          -8.9673  -17.3141   23.4004 C.3     1  UNL1        0.0001
      9 C          -9.1721  -17.3468   23.5678 C.3     1  UNL1        0.0017
     10 C          -8.8873  -17.3511   23.2052 C.3     1  UNL1        0.0188
     11 C          -9.1233  -17.9772   21.8626 C.3     1  UNL1        0.0621
     12 C          -7.8347  -17.2613   22.1404 C.3     1  UNL1        0.0420
     13 C          -7.5988  -16.6352   23.4829 C.ar    1  UNL1       -0.0246
     14 C          -6.3103  -15.9194   23.7605 C.ar    1  UNL1       -0.0014
     15 C          -6.0743  -15.2933   25.1031 C.ar    1  UNL1        0.0363
     16 C          -7.1269  -15.3831   26.1679 C.ar    1  UNL1        0.1333
     17 O          -6.8910  -14.7570   27.5104 O.3     1  UNL1       -0.5055
     18 C          -8.4155  -16.0990   25.8902 C.ar    1  UNL1        0.0320
     19 C          -8.6514  -16.7250   24.5477 C.ar    1  UNL1       -0.0236
     20 H          -6.0861  -14.3098   27.6839 H       1  UNL1        0.2922
@<TRIPOS>BOND
     1     1     2    1
     2     2     3    1
     3     3     4    1
     4     5     4    1
     5     5     6    1
     6     6     7    1
     7     7     8    1
     8     8     9    1
     9    10     9    1
    10    10    11    1
    11    11    12    1
    12    12    13    1
    13    13    14   ar
    14    14    15   ar
    15    15    16   ar
    16    16    17    1
    17    16    18   ar
    18    18    19   ar
    19    11     2    1
    20    19    13   ar
    21    10     5    1
    22    19     5    1
    23    17    20    1
@<TRIPOS>MOLECULE
*****
 20 23 0 0 0
SMALL
GASTEIGER

@<TRIPOS>ATOM
      1 C         -11.0884  -17.7467   21.0388 C.3     1  UNL1        0.0896
      2 N          -9.7625  -18.3620   20.7015 N.3     1  UNL1       -0.2724
      3 C          -9.6305  -19.2453   19.4964 C.3     1  UNL1        0.0724
      4 C          -8.3048  -19.8606   19.1591 C.3     1  UNL1        0.0214
      5 C          -7.1110  -19.5927   20.0269 C.3     1  UNL1        0.0213
      6 C          -7.0918  -19.3317   20.4066 C.3     1  UNL1        0.0041
      7 C          -7.0369  -19.4919   20.2008 C.3     1  UNL1        0.0003
      8 C          -7.1350  -18.8353   21.0966 C.3     1  UNL1        0.0001
      9 C          -7.1433  -18.9867   20.8774 C.3     1  UNL1        0.0017
     10 C          -7.2430  -18.7094   21.2321 C.3     1  UNL1        0.0188
     11 C          -8.5688  -18.0940   21.5693 C.3     1  UNL1        0.0621
     12 C          -7.3750  -17.8260   22.4372 C.3     1  UNL1        0.0420
     13 C          -6.0493  -18.4414   22.0999 C.ar    1  UNL1       -0.0246
     14 C          -4.8556  -18.1733   22.9677 C.ar    1  UNL1       -0.0014
     15 C          -3.5298  -18.7887   22.6304 C.ar    1  UNL1        0.0363
     16 C          -3.3978  -19.6720   21.4253 C.ar    1  UNL1        0.1333
     17 O          -2.0720  -20.2873   21.0880 O.3     1  UNL1       -0.5055
     18 C          -4.5916  -19.9400   20.5575 C.ar    1  UNL1        0.0320
     19 C          -5.9173  -19.3247   20.8948 C.ar    1  UNL1       -0.0236
     20 H          -1.3263  -20.1199   21.6301 H       1  UNL1        0.2922
@<TRIPOS>BOND
     1     1     2    1
     2     2     3    1
     3     3     4    1
     4     5     4    1
     5     5     6    1
     6     6     7    1
     7     7     8    1
     8     8     9    1
     9    10     9    1
    10    10    11    1
    11    11    12    1
    12    12    13    1
    13    13    14   ar
    14    14    15   ar
    15    15    16   ar
    16    16    17    1
    17    16    18   ar
    18    18    19   ar
    19    11     2    1
    20    19    13   ar
    21    10     5    1
    22    19     5    1
    23    17    20    1
@<TRIPOS>MOLECULE
*****
 20 23 0 0 0
SMALL
GASTEIGER

@<TRIPOS>ATOM
      1 C         -10.4446  -19.6577   20.5295 C.3     1  UNL1        0.0896
      2 N          -9.1401  -19.2309   21.1347 N.3     1  UNL1       -0.2724
      3 C          -9.1263  -18.2674   22.2842 C.3     1  UNL1        0.0724
      4 C          -7.8218  -17.8407   22.8894 C.3     1  UNL1        0.0214
      5 C          -6.5312  -18.3774   22.3451 C.3     1  UNL1        0.0213
      6 C          -6.4742  -18.6735   21.9963 C.3     1  UNL1        0.0041
      7 C          -6.4392  -18.5050   22.1997 C.3     1  UNL1        0.0003
      8 C          -6.4495  -19.2212   21.3452 C.3     1  UNL1        0.0001
      9 C          -6.4796  -19.0499   21.5472 C.3     1  UNL1        0.0017
     10 C          -6.5451  -19.3408   21.1955 C.3     1  UNL1        0.0188
     11 C          -7.8496  -19.7676   20.5903 C.3     1  UNL1        0.0621
     12 C          -6.5589  -20.3043   20.0459 C.3     1  UNL1        0.0420
     13 C          -5.2545  -19.8775   20.6511 C.ar    1  UNL1       -0.0246
     14 C          -3.9640  -20.4142   20.1067 C.ar    1  UNL1       -0.0014
     15 C          -2.6594  -19.9875   20.7119 C.ar    1  UNL1        0.0363
     16 C          -2.6456  -19.0240   21.8615 C.ar    1  UNL1        0.1333
     17 O          -1.3412  -18.5972   22.4667 O.3     1  UNL1       -0.5055
     18 C          -3.9362  -18.4873   22.4059 C.ar    1  UNL1        0.0320
     19 C          -5.2406  -18.9141   21.8007 C.ar    1  UNL1       -0.0236
     20 H          -0.5350  -18.9325   22.1267 H       1  UNL1        0.2922
@<TRIPOS>BOND
     1     1     2    1
     2     2     3    1
     3     3     4    1
     4     5     4    1
     5     5     6    1
     6     6     7    1
     7     7     8    1
     8     8     9    1
     9    10     9    1
    10    10    11    1
    11    11    12    1
    12    12    13    1
    13    13    14   ar
    14    14    15   ar
    15    15    16   ar
    16    16    17    1
    17    16    18   ar
    18    18    19   ar
    19    11     2    1
    20    19    13   ar
    21    10     5    1
    22    19     5    1
    23    17    20    1
@<TRIPOS>MOLECULE
*****
 20 23 0 0 0
SMALL
GASTEIGER

@<TRIPOS>ATOM
      1 C         -13.6717  -18.0503   23.8233 C.3     1  UNL1        0.0896
      2 N         -12.2473  -18.5066   23.7085 N.3     1  UNL1       -0.2724
      3 C         -11.4596  -18.8242   24.9449 C.3     1  UNL1        0.0724
      4 C         -10.0353  -19.2804   24.8302 C.3     1  UNL1        0.0214
      5 C          -9.3987  -19.4191   23.4791 C.3     1  UNL1        0.0213
      6 C          -9.5900  -19.3363   23.0678 C.3     1  UNL1        0.0041
      7 C          -9.4253  -19.3998   23.2674 C.3     1  UNL1        0.0003
      8 C         -10.0108  -19.1637   22.3484 C.3     1  UNL1        0.0001
      9 C          -9.8977  -19.2123   22.5848 C.3     1  UNL1        0.0017
     10 C         -10.1864  -19.1014   22.2427 C.3     1  UNL1        0.0188
     11 C         -11.6107  -18.6452   22.3574 C.3     1  UNL1        0.0621
     12 C         -10.9740  -18.7838   21.0063 C.3     1  UNL1        0.0420
     13 C          -9.5498  -19.2401   20.8916 C.ar    1  UNL1       -0.0246
     14 C          -8.9132  -19.3787   19.5405 C.ar    1  UNL1       -0.0014
     15 C          -7.4888  -19.8350   19.4257 C.ar    1  UNL1        0.0363
     16 C          -6.7011  -20.1526   20.6621 C.ar    1  UNL1        0.1333
     17 O          -5.2768  -20.6089   20.5474 O.3     1  UNL1       -0.5055
     18 C          -7.3378  -20.0140   22.0133 C.ar    1  UNL1        0.0320
     19 C          -8.7621  -19.5577   22.1280 C.ar    1  UNL1       -0.0236
     20 H          -4.8792  -20.6955   19.7034 H       1  UNL1        0.2922
@<TRIPOS>BOND
     1     1     2    1
     2     2     3    1
     3     3     4    1
     4     5     4    1
     5     5     6    1
     6     6     7    1
     7     7     8    1
     8     8     9    1
     9    10     9    1
    10    10    11    1
    11    11    12    1
    12    12    13    1
    13    13    14   ar
    14    14    15   ar
    15    15    16   ar
    16    16    17    1
    17    16    18   ar
    18    18    19   ar
    19    11     2    1
    20    19    13   ar
    21    10     5    1
    22    19     5    1
    23    17    20    1
@<TRIPOS>MOLECULE
*****
 20 23 0 0 0
SMALL
GASTEIGER

@<TRIPOS>ATOM
      1 C         -14.1607  -18.5503   25.9446 C.3     1  UNL1        0.0896
      2 N         -13.3712  -18.4230   24.6755 N.3     1  UNL1       -0.2724
      3 C         -13.9668  -17.7257   23.4885 C.3     1  UNL1        0.0724
      4 C         -13.1774  -17.5983   22.2194 C.3     1  UNL1        0.0214
      5 C         -11.7923  -18.1683   22.1373 C.3     1  UNL1        0.0213
      6 C         -11.5595  -18.3912   22.4671 C.3     1  UNL1        0.0041
      7 C         -11.6372  -18.2738   22.2408 C.3     1  UNL1        0.0003
      8 C         -11.1945  -18.7922   23.1232 C.3     1  UNL1        0.0001
      9 C         -11.3268  -18.6636   22.9308 C.3     1  UNL1        0.0017
     10 C         -11.1967  -18.8656   23.3244 C.3     1  UNL1        0.0188
     11 C         -11.9862  -18.9930   24.5935 C.3     1  UNL1        0.0621
     12 C         -10.6011  -19.5630   24.5114 C.3     1  UNL1        0.0420
     13 C          -9.8116  -19.4356   23.2423 C.ar    1  UNL1       -0.0246
     14 C          -8.4266  -20.0056   23.1603 C.ar    1  UNL1       -0.0014
     15 C          -7.6371  -19.8783   21.8912 C.ar    1  UNL1        0.0363
     16 C          -8.2327  -19.1810   20.7042 C.ar    1  UNL1        0.1333
     17 O          -7.4433  -19.0536   19.4351 O.3     1  UNL1       -0.5055
     18 C          -9.6178  -18.6110   20.7863 C.ar    1  UNL1        0.0320
     19 C         -10.4072  -18.7383   22.0553 C.ar    1  UNL1       -0.0236
     20 H          -6.5781  -19.4097   19.3839 H       1  UNL1        0.2922
@<TRIPOS>BOND
     1     1     2    1
     2     2     3    1
     3     3     4    1
     4     5     4    1
     5     5     6    1
     6     6     7    1
     7     7     8    1
     8     8     9    1
     9    10     9    1
    10    10    11    1
    11    11    12    1
    12    12    13    1
    13    13    14   ar
    14    14    15   ar
    15    15    16   ar
    16    16    17    1
    17    16    18   ar
    18    18    19   ar
    19    11     2    1
    20    19    13   ar
    21    10     5    1
    22    19     5    1
    23    17    20    1
@<TRIPOS>MOLECULE
*****
 20 23 0 0 0
SMALL
GASTEIGER

@<TRIPOS>ATOM
      1 C         -15.3775   -1.4464   20.1070 C.3     1  UNL1        0.0896
      2 N         -14.7973   -2.8169   19.9194 N.3     1  UNL1       -0.2724
      3 C         -15.6608   -4.0290   20.1068 C.3     1  UNL1        0.0724
      4 C         -15.0806   -5.3994   19.9192 C.3     1  UNL1        0.0214
      5 C         -13.6368   -5.5578   19.5442 C.3     1  UNL1        0.0213
      6 C         -13.3260   -5.2246   19.4739 C.3     1  UNL1        0.0041
      7 C         -13.4529   -5.4575   19.4999 C.3     1  UNL1        0.0003
      8 C         -12.8110   -4.5565   19.3606 C.3     1  UNL1        0.0001
      9 C         -12.9886   -4.7511   19.4007 C.3     1  UNL1        0.0017
     10 C         -12.7733   -4.3457   19.3569 C.3     1  UNL1        0.0188
     11 C         -13.3536   -2.9752   19.5445 C.3     1  UNL1        0.0621
     12 C         -11.9098   -3.1336   19.1695 C.3     1  UNL1        0.0420
     13 C         -11.3296   -4.5040   18.9819 C.ar    1  UNL1       -0.0246
     14 C          -9.8859   -4.6623   18.6070 C.ar    1  UNL1       -0.0014
     15 C          -9.3057   -6.0328   18.4194 C.ar    1  UNL1        0.0363
     16 C         -10.1692   -7.2449   18.6068 C.ar    1  UNL1        0.1333
     17 O          -9.5890   -8.6154   18.4192 O.3     1  UNL1       -0.5055
     18 C         -11.6129   -7.0866   18.9817 C.ar    1  UNL1        0.0320
     19 C         -12.1931   -5.7161   19.1693 C.ar    1  UNL1       -0.0236
     20 H          -8.6871   -8.7143   18.1850 H       1  UNL1        0.2922
@<TRIPOS>BOND
     1     1     2    1
     2     2     3    1
     3     3     4    1
     4     5     4    1
     5     5     6    1
     6     6     7    1
     7     7     8    1
     8     8     9    1
     9    10     9    1
    10    10    11    1
    11    11    12    1
    12    12    13    1
    13    13    14   ar
    14    14    15   ar
    15    15    16   ar
    16    16    17    1
    17    16    18   ar
    18    18    19   ar
    19    11     2    1
    20    19    13   ar
    21    10     5    1
    22    19     5    1
    23    17    20    1
@<TRIPOS>MOLECULE
*****
 20 23 0 0 0
SMALL
GASTEIGER

@<TRIPOS>ATOM
      1 C          -3.8392  -17.8218   23.3428 C.3     1  UNL1        0.0896
      2 N          -5.2592  -17.3740   23.1605 N.3     1  UNL1       -0.2724
      3 C          -5.7297  -16.0969   23.7910 C.3     1  UNL1        0.0724
      4 C          -7.1496  -15.6491   23.6087 C.3     1  UNL1        0.0214
      5 C          -8.0991  -16.4785   22.7958 C.3     1  UNL1        0.0213
      6 C          -8.0116  -16.8766   22.5802 C.3     1  UNL1        0.0041
      7 C          -8.1243  -16.6561   22.6789 C.3     1  UNL1        0.0003
      8 C          -7.7746  -17.6055   22.2102 C.3     1  UNL1        0.0001
      9 C          -7.8278  -17.3755   22.3339 C.3     1  UNL1        0.0017
     10 C          -7.6286  -17.7556   22.1652 C.3     1  UNL1        0.0188
     11 C          -6.2086  -18.2033   22.3476 C.3     1  UNL1        0.0621
     12 C          -7.1580  -19.0327   21.5347 C.3     1  UNL1        0.0420
     13 C          -8.5780  -18.5849   21.3524 C.ar    1  UNL1       -0.0246
     14 C          -9.5273  -19.4142   20.5395 C.ar    1  UNL1       -0.0014
     15 C         -10.9474  -18.9665   20.3571 C.ar    1  UNL1        0.0363
     16 C         -11.4179  -17.6894   20.9877 C.ar    1  UNL1        0.1333
     17 O         -12.8378  -17.2416   20.8054 O.3     1  UNL1       -0.5055
     18 C         -10.4684  -16.8600   21.8006 C.ar    1  UNL1        0.0320
     19 C          -9.0485  -17.3078   21.9829 C.ar    1  UNL1       -0.0236
     20 H         -13.4309  -17.7596   20.2976 H       1  UNL1        0.2922
@<TRIPOS>BOND
     1     1     2    1
     2     2     3    1
     3     3     4    1
     4     5     4    1
     5     5     6    1
     6     6     7    1
     7     7     8    1
     8     8     9    1
     9    10     9    1
    10    10    11    1
    11    11    12    1
    12    12    13    1
    13    13    14   ar
    14    14    15   ar
    15    15    16   ar
    16    16    17    1
    17    16    18   ar
    18    18    19   ar
    19    11     2    1
    20    19    13   ar
    21    10     5    1
    22    19     5    1
    23    17    20    1
@<TRIPOS>MOLECULE
*****
 20 23 0 0 0
SMALL
GASTEIGER

@<TRIPOS>ATOM
      1 C         -11.3849  -19.4331   21.1968 C.3     1  UNL1        0.0896
      2 N         -10.5557  -18.3872   21.8815 N.3     1  UNL1       -0.2724
      3 C          -9.9485  -17.2711   21.0844 C.3     1  UNL1        0.0724
      4 C          -9.1193  -16.2253   21.7690 C.3     1  UNL1        0.0214
      5 C          -8.8974  -16.2956   23.2509 C.3     1  UNL1        0.0213
      6 C          -9.0577  -16.6126   23.5449 C.3     1  UNL1        0.0041
      7 C          -8.9374  -16.4035   23.4315 C.3     1  UNL1        0.0003
      8 C          -9.3888  -17.2332   24.0241 C.3     1  UNL1        0.0001
      9 C          -9.2949  -17.0486   23.8563 C.3     1  UNL1        0.0017
     10 C          -9.5047  -17.4117   24.0481 C.3     1  UNL1        0.0188
     11 C         -10.3339  -18.4575   23.3633 C.3     1  UNL1        0.0621
     12 C         -10.1120  -18.5278   24.8452 C.3     1  UNL1        0.0420
     13 C          -9.2829  -17.4820   25.5299 C.ar    1  UNL1       -0.0246
     14 C          -9.0610  -17.5523   27.0117 C.ar    1  UNL1       -0.0014
     15 C          -8.2319  -16.5064   27.6964 C.ar    1  UNL1        0.0363
     16 C          -7.6246  -15.3903   26.8992 C.ar    1  UNL1        0.1333
     17 O          -6.7955  -14.3445   27.5838 O.3     1  UNL1       -0.5055
     18 C          -7.8465  -15.3200   25.4173 C.ar    1  UNL1        0.0320
     19 C          -8.6756  -16.3658   24.7327 C.ar    1  UNL1       -0.0236
     20 H          -6.6569  -14.3884   28.5095 H       1  UNL1        0.2922
@<TRIPOS>BOND
     1     1     2    1
     2     2     3    1
     3     3     4    1
     4     5     4    1
     5     5     6    1
     6     6     7    1
     7     7     8    1
     8     8     9    1
     9    10     9    1
    10    10    11    1
    11    11    12    1
    12    12    13    1
    13    13    14   ar
    14    14    15   ar
    15    15    16   ar
    16    16    17    1
    17    16    18   ar
    18    18    19   ar
    19    11     2    1
    20    19    13   ar
    21    10     5    1
    22    19     5    1
    23    17    20    1
