@<TRIPOS>MOLECULE
*****
 28 31 0 0 0
SMALL
GASTEIGER

@<TRIPOS>ATOM
      1 C          -0.0547    3.3847   21.1512 C.2     1  UNL1        0.2463
      2 O           1.2226    3.3445   21.9368 O.2     1  UNL1       -0.2729
      3 N          -0.3040    2.3725   20.0728 N.am    1  UNL1       -0.2825
      4 H          -1.1423    2.3989   19.5572 H       1  UNL1        0.1549
      5 C           0.7238    1.3200   19.7799 C.ar    1  UNL1        0.0503
      6 C           0.7118    0.0275   20.5412 C.ar    1  UNL1        0.0147
      7 C           1.7397   -1.0250   20.2483 C.ar    1  UNL1        0.0033
      8 C           2.7795   -0.7851   19.1941 C.ar    1  UNL1        0.0239
      9 C           2.7914    0.5073   18.4328 C.ar    1  UNL1        0.0033
     10 C           1.7636    1.5598   18.7257 C.ar    1  UNL1        0.0147
     11 C           3.8073   -1.8376   18.9012 C.ar    1  UNL1        0.1108
     12 N           3.6670   -3.3064   19.1714 N.ar    1  UNL1       -0.2368
     13 C           4.9288   -3.9827   18.7239 C.ar    1  UNL1        0.1064
     14 C           5.8491   -2.9319   18.1771 C.ar    1  UNL1        0.0575
     15 S           5.1559   -1.6062   18.2867 S.2     1  UNL1       -0.0659
     16 C          -1.0825    4.4373   21.4441 C.3     1  UNL1        0.1774
     17 C          -4.4902    3.9178   16.6272 C.3     1  UNL1        0.1235
     18 N          -4.3385    3.8478   18.1179 N.am    1  UNL1       -0.2203
     19 C          -5.4188    3.5002   19.0987 C.2     1  UNL1        0.2524
     20 O          -6.8406    3.1615   18.7611 O.2     1  UNL1       -0.2698
     21 C          -4.8279    3.5507   20.4765 C.2     1  UNL1        0.0496
     22 C          -3.3823    3.9296   20.3472 C.2     1  UNL1        0.1032
     23 C          -3.0798    4.1132   18.8894 C.2     1  UNL1        0.2683
     24 O          -1.7519    4.4951   18.3058 O.2     1  UNL1       -0.2681
     25 N          -2.5281    4.0584   21.5735 N.pl3   1  UNL1       -0.2964
     26 C          -3.1195    3.8084   22.9291 C.3     1  UNL1        0.0917
     27 C          -4.5651    3.4296   23.0584 C.3     1  UNL1        0.0263
     28 C          -5.4193    3.3007   21.8321 C.3     1  UNL1        0.0342
@<TRIPOS>BOND
     1    17    18    1
     2    18    19   am
     3    19    20    2
     4    19    21    1
     5    21    22    2
     6    22    23    1
     7    23    24    2
     8    22    25    1
     9    25    16    1
    10    16     1    1
    11     1     2    2
    12     1     3   am
    13     3     5    1
    14     5     6   ar
    15     6     7   ar
    16     7     8   ar
    17     8    11    1
    18    11    12   ar
    19    12    13   ar
    20    13    14   ar
    21    14    15   ar
    22     8     9   ar
    23     9    10   ar
    24    25    26    1
    25    26    27    1
    26    27    28    1
    27    23    18   am
    28    10     5   ar
    29    28    21    1
    30    15    11   ar
    31     3     4    1
@<TRIPOS>MOLECULE
*****
 28 31 0 0 0
SMALL
GASTEIGER

@<TRIPOS>ATOM
      1 C          -0.2188    3.4327   20.9367 C.2     1  UNL1        0.2463
      2 O           1.1670    3.6344   21.4742 O.2     1  UNL1       -0.2729
      3 N          -0.5280    2.2331   20.0909 N.am    1  UNL1       -0.2825
      4 H          -1.4375    2.1008   19.7381 H       1  UNL1        0.1549
      5 C           0.5487    1.2352   19.7826 C.ar    1  UNL1        0.0503
      6 C           1.4287    1.4278   18.5831 C.ar    1  UNL1        0.0147
      7 C           2.5053    0.4299   18.2748 C.ar    1  UNL1        0.0033
      8 C           2.7019   -0.7606   19.1659 C.ar    1  UNL1        0.0239
      9 C           1.8220   -0.9532   20.3653 C.ar    1  UNL1        0.0033
     10 C           0.7453    0.0447   20.6736 C.ar    1  UNL1        0.0147
     11 C           3.7786   -1.7585   18.8576 C.ar    1  UNL1        0.1108
     12 N           3.6921   -3.2414   19.0659 N.ar    1  UNL1       -0.2368
     13 C           4.9908   -3.8481   18.6239 C.ar    1  UNL1        0.1064
     14 C           5.8799   -2.7401   18.1424 C.ar    1  UNL1        0.0575
     15 S           5.1307   -1.4487   18.2868 S.2     1  UNL1       -0.0659
     16 C          -1.2955    4.4306   21.2450 C.3     1  UNL1        0.1774
     17 C          -1.3326    5.0012   27.1406 C.3     1  UNL1        0.1235
     18 N          -2.0276    4.5897   25.8765 N.am    1  UNL1       -0.2203
     19 C          -3.4084    4.0120   25.7774 C.2     1  UNL1        0.2524
     20 O          -4.3366    3.7444   26.9249 O.2     1  UNL1       -0.2698
     21 C          -3.6980    3.7490   24.3294 C.2     1  UNL1        0.0496
     22 C          -2.4963    4.1642   23.5335 C.2     1  UNL1        0.1032
     23 C          -1.4639    4.6838   24.4897 C.2     1  UNL1        0.2683
     24 O          -0.1062    5.2057   24.1233 O.2     1  UNL1       -0.2681
     25 N          -2.4973    4.0154   22.0409 N.pl3   1  UNL1       -0.2964
     26 C          -3.7000    3.4515   21.3441 C.3     1  UNL1        0.0917
     27 C          -4.9017    3.0364   22.1400 C.3     1  UNL1        0.0263
     28 C          -4.9007    3.1852   23.6326 C.3     1  UNL1        0.0342
@<TRIPOS>BOND
     1    17    18    1
     2    18    19   am
     3    19    20    2
     4    19    21    1
     5    21    22    2
     6    22    23    1
     7    23    24    2
     8    22    25    1
     9    25    16    1
    10    16     1    1
    11     1     2    2
    12     1     3   am
    13     3     5    1
    14     5     6   ar
    15     6     7   ar
    16     7     8   ar
    17     8    11    1
    18    11    12   ar
    19    12    13   ar
    20    13    14   ar
    21    14    15   ar
    22     8     9   ar
    23     9    10   ar
    24    25    26    1
    25    26    27    1
    26    27    28    1
    27    23    18   am
    28    10     5   ar
    29    28    21    1
    30    15    11   ar
    31     3     4    1
@<TRIPOS>MOLECULE
*****
 28 31 0 0 0
SMALL
GASTEIGER

@<TRIPOS>ATOM
      1 C          -7.8702  -19.7332   22.2089 C.2     1  UNL1        0.2463
      2 O          -7.5723  -18.3370   22.6692 O.2     1  UNL1       -0.2729
      3 N          -6.8225  -20.5228   21.4816 N.am    1  UNL1       -0.2825
      4 H          -7.0180  -21.4392   21.1796 H       1  UNL1        0.1549
      5 C          -5.4769  -19.9162   21.2147 C.ar    1  UNL1        0.0503
      6 C          -5.0682  -19.5865   19.8095 C.ar    1  UNL1        0.0147
      7 C          -3.7226  -18.9798   19.5425 C.ar    1  UNL1        0.0033
      8 C          -2.7856  -18.7029   20.6807 C.ar    1  UNL1        0.0239
      9 C          -3.1942  -19.0326   22.0858 C.ar    1  UNL1        0.0033
     10 C          -4.5399  -19.6392   22.3528 C.ar    1  UNL1        0.0147
     11 C          -1.4400  -18.0963   20.4137 C.ar    1  UNL1        0.1108
     12 N          -0.2034  -18.8396   20.0033 N.ar    1  UNL1       -0.2368
     13 C           0.9062  -17.8425   19.8462 C.ar    1  UNL1        0.1064
     14 C           0.3554  -16.4830   20.1596 C.ar    1  UNL1        0.0575
     15 S          -1.0946  -16.6398   20.5103 S.2     1  UNL1       -0.0659
     16 C          -9.2158  -20.3399   22.4759 C.3     1  UNL1        0.1774
     17 C         -11.4689  -15.8265   19.3713 C.3     1  UNL1        0.1235
     18 N         -11.4542  -16.6579   20.6198 N.am    1  UNL1       -0.2203
     19 C         -12.3368  -16.4658   21.8173 C.2     1  UNL1        0.2524
     20 O         -13.3890  -15.4087   21.9767 O.2     1  UNL1       -0.2698
     21 C         -11.9825  -17.5164   22.8276 C.2     1  UNL1        0.0496
     22 C         -10.8809  -18.3578   22.2545 C.2     1  UNL1        0.1032
     23 C         -10.5544  -17.8272   20.8899 C.2     1  UNL1        0.2683
     24 O          -9.5112  -18.3706   19.9590 O.2     1  UNL1       -0.2681
     25 N         -10.3174  -19.4985   23.0491 N.pl3   1  UNL1       -0.2964
     26 C         -10.8555  -19.7977   24.4169 C.3     1  UNL1        0.0917
     27 C         -11.9571  -18.9563   24.9900 C.3     1  UNL1        0.0263
     28 C         -12.5206  -17.8157   24.1954 C.3     1  UNL1        0.0342
@<TRIPOS>BOND
     1    17    18    1
     2    18    19   am
     3    19    20    2
     4    19    21    1
     5    21    22    2
     6    22    23    1
     7    23    24    2
     8    22    25    1
     9    25    16    1
    10    16     1    1
    11     1     2    2
    12     1     3   am
    13     3     5    1
    14     5     6   ar
    15     6     7   ar
    16     7     8   ar
    17     8    11    1
    18    11    12   ar
    19    12    13   ar
    20    13    14   ar
    21    14    15   ar
    22     8     9   ar
    23     9    10   ar
    24    25    26    1
    25    26    27    1
    26    27    28    1
    27    23    18   am
    28    10     5   ar
    29    28    21    1
    30    15    11   ar
    31     3     4    1
@<TRIPOS>MOLECULE
*****
 28 31 0 0 0
SMALL
GASTEIGER

@<TRIPOS>ATOM
      1 C           4.9003   -1.6101   33.5369 C.2     1  UNL1        0.2463
      2 O           3.9011   -2.7049   33.3067 O.2     1  UNL1       -0.2729
      3 N           6.1598   -1.5610   32.7238 N.am    1  UNL1       -0.2825
      4 H           6.8156   -0.8424   32.8749 H       1  UNL1        0.1549
      5 C           6.4201   -2.6067   31.6804 C.ar    1  UNL1        0.0503
      6 C           6.2905   -2.2635   30.2259 C.ar    1  UNL1        0.0147
      7 C           6.5508   -3.3093   29.1825 C.ar    1  UNL1        0.0033
      8 C           6.9407   -4.6982   29.5936 C.ar    1  UNL1        0.0239
      9 C           7.0704   -5.0413   31.0480 C.ar    1  UNL1        0.0033
     10 C           6.8100   -3.9956   32.0914 C.ar    1  UNL1        0.0147
     11 C           7.2011   -5.7439   28.5502 C.ar    1  UNL1        0.1108
     12 N           8.0650   -6.9589   28.7158 N.ar    1  UNL1       -0.2368
     13 C           8.0410   -7.7242   27.4260 C.ar    1  UNL1        0.1064
     14 C           7.1623   -6.9822   26.4631 C.ar    1  UNL1        0.0575
     15 S           6.6431   -5.7583   27.1579 S.2     1  UNL1       -0.0659
     16 C           4.6400   -0.5643   34.5803 C.3     1  UNL1        0.1774
     17 C           3.1643    3.2931   38.8262 C.3     1  UNL1        0.1235
     18 N           3.0615    2.8362   37.4011 N.am    1  UNL1       -0.2203
     19 C           2.2627    3.4990   36.3182 C.2     1  UNL1        0.2524
     20 O           1.4263    4.7348   36.4703 O.2     1  UNL1       -0.2698
     21 C           2.4470    2.7089   35.0566 C.2     1  UNL1        0.0496
     22 C           3.3598    1.5579   35.3597 C.2     1  UNL1        0.1032
     23 C           3.7396    1.6365   36.8088 C.2     1  UNL1        0.2683
     24 O           4.6395    0.6830   37.5374 O.2     1  UNL1       -0.2681
     25 N           3.7272    0.5867   34.2771 N.pl3   1  UNL1       -0.2964
     26 C           3.1818    0.7667   32.8915 C.3     1  UNL1        0.0917
     27 C           2.2691    1.9177   32.5883 C.3     1  UNL1        0.0263
     28 C           1.9017    2.8888   33.6709 C.3     1  UNL1        0.0342
@<TRIPOS>BOND
     1    17    18    1
     2    18    19   am
     3    19    20    2
     4    19    21    1
     5    21    22    2
     6    22    23    1
     7    23    24    2
     8    22    25    1
     9    25    16    1
    10    16     1    1
    11     1     2    2
    12     1     3   am
    13     3     5    1
    14     5     6   ar
    15     6     7   ar
    16     7     8   ar
    17     8    11    1
    18    11    12   ar
    19    12    13   ar
    20    13    14   ar
    21    14    15   ar
    22     8     9   ar
    23     9    10   ar
    24    25    26    1
    25    26    27    1
    26    27    28    1
    27    23    18   am
    28    10     5   ar
    29    28    21    1
    30    15    11   ar
    31     3     4    1
@<TRIPOS>MOLECULE
*****
 28 31 0 0 0
SMALL
GASTEIGER

@<TRIPOS>ATOM
      1 C           0.5853    3.5223   19.2675 C.2     1  UNL1        0.2463
      2 O           1.6736    3.6811   20.2876 O.2     1  UNL1       -0.2729
      3 N           0.4257    2.2218   18.5374 N.am    1  UNL1       -0.2825
      4 H          -0.2885    2.1176   17.8679 H       1  UNL1        0.1549
      5 C           1.3543    1.0800   18.8273 C.ar    1  UNL1        0.0503
      6 C           2.6525    0.9620   18.0851 C.ar    1  UNL1        0.0147
      7 C           3.5811   -0.1797   18.3750 C.ar    1  UNL1        0.0033
      8 C           3.2115   -1.2035   19.4072 C.ar    1  UNL1        0.0239
      9 C           1.9134   -1.0855   20.1494 C.ar    1  UNL1        0.0033
     10 C           0.9848    0.0562   19.8594 C.ar    1  UNL1        0.0147
     11 C           4.1401   -2.3453   19.6972 C.ar    1  UNL1        0.1108
     12 N           4.0224   -3.7378   19.1521 N.ar    1  UNL1       -0.2368
     13 C           5.1590   -4.5482   19.7012 C.ar    1  UNL1        0.1064
     14 C           5.9792   -3.6565   20.5855 C.ar    1  UNL1        0.0575
     15 S           5.3495   -2.2951   20.5830 S.2     1  UNL1       -0.0659
     16 C          -0.3433    4.6641   18.9775 C.3     1  UNL1        0.1774
     17 C          -5.3208    3.3503   21.9072 C.3     1  UNL1        0.1235
     18 N          -4.6099    3.5929   20.6088 N.am    1  UNL1       -0.2203
     19 C          -5.2264    3.5382   19.2424 C.2     1  UNL1        0.2524
     20 O          -6.6620    3.2313   18.9345 O.2     1  UNL1       -0.2698
     21 C          -4.1552    3.8443   18.2380 C.2     1  UNL1        0.0496
     22 C          -2.8767    4.0881   18.9835 C.2     1  UNL1        0.1032
     23 C          -3.1577    3.9328   20.4488 C.2     1  UNL1        0.2683
     24 O          -2.1614    4.0898   21.5591 O.2     1  UNL1       -0.2681
     25 N          -1.6218    4.4202   18.2319 N.pl3   1  UNL1       -0.2964
     26 C          -1.6454    4.5084   16.7347 C.3     1  UNL1        0.0917
     27 C          -2.9239    4.2645   15.9892 C.3     1  UNL1        0.0263
     28 C          -4.1788    3.9324   16.7408 C.3     1  UNL1        0.0342
@<TRIPOS>BOND
     1    17    18    1
     2    18    19   am
     3    19    20    2
     4    19    21    1
     5    21    22    2
     6    22    23    1
     7    23    24    2
     8    22    25    1
     9    25    16    1
    10    16     1    1
    11     1     2    2
    12     1     3   am
    13     3     5    1
    14     5     6   ar
    15     6     7   ar
    16     7     8   ar
    17     8    11    1
    18    11    12   ar
    19    12    13   ar
    20    13    14   ar
    21    14    15   ar
    22     8     9   ar
    23     9    10   ar
    24    25    26    1
    25    26    27    1
    26    27    28    1
    27    23    18   am
    28    10     5   ar
    29    28    21    1
    30    15    11   ar
    31     3     4    1
@<TRIPOS>MOLECULE
*****
 28 31 0 0 0
SMALL
GASTEIGER

@<TRIPOS>ATOM
      1 C          -0.0760    3.1248   21.2258 C.2     1  UNL1        0.2463
      2 O           1.0194    3.4572   20.2563 O.2     1  UNL1       -0.2729
      3 N          -0.1569    1.7517   21.8239 N.am    1  UNL1       -0.2825
      4 H          -0.8758    1.5335   22.4602 H       1  UNL1        0.1549
      5 C           0.8574    0.7109   21.4527 C.ar    1  UNL1        0.0503
      6 C           0.6963   -0.0750   20.1851 C.ar    1  UNL1        0.0147
      7 C           1.7106   -1.1158   19.8139 C.ar    1  UNL1        0.0033
      8 C           2.8861   -1.3707   20.7101 C.ar    1  UNL1        0.0239
      9 C           3.0472   -0.5849   21.9776 C.ar    1  UNL1        0.0033
     10 C           2.0329    0.4559   22.3489 C.ar    1  UNL1        0.0147
     11 C           3.9005   -2.4115   20.3389 C.ar    1  UNL1        0.1108
     12 N           5.2888   -2.5274   20.8947 N.ar    1  UNL1       -0.2368
     13 C           5.9510   -3.7067   20.2460 C.ar    1  UNL1        0.1064
     14 C           4.9718   -4.3197   19.2891 C.ar    1  UNL1        0.0575
     15 S           3.7046   -3.5192   19.3466 S.2     1  UNL1       -0.0659
     16 C          -1.0903    4.1656   21.5970 C.3     1  UNL1        0.1774
     17 C          -5.4945    4.4751   25.5458 C.3     1  UNL1        0.1235
     18 N          -5.0387    4.2947   24.1281 N.am    1  UNL1       -0.2203
     19 C          -5.9246    4.0654   22.9395 C.2     1  UNL1        0.2524
     20 O          -7.4218    3.9762   22.9600 O.2     1  UNL1       -0.2698
     21 C          -5.0504    3.9409   21.7270 C.2     1  UNL1        0.0496
     22 C          -3.6243    4.0933   22.1660 C.2     1  UNL1        0.1032
     23 C          -3.6170    4.3120   23.6501 C.2     1  UNL1        0.2683
     24 O          -2.4015    4.5126   24.5057 O.2     1  UNL1       -0.2681
     25 N          -2.5165    4.0132   21.1579 N.pl3   1  UNL1       -0.2964
     26 C          -2.8349    3.7808   19.7106 C.3     1  UNL1        0.0917
     27 C          -4.2610    3.6284   19.2716 C.3     1  UNL1        0.0263
     28 C          -5.3688    3.7084   20.2797 C.3     1  UNL1        0.0342
@<TRIPOS>BOND
     1    17    18    1
     2    18    19   am
     3    19    20    2
     4    19    21    1
     5    21    22    2
     6    22    23    1
     7    23    24    2
     8    22    25    1
     9    25    16    1
    10    16     1    1
    11     1     2    2
    12     1     3   am
    13     3     5    1
    14     5     6   ar
    15     6     7   ar
    16     7     8   ar
    17     8    11    1
    18    11    12   ar
    19    12    13   ar
    20    13    14   ar
    21    14    15   ar
    22     8     9   ar
    23     9    10   ar
    24    25    26    1
    25    26    27    1
    26    27    28    1
    27    23    18   am
    28    10     5   ar
    29    28    21    1
    30    15    11   ar
    31     3     4    1
@<TRIPOS>MOLECULE
*****
 28 31 0 0 0
SMALL
GASTEIGER

@<TRIPOS>ATOM
      1 C           7.3664   -3.0064   22.6493 C.2     1  UNL1        0.2463
      2 O           8.5551   -2.4567   23.3807 O.2     1  UNL1       -0.2729
      3 N           6.3166   -3.7754   23.3953 N.am    1  UNL1       -0.2825
      4 H           5.5364   -4.1362   22.9152 H       1  UNL1        0.1549
      5 C           6.4554   -3.9947   24.8726 C.ar    1  UNL1        0.0503
      6 C           6.1915   -2.8673   25.8263 C.ar    1  UNL1        0.0147
      7 C           6.3303   -3.0866   27.3036 C.ar    1  UNL1        0.0033
      8 C           6.7329   -4.4333   27.8274 C.ar    1  UNL1        0.0239
      9 C           6.9967   -5.5607   26.8738 C.ar    1  UNL1        0.0033
     10 C           6.8579   -5.3414   25.3964 C.ar    1  UNL1        0.0147
     11 C           6.8717   -4.6527   29.3048 C.ar    1  UNL1        0.1108
     12 N           7.1684   -5.9598   29.9780 N.ar    1  UNL1       -0.2368
     13 C           7.2182   -5.7184   31.4577 C.ar    1  UNL1        0.1064
     14 C           6.9523   -4.2620   31.6988 C.ar    1  UNL1        0.0575
     15 S           6.7381   -3.6033   30.3683 S.2     1  UNL1       -0.0659
     16 C           7.2276   -2.7871   21.1719 C.3     1  UNL1        0.1774
     17 C           2.9186    1.2333   21.7668 C.3     1  UNL1        0.1235
     18 N           3.4043   -0.0680   21.2002 N.am    1  UNL1       -0.2203
     19 C           2.6156   -0.9987   20.3274 C.2     1  UNL1        0.2524
     20 O           1.2028   -0.7916   19.8680 O.2     1  UNL1       -0.2698
     21 C           3.4877   -2.1728   19.9947 C.2     1  UNL1        0.0496
     22 C           4.8154   -1.9678   20.6618 C.2     1  UNL1        0.1032
     23 C           4.7639   -0.6669   21.4069 C.2     1  UNL1        0.2683
     24 O           5.8765   -0.0698   22.2165 O.2     1  UNL1       -0.2681
     25 N           5.8999   -2.9922   20.5047 N.pl3   1  UNL1       -0.2964
     26 C           5.6566   -4.2215   19.6805 C.3     1  UNL1        0.0917
     27 C           4.3289   -4.4266   19.0133 C.3     1  UNL1        0.0263
     28 C           3.2445   -3.4022   19.1704 C.3     1  UNL1        0.0342
@<TRIPOS>BOND
     1    17    18    1
     2    18    19   am
     3    19    20    2
     4    19    21    1
     5    21    22    2
     6    22    23    1
     7    23    24    2
     8    22    25    1
     9    25    16    1
    10    16     1    1
    11     1     2    2
    12     1     3   am
    13     3     5    1
    14     5     6   ar
    15     6     7   ar
    16     7     8   ar
    17     8    11    1
    18    11    12   ar
    19    12    13   ar
    20    13    14   ar
    21    14    15   ar
    22     8     9   ar
    23     9    10   ar
    24    25    26    1
    25    26    27    1
    26    27    28    1
    27    23    18   am
    28    10     5   ar
    29    28    21    1
    30    15    11   ar
    31     3     4    1
@<TRIPOS>MOLECULE
*****
 28 31 0 0 0
SMALL
GASTEIGER

@<TRIPOS>ATOM
      1 C           7.4739   -1.4504   27.4214 C.2     1  UNL1        0.2463
      2 O           8.2439   -0.8719   26.2714 O.2     1  UNL1       -0.2729
      3 N           6.2500   -2.2784   27.1637 N.am    1  UNL1       -0.2825
      4 H           5.7446   -2.6581   27.9185 H       1  UNL1        0.1549
      5 C           5.7961   -2.5279   25.7560 C.ar    1  UNL1        0.0503
      6 C           4.7078   -1.6861   25.1585 C.ar    1  UNL1        0.0147
      7 C           4.2538   -1.9356   23.7508 C.ar    1  UNL1        0.0033
      8 C           4.8883   -3.0270   22.9405 C.ar    1  UNL1        0.0239
      9 C           5.9765   -3.8688   23.5380 C.ar    1  UNL1        0.0033
     10 C           6.4304   -3.6193   24.9457 C.ar    1  UNL1        0.0147
     11 C           4.4343   -3.2766   21.5328 C.ar    1  UNL1        0.1108
     12 N           4.3552   -4.6127   20.8556 N.ar    1  UNL1       -0.2368
     13 C           3.8518   -4.3957   19.4594 C.ar    1  UNL1        0.1064
     14 C           3.6198   -2.9254   19.2736 C.ar    1  UNL1        0.0575
     15 S           3.9798   -2.2338   20.5550 S.2     1  UNL1       -0.0659
     16 C           7.9278   -1.2009   28.8292 C.3     1  UNL1        0.1774
     17 C           3.1456    0.0554   32.0906 C.3     1  UNL1        0.1235
     18 N           4.2965   -0.8550   31.7799 N.am    1  UNL1       -0.2203
     19 C           4.6237   -2.1359   32.4886 C.2     1  UNL1        0.2524
     20 O           3.8575   -2.7313   33.6324 O.2     1  UNL1       -0.2698
     21 C           5.8517   -2.7170   31.8526 C.2     1  UNL1        0.0496
     22 C           6.2835   -1.7952   30.7509 C.2     1  UNL1        0.1032
     23 C           5.3223   -0.6444   30.7059 C.2     1  UNL1        0.2683
     24 O           5.3773    0.5136   29.7541 O.2     1  UNL1       -0.2681
     25 N           7.4961   -2.1227   29.9309 N.pl3   1  UNL1       -0.2964
     26 C           8.2769   -3.3720   30.2127 C.3     1  UNL1        0.0917
     27 C           7.8452   -4.2938   31.3145 C.3     1  UNL1        0.0263
     28 C           6.6326   -3.9663   32.1344 C.3     1  UNL1        0.0342
@<TRIPOS>BOND
     1    17    18    1
     2    18    19   am
     3    19    20    2
     4    19    21    1
     5    21    22    2
     6    22    23    1
     7    23    24    2
     8    22    25    1
     9    25    16    1
    10    16     1    1
    11     1     2    2
    12     1     3   am
    13     3     5    1
    14     5     6   ar
    15     6     7   ar
    16     7     8   ar
    17     8    11    1
    18    11    12   ar
    19    12    13   ar
    20    13    14   ar
    21    14    15   ar
    22     8     9   ar
    23     9    10   ar
    24    25    26    1
    25    26    27    1
    26    27    28    1
    27    23    18   am
    28    10     5   ar
    29    28    21    1
    30    15    11   ar
    31     3     4    1
@<TRIPOS>MOLECULE
*****
 28 31 0 0 0
SMALL
GASTEIGER

@<TRIPOS>ATOM
      1 C         -13.1196   -0.9920   17.3240 C.2     1  UNL1        0.2463
      2 O         -12.3263   -0.5965   18.5342 O.2     1  UNL1       -0.2729
      3 N         -14.5818   -0.6669   17.2466 N.am    1  UNL1       -0.2825
      4 H         -15.1024   -0.9265   16.4523 H       1  UNL1        0.1549
      5 C         -15.2510    0.0536   18.3793 C.ar    1  UNL1        0.0503
      6 C         -16.0605   -0.7137   19.3824 C.ar    1  UNL1        0.0147
      7 C         -16.7297    0.0069   20.5151 C.ar    1  UNL1        0.0033
      8 C         -16.5893    1.4947   20.6448 C.ar    1  UNL1        0.0239
      9 C         -15.7798    2.2619   19.6418 C.ar    1  UNL1        0.0033
     10 C         -15.1106    1.5414   18.5090 C.ar    1  UNL1        0.0147
     11 C         -17.2584    2.2152   21.7775 C.ar    1  UNL1        0.1108
     12 N         -18.4081    1.7016   22.5926 N.ar    1  UNL1       -0.2368
     13 C         -18.7556    2.7449   23.6129 C.ar    1  UNL1        0.1064
     14 C         -17.8207    3.9033   23.4283 C.ar    1  UNL1        0.0575
     15 S         -16.8954    3.5759   22.2940 S.2     1  UNL1       -0.0659
     16 C         -12.4504   -1.7125   16.1913 C.3     1  UNL1        0.1774
     17 C         -13.8114   -6.5932   19.2591 C.3     1  UNL1        0.1235
     18 N         -12.7964   -5.7679   18.5250 N.am    1  UNL1       -0.2203
     19 C         -11.3524   -6.1205   18.3236 C.2     1  UNL1        0.2524
     20 O         -10.6699   -7.3602   18.8207 O.2     1  UNL1       -0.2698
     21 C         -10.7108   -5.0157   17.5376 C.2     1  UNL1        0.0496
     22 C         -11.7582   -3.9803   17.2534 C.2     1  UNL1        0.1032
     23 C         -13.0472   -4.4452   17.8636 C.2     1  UNL1        0.2683
     24 O         -14.3570   -3.7155   17.8201 O.2     1  UNL1       -0.2681
     25 N         -11.4029   -2.7479   16.4755 N.pl3   1  UNL1       -0.2964
     26 C         -10.0002   -2.5509   15.9820 C.3     1  UNL1        0.0917
     27 C          -8.9528   -3.5863   16.2663 C.3     1  UNL1        0.0263
     28 C          -9.3081   -4.8187   17.0441 C.3     1  UNL1        0.0342
@<TRIPOS>BOND
     1    17    18    1
     2    18    19   am
     3    19    20    2
     4    19    21    1
     5    21    22    2
     6    22    23    1
     7    23    24    2
     8    22    25    1
     9    25    16    1
    10    16     1    1
    11     1     2    2
    12     1     3   am
    13     3     5    1
    14     5     6   ar
    15     6     7   ar
    16     7     8   ar
    17     8    11    1
    18    11    12   ar
    19    12    13   ar
    20    13    14   ar
    21    14    15   ar
    22     8     9   ar
    23     9    10   ar
    24    25    26    1
    25    26    27    1
    26    27    28    1
    27    23    18   am
    28    10     5   ar
    29    28    21    1
    30    15    11   ar
    31     3     4    1
