@<TRIPOS>MOLECULE
*****
 30 33 0 0 0
SMALL
GASTEIGER

@<TRIPOS>ATOM
      1 N          -8.3110  -17.8356   23.0096 N.am    1  UNL1       -0.2904
      2 C          -7.7643  -19.1868   22.6559 C.2     1  UNL1        0.2670
      3 O          -8.3777  -20.4221   23.2456 O.2     1  UNL1       -0.2684
      4 H          -7.9083  -17.0249   22.6225 H       1  UNL1        0.1503
      5 C          -6.6039  -19.3028   21.7122 C.ar    1  UNL1        0.1720
      6 N          -6.5534  -20.1525   20.4772 N.ar    1  UNL1       -0.0727
      7 O          -5.2087  -19.9642   19.8397 O.2     1  UNL1       -0.3536
      8 C          -4.4282  -18.9981   20.6808 C.ar    1  UNL1        0.1726
      9 C          -5.2905  -18.5893   21.8381 C.ar    1  UNL1        0.0406
     10 C          -4.7682  -17.6202   22.8570 C.3     1  UNL1        0.0360
     11 C          -3.3837  -17.0600   22.7186 C.3     1  UNL1        0.0313
     12 C          -2.5214  -17.4688   21.5612 C.ar    1  UNL1       -0.0188
     13 C          -1.1369  -16.9085   21.4228 C.ar    1  UNL1       -0.0042
     14 C          -0.2747  -17.3173   20.2656 C.ar    1  UNL1       -0.0003
     15 C          -0.7969  -18.2864   19.2467 C.ar    1  UNL1        0.0001
     16 C          -2.1814  -18.8467   19.3851 C.ar    1  UNL1        0.0028
     17 C          -3.0436  -18.4378   20.5423 C.ar    1  UNL1        0.0330
     18 C          -9.4713  -17.7196   23.9533 C.3     1  UNL1        0.1945
     19 C          -9.2438  -17.2901   25.3723 C.2     1  UNL1        0.3369
     20 O          -9.4160  -18.2748   26.4907 O.2     1  UNL1       -0.2482
     21 O          -8.8440  -15.8760   25.6730 O.3     1  UNL1       -0.4511
     22 C          -6.5057  -15.1406   24.8121 C.3     1  UNL1        0.0473
     23 C          -7.4061  -15.5441   25.9419 C.3     1  UNL1        0.1691
     24 C          -6.8687  -15.6156   27.3405 C.3     1  UNL1        0.0473
     25 C         -10.8590  -18.0330   23.4778 C.3     1  UNL1        0.1386
     26 N         -11.3191  -17.5482   22.1349 N.ar    1  UNL1       -0.3055
     27 C         -11.9641  -16.2246   21.8489 C.ar    1  UNL1        0.0981
     28 C         -12.2585  -16.1603   20.3795 C.ar    1  UNL1        0.1193
     29 N         -11.7955  -17.4443   19.7574 N.ar    1  UNL1       -0.2223
     30 C         -11.2149  -18.3021   20.8423 C.ar    1  UNL1        0.1787
@<TRIPOS>BOND
     1    22    23    1
     2    23    24    1
     3    23    21    1
     4    21    19    1
     5    19    20    2
     6    19    18    1
     7    18    25    1
     8    25    26    1
     9    26    27   ar
    10    27    28   ar
    11    28    29   ar
    12    29    30   ar
    13    18     1    1
    14     1     2   am
    15     2     3    2
    16     2     5    1
    17     5     6   ar
    18     6     7   ar
    19     7     8   ar
    20     8     9   ar
    21     9    10    1
    22    10    11    1
    23    11    12    1
    24    12    13   ar
    25    13    14   ar
    26    14    15   ar
    27    15    16   ar
    28    16    17   ar
    29    30    26   ar
    30     9     5   ar
    31    17    12   ar
    32    17     8    1
    33     1     4    1
@<TRIPOS>MOLECULE
*****
 30 33 0 0 0
SMALL
GASTEIGER

@<TRIPOS>ATOM
      1 N          -8.8871  -18.3257   22.9568 N.am    1  UNL1       -0.2904
      2 C          -8.0854  -19.5756   22.7452 C.2     1  UNL1        0.2670
      3 O          -8.4185  -20.8196   23.5143 O.2     1  UNL1       -0.2684
      4 H          -8.6685  -17.5093   22.4519 H       1  UNL1        0.1503
      5 C          -6.9504  -19.5816   21.7644 C.ar    1  UNL1        0.1720
      6 N          -6.9210  -20.3115   20.4543 N.ar    1  UNL1       -0.0727
      7 O          -5.5980  -20.0396   19.8017 O.2     1  UNL1       -0.3536
      8 C          -4.8098  -19.1417   20.7086 C.ar    1  UNL1        0.1726
      9 C          -5.6456  -18.8586   21.9215 C.ar    1  UNL1        0.0406
     10 C          -5.1105  -17.9790   23.0124 C.3     1  UNL1        0.0360
     11 C          -3.7397  -17.3825   22.8903 C.3     1  UNL1        0.0313
     12 C          -2.9038  -17.6656   21.6773 C.ar    1  UNL1       -0.0188
     13 C          -1.5329  -17.0692   21.5553 C.ar    1  UNL1       -0.0042
     14 C          -0.6972  -17.3523   20.3423 C.ar    1  UNL1       -0.0003
     15 C          -1.2323  -18.2319   19.2514 C.ar    1  UNL1        0.0001
     16 C          -2.6031  -18.8283   19.3735 C.ar    1  UNL1        0.0028
     17 C          -3.4389  -18.5452   20.5864 C.ar    1  UNL1        0.0330
     18 C         -10.0221  -18.3197   23.9375 C.3     1  UNL1        0.1945
     19 C         -11.4239  -18.5662   23.4638 C.2     1  UNL1        0.3369
     20 O         -12.5761  -18.3939   24.4087 O.2     1  UNL1       -0.2482
     21 O         -11.6735  -18.9849   22.0453 O.3     1  UNL1       -0.4511
     22 C         -10.8760  -18.2215   19.6934 C.3     1  UNL1        0.0473
     23 C         -11.6571  -17.9626   20.9476 C.3     1  UNL1        0.1691
     24 C         -12.4218  -16.6817   21.1042 C.3     1  UNL1        0.0473
     25 C          -9.7554  -18.0673   25.3919 C.3     1  UNL1        0.1386
     26 N          -8.8129  -16.9753   25.8030 N.ar    1  UNL1       -0.3055
     27 C          -8.4226  -16.6306   27.2097 C.ar    1  UNL1        0.0981
     28 C          -7.4637  -15.4784   27.1556 C.ar    1  UNL1        0.1193
     29 N          -7.2613  -15.1111   25.7155 N.ar    1  UNL1       -0.2223
     30 C          -8.0951  -16.0361   24.8795 C.ar    1  UNL1        0.1787
@<TRIPOS>BOND
     1    22    23    1
     2    23    24    1
     3    23    21    1
     4    21    19    1
     5    19    20    2
     6    19    18    1
     7    18    25    1
     8    25    26    1
     9    26    27   ar
    10    27    28   ar
    11    28    29   ar
    12    29    30   ar
    13    18     1    1
    14     1     2   am
    15     2     3    2
    16     2     5    1
    17     5     6   ar
    18     6     7   ar
    19     7     8   ar
    20     8     9   ar
    21     9    10    1
    22    10    11    1
    23    11    12    1
    24    12    13   ar
    25    13    14   ar
    26    14    15   ar
    27    15    16   ar
    28    16    17   ar
    29    30    26   ar
    30     9     5   ar
    31    17    12   ar
    32    17     8    1
    33     1     4    1
@<TRIPOS>MOLECULE
*****
 30 33 0 0 0
SMALL
GASTEIGER

@<TRIPOS>ATOM
      1 N           0.3929    0.6978   25.2469 N.am    1  UNL1       -0.2904
      2 C           1.8683    0.9243   25.1003 C.2     1  UNL1        0.2670
      3 O           2.4738    2.2269   25.5322 O.2     1  UNL1       -0.2684
      4 H          -0.0044   -0.1572   24.9634 H       1  UNL1        0.1503
      5 C           2.7385   -0.1520   24.5219 C.ar    1  UNL1        0.1720
      6 N           3.6991   -1.0147   25.2855 N.ar    1  UNL1       -0.0727
      7 O           4.3551   -1.9503   24.3137 O.2     1  UNL1       -0.3536
      8 C           3.7999   -1.6659   22.9496 C.ar    1  UNL1        0.1726
      9 C           2.8008   -0.5545   23.0782 C.ar    1  UNL1        0.0406
     10 C           2.0769   -0.0526   21.8642 C.3     1  UNL1        0.0360
     11 C           2.3520   -0.6621   20.5215 C.3     1  UNL1        0.0313
     12 C           3.3511   -1.7735   20.3928 C.ar    1  UNL1       -0.0188
     13 C           3.6263   -2.3830   19.0502 C.ar    1  UNL1       -0.0042
     14 C           4.6253   -3.4944   18.9216 C.ar    1  UNL1       -0.0003
     15 C           5.3493   -3.9964   20.1357 C.ar    1  UNL1        0.0001
     16 C           5.0741   -3.3869   21.4783 C.ar    1  UNL1        0.0028
     17 C           4.0751   -2.2755   21.6069 C.ar    1  UNL1        0.0330
     18 C          -0.4774    1.7740   25.8253 C.3     1  UNL1        0.1945
     19 C          -0.9679    2.8914   24.9531 C.2     1  UNL1        0.3369
     20 O          -0.5847    2.9350   23.5035 O.2     1  UNL1       -0.2482
     21 O          -1.8416    3.9653   25.5304 O.3     1  UNL1       -0.4511
     22 C          -4.1487    4.0516   26.7220 C.3     1  UNL1        0.0473
     23 C          -3.3342    3.8240   25.4831 C.3     1  UNL1        0.1691
     24 C          -4.0122    3.4550   24.1970 C.3     1  UNL1        0.0473
     25 C          -0.8570    1.7328   27.2759 C.3     1  UNL1        0.1386
     26 N           0.1132    1.2043   28.2904 N.ar    1  UNL1       -0.3055
     27 C           1.2683    1.9569   28.8814 C.ar    1  UNL1        0.0981
     28 C           1.9677    1.0480   29.8483 C.ar    1  UNL1        0.1193
     29 N           1.2449   -0.2663   29.8547 N.ar    1  UNL1       -0.2223
     30 C           0.0987   -0.1697   28.8919 C.ar    1  UNL1        0.1787
@<TRIPOS>BOND
     1    22    23    1
     2    23    24    1
     3    23    21    1
     4    21    19    1
     5    19    20    2
     6    19    18    1
     7    18    25    1
     8    25    26    1
     9    26    27   ar
    10    27    28   ar
    11    28    29   ar
    12    29    30   ar
    13    18     1    1
    14     1     2   am
    15     2     3    2
    16     2     5    1
    17     5     6   ar
    18     6     7   ar
    19     7     8   ar
    20     8     9   ar
    21     9    10    1
    22    10    11    1
    23    11    12    1
    24    12    13   ar
    25    13    14   ar
    26    14    15   ar
    27    15    16   ar
    28    16    17   ar
    29    30    26   ar
    30     9     5   ar
    31    17    12   ar
    32    17     8    1
    33     1     4    1
@<TRIPOS>MOLECULE
*****
 30 33 0 0 0
SMALL
GASTEIGER

@<TRIPOS>ATOM
      1 N           0.7748    0.8170   24.5889 N.am    1  UNL1       -0.2904
      2 C           2.2452    0.7040   24.8622 C.2     1  UNL1        0.2670
      3 O           2.9283    1.7232   25.7252 O.2     1  UNL1       -0.2684
      4 H           0.3265    0.1481   24.0225 H       1  UNL1        0.1503
      5 C           3.0328   -0.4284   24.2726 C.ar    1  UNL1        0.1720
      6 N           3.9237   -1.3699   25.0275 N.ar    1  UNL1       -0.0727
      7 O           4.5091   -2.3415   24.0460 O.2     1  UNL1       -0.3536
      8 C           3.9800   -2.0004   22.6845 C.ar    1  UNL1        0.1726
      9 C           3.0676   -0.8181   22.8245 C.ar    1  UNL1        0.0406
     10 C           2.3863   -0.2491   21.6153 C.3     1  UNL1        0.0360
     11 C           2.6175   -0.8624   20.2661 C.3     1  UNL1        0.0313
     12 C           3.5300   -2.0448   20.1261 C.ar    1  UNL1       -0.0188
     13 C           3.7612   -2.6581   18.7769 C.ar    1  UNL1       -0.0042
     14 C           4.6736   -3.8403   18.6369 C.ar    1  UNL1       -0.0003
     15 C           5.3548   -4.4093   19.8461 C.ar    1  UNL1        0.0001
     16 C           5.1237   -3.7960   21.1953 C.ar    1  UNL1        0.0028
     17 C           4.2112   -2.6138   21.3353 C.ar    1  UNL1        0.0330
     18 C          -0.0128    1.9494   25.1785 C.3     1  UNL1        0.1945
     19 C          -0.6112    1.8139   26.5473 C.2     1  UNL1        0.3369
     20 O          -1.7616    2.6870   26.9527 O.2     1  UNL1       -0.2482
     21 O          -0.0592    0.8054   27.5107 O.3     1  UNL1       -0.4511
     22 C          -1.7935    0.0397   29.2872 C.3     1  UNL1        0.0473
     23 C          -0.5404    0.7835   28.9313 C.3     1  UNL1        0.1691
     24 C           0.2314    1.5053   29.9958 C.3     1  UNL1        0.0473
     25 C          -0.2021    3.2171   24.3994 C.3     1  UNL1        0.1386
     26 N          -1.2090    3.2717   23.2890 N.ar    1  UNL1       -0.3055
     27 C          -2.6399    3.7033   23.4168 C.ar    1  UNL1        0.0981
     28 C          -3.2771    3.6027   22.0625 C.ar    1  UNL1        0.1193
     29 N          -2.2400    3.1089   21.0979 N.ar    1  UNL1       -0.2223
     30 C          -0.9619    2.9044   21.8558 C.ar    1  UNL1        0.1787
@<TRIPOS>BOND
     1    22    23    1
     2    23    24    1
     3    23    21    1
     4    21    19    1
     5    19    20    2
     6    19    18    1
     7    18    25    1
     8    25    26    1
     9    26    27   ar
    10    27    28   ar
    11    28    29   ar
    12    29    30   ar
    13    18     1    1
    14     1     2   am
    15     2     3    2
    16     2     5    1
    17     5     6   ar
    18     6     7   ar
    19     7     8   ar
    20     8     9   ar
    21     9    10    1
    22    10    11    1
    23    11    12    1
    24    12    13   ar
    25    13    14   ar
    26    14    15   ar
    27    15    16   ar
    28    16    17   ar
    29    30    26   ar
    30     9     5   ar
    31    17    12   ar
    32    17     8    1
    33     1     4    1
@<TRIPOS>MOLECULE
*****
 30 33 0 0 0
SMALL
GASTEIGER

@<TRIPOS>ATOM
      1 N           6.2291   -4.5563   26.8364 N.am    1  UNL1       -0.2904
      2 C           7.0770   -4.0324   25.7156 C.2     1  UNL1        0.2670
      3 O           8.4801   -3.5765   25.9864 O.2     1  UNL1       -0.2684
      4 H           5.3082   -4.8555   26.6586 H       1  UNL1        0.1503
      5 C           6.5218   -3.9645   24.3237 C.ar    1  UNL1        0.1720
      6 N           6.9295   -4.8302   23.1686 N.ar    1  UNL1       -0.0727
      7 O           6.1210   -4.4196   21.9736 O.2     1  UNL1       -0.3536
      8 C           5.2137   -3.3002   22.3903 C.ar    1  UNL1        0.1726
      9 C           5.4614   -3.0189   23.8426 C.ar    1  UNL1        0.0406
     10 C           4.6893   -1.9380   24.5395 C.3     1  UNL1        0.0360
     11 C           3.6696   -1.1384   23.7840 C.3     1  UNL1        0.0313
     12 C           3.4219   -1.4197   22.3315 C.ar    1  UNL1       -0.0188
     13 C           2.4022   -0.6202   21.5760 C.ar    1  UNL1       -0.0042
     14 C           2.1546   -0.9015   20.1236 C.ar    1  UNL1       -0.0003
     15 C           2.9266   -1.9823   19.4268 C.ar    1  UNL1        0.0001
     16 C           3.9463   -2.7819   20.1823 C.ar    1  UNL1        0.0028
     17 C           4.1940   -2.5006   21.6347 C.ar    1  UNL1        0.0330
     18 C           6.7842   -4.6243   28.2283 C.3     1  UNL1        0.1945
     19 C           7.5432   -5.8388   28.6745 C.2     1  UNL1        0.3369
     20 O           7.2938   -6.4215   30.0340 O.2     1  UNL1       -0.2482
     21 O           8.5515   -6.4705   27.7611 O.3     1  UNL1       -0.4511
     22 C           8.3880   -9.0626   27.6932 C.3     1  UNL1        0.0473
     23 C           8.2097   -7.7317   27.0245 C.3     1  UNL1        0.1691
     24 C           7.6896   -7.6620   25.6192 C.3     1  UNL1        0.0473
     25 C           6.5804   -3.4779   29.1740 C.3     1  UNL1        0.1386
     26 N           6.3362   -2.0982   28.6384 N.ar    1  UNL1       -0.3055
     27 C           4.9965   -1.4908   28.3448 C.ar    1  UNL1        0.0981
     28 C           5.2211   -0.1009   27.8274 C.ar    1  UNL1        0.1193
     29 N           6.6996    0.1506   27.8011 N.ar    1  UNL1       -0.2223
     30 C           7.3888   -1.0838   28.3023 C.ar    1  UNL1        0.1787
@<TRIPOS>BOND
     1    22    23    1
     2    23    24    1
     3    23    21    1
     4    21    19    1
     5    19    20    2
     6    19    18    1
     7    18    25    1
     8    25    26    1
     9    26    27   ar
    10    27    28   ar
    11    28    29   ar
    12    29    30   ar
    13    18     1    1
    14     1     2   am
    15     2     3    2
    16     2     5    1
    17     5     6   ar
    18     6     7   ar
    19     7     8   ar
    20     8     9   ar
    21     9    10    1
    22    10    11    1
    23    11    12    1
    24    12    13   ar
    25    13    14   ar
    26    14    15   ar
    27    15    16   ar
    28    16    17   ar
    29    30    26   ar
    30     9     5   ar
    31    17    12   ar
    32    17     8    1
    33     1     4    1
@<TRIPOS>MOLECULE
*****
 30 33 0 0 0
SMALL
GASTEIGER

@<TRIPOS>ATOM
      1 N           3.5232   -1.2473   28.0254 N.am    1  UNL1       -0.2904
      2 C           4.3454   -0.6712   26.9110 C.2     1  UNL1        0.2670
      3 O           4.7859    0.7616   26.9671 O.2     1  UNL1       -0.2684
      4 H           3.2342   -2.1877   27.9885 H       1  UNL1        0.1503
      5 C           4.7273   -1.5280   25.7404 C.ar    1  UNL1        0.1720
      6 N           5.7471   -2.6280   25.7483 N.ar    1  UNL1       -0.0727
      7 O           5.8064   -3.2149   24.3691 O.2     1  UNL1       -0.3536
      8 C           4.8233   -2.4777   23.5090 C.ar    1  UNL1        0.1726
      9 C           4.1564   -1.4351   24.3564 C.ar    1  UNL1        0.0406
     10 C           3.1154   -0.5358   23.7584 C.3     1  UNL1        0.0360
     11 C           2.7413   -0.6791   22.3129 C.3     1  UNL1        0.0313
     12 C           3.4083   -1.7218   21.4654 C.ar    1  UNL1       -0.0188
     13 C           3.0342   -1.8651   20.0199 C.ar    1  UNL1       -0.0042
     14 C           3.7011   -2.9077   19.1724 C.ar    1  UNL1       -0.0003
     15 C           4.7421   -3.8069   19.7705 C.ar    1  UNL1        0.0001
     16 C           5.1162   -3.6636   21.2160 C.ar    1  UNL1        0.0028
     17 C           4.4493   -2.6210   22.0634 C.ar    1  UNL1        0.0330
     18 C           3.1413   -0.3906   29.1961 C.3     1  UNL1        0.1945
     19 C           1.7275    0.0877   29.3457 C.2     1  UNL1        0.3369
     20 O           1.2987    0.7776   30.6067 O.2     1  UNL1       -0.2482
     21 O           0.7426   -0.1237   28.2343 O.3     1  UNL1       -0.4511
     22 C          -0.8849    1.7901   27.5721 C.3     1  UNL1        0.0473
     23 C          -0.6154    0.5093   28.3051 C.3     1  UNL1        0.1691
     24 C          -1.7038   -0.1383   29.1088 C.3     1  UNL1        0.0473
     25 C           4.1731   -0.0124   30.2170 C.3     1  UNL1        0.1386
     26 N           4.3338   -0.8347   31.4612 N.ar    1  UNL1       -0.3055
     27 C           5.1869   -2.0602   31.6040 C.ar    1  UNL1        0.0981
     28 C           5.0499   -2.5588   33.0121 C.ar    1  UNL1        0.1193
     29 N           4.1122   -1.6415   33.7394 N.ar    1  UNL1       -0.2223
     30 C           3.6696   -0.5759   32.7809 C.ar    1  UNL1        0.1787
@<TRIPOS>BOND
     1    22    23    1
     2    23    24    1
     3    23    21    1
     4    21    19    1
     5    19    20    2
     6    19    18    1
     7    18    25    1
     8    25    26    1
     9    26    27   ar
    10    27    28   ar
    11    28    29   ar
    12    29    30   ar
    13    18     1    1
    14     1     2   am
    15     2     3    2
    16     2     5    1
    17     5     6   ar
    18     6     7   ar
    19     7     8   ar
    20     8     9   ar
    21     9    10    1
    22    10    11    1
    23    11    12    1
    24    12    13   ar
    25    13    14   ar
    26    14    15   ar
    27    15    16   ar
    28    16    17   ar
    29    30    26   ar
    30     9     5   ar
    31    17    12   ar
    32    17     8    1
    33     1     4    1
@<TRIPOS>MOLECULE
*****
 30 33 0 0 0
SMALL
GASTEIGER

@<TRIPOS>ATOM
      1 N           3.0610   -0.8394   27.4135 N.am    1  UNL1       -0.2904
      2 C           3.0736    0.3348   26.4803 C.2     1  UNL1        0.2670
      3 O           3.3152    1.7153   27.0150 O.2     1  UNL1       -0.2684
      4 H           2.9024   -1.7454   27.0625 H       1  UNL1        0.1503
      5 C           2.8445    0.1286   25.0123 C.ar    1  UNL1        0.1720
      6 N           1.9410    0.9462   24.1375 N.ar    1  UNL1       -0.0727
      7 O           2.0169    0.3914   22.7459 O.2     1  UNL1       -0.3536
      8 C           2.9672   -0.7690   22.7607 C.ar    1  UNL1        0.1726
      9 C           3.4787   -0.9315   24.1614 C.ar    1  UNL1        0.0406
     10 C           4.4559   -2.0237   24.4810 C.3     1  UNL1        0.0360
     11 C           4.9216   -2.9535   23.4000 C.3     1  UNL1        0.0313
     12 C           4.4101   -2.7910   21.9993 C.ar    1  UNL1       -0.0188
     13 C           4.8758   -3.7208   20.9182 C.ar    1  UNL1       -0.0042
     14 C           4.3642   -3.5583   19.5176 C.ar    1  UNL1       -0.0003
     15 C           3.3871   -2.4661   19.1979 C.ar    1  UNL1        0.0001
     16 C           2.9214   -1.5364   20.2789 C.ar    1  UNL1        0.0028
     17 C           3.4329   -1.6988   21.6796 C.ar    1  UNL1        0.0330
     18 C           3.2900   -0.6332   28.8816 C.3     1  UNL1        0.1945
     19 C           2.1227   -0.5752   29.8218 C.2     1  UNL1        0.3369
     20 O           2.3428   -0.7070   31.2997 O.2     1  UNL1       -0.2482
     21 O           0.7353   -0.3853   29.2842 O.3     1  UNL1       -0.4511
     22 C           0.6810    2.1844   29.6634 C.3     1  UNL1        0.0473
     23 C           0.2723    0.9796   28.8687 C.3     1  UNL1        0.1691
     24 C          -0.5994    1.1397   27.6585 C.3     1  UNL1        0.0473
     25 C           4.6863   -0.4851   29.4094 C.3     1  UNL1        0.1386
     26 N           5.4862   -1.7028   29.7662 N.ar    1  UNL1       -0.3055
     27 C           6.1361   -2.6458   28.7975 C.ar    1  UNL1        0.0981
     28 C           6.8283   -3.7171   29.5870 C.ar    1  UNL1        0.1193
     29 N           6.6063   -3.4360   31.0436 N.ar    1  UNL1       -0.2223
     30 C           5.7768   -2.1911   31.1544 C.ar    1  UNL1        0.1787
@<TRIPOS>BOND
     1    22    23    1
     2    23    24    1
     3    23    21    1
     4    21    19    1
     5    19    20    2
     6    19    18    1
     7    18    25    1
     8    25    26    1
     9    26    27   ar
    10    27    28   ar
    11    28    29   ar
    12    29    30   ar
    13    18     1    1
    14     1     2   am
    15     2     3    2
    16     2     5    1
    17     5     6   ar
    18     6     7   ar
    19     7     8   ar
    20     8     9   ar
    21     9    10    1
    22    10    11    1
    23    11    12    1
    24    12    13   ar
    25    13    14   ar
    26    14    15   ar
    27    15    16   ar
    28    16    17   ar
    29    30    26   ar
    30     9     5   ar
    31    17    12   ar
    32    17     8    1
    33     1     4    1
@<TRIPOS>MOLECULE
*****
 30 33 0 0 0
SMALL
GASTEIGER

@<TRIPOS>ATOM
      1 N           5.9030   -3.4005   27.4338 N.am    1  UNL1       -0.2904
      2 C           6.9144   -3.4026   26.3261 C.2     1  UNL1        0.2670
      3 O           8.3724   -3.2452   26.6414 O.2     1  UNL1       -0.2684
      4 H           4.9461   -3.5038   27.2268 H       1  UNL1        0.1503
      5 C           6.4677   -3.5621   24.9030 C.ar    1  UNL1        0.1720
      6 N           6.9859   -4.5739   23.9244 N.ar    1  UNL1       -0.0727
      7 O           6.2629   -4.3749   22.6253 O.2     1  UNL1       -0.3536
      8 C           5.2978   -3.2401   22.8011 C.ar    1  UNL1        0.1726
      9 C           5.4244   -2.7378   24.2088 C.ar    1  UNL1        0.0406
     10 C           4.5733   -1.5946   24.6765 C.3     1  UNL1        0.0360
     11 C           3.5956   -0.9538   23.7366 C.3     1  UNL1        0.0313
     12 C           3.4690   -1.4562   22.3289 C.ar    1  UNL1       -0.0188
     13 C           2.4913   -0.8154   21.3890 C.ar    1  UNL1       -0.0042
     14 C           2.3647   -1.3177   19.9813 C.ar    1  UNL1       -0.0003
     15 C           3.2158   -2.4609   19.5136 C.ar    1  UNL1        0.0001
     16 C           4.1935   -3.1017   20.4535 C.ar    1  UNL1        0.0028
     17 C           4.3201   -2.5993   21.8611 C.ar    1  UNL1        0.0330
     18 C           6.3496   -3.2410   28.8569 C.3     1  UNL1        0.1945
     19 C           6.8284   -4.4335   29.6308 C.2     1  UNL1        0.3369
     20 O           7.4564   -4.2489   30.9804 O.2     1  UNL1       -0.2482
     21 O           6.6790   -5.8105   29.0551 O.3     1  UNL1       -0.4511
     22 C           9.1916   -6.4487   28.8821 C.3     1  UNL1        0.0473
     23 C           7.8120   -6.4318   28.2933 C.3     1  UNL1        0.1691
     24 C           7.5654   -7.0363   26.9428 C.3     1  UNL1        0.0473
     25 C           6.3175   -1.8892   29.5061 C.3     1  UNL1        0.1386
     26 N           5.1402   -1.4875   30.3443 N.ar    1  UNL1       -0.3055
     27 C           3.9108   -0.7800   29.8564 C.ar    1  UNL1        0.0981
     28 C           2.9964   -0.5781   31.0282 C.ar    1  UNL1        0.1193
     29 N           3.6606   -1.1608   32.2402 N.ar    1  UNL1       -0.2223
     30 C           4.9856   -1.7229   31.8176 C.ar    1  UNL1        0.1787
@<TRIPOS>BOND
     1    22    23    1
     2    23    24    1
     3    23    21    1
     4    21    19    1
     5    19    20    2
     6    19    18    1
     7    18    25    1
     8    25    26    1
     9    26    27   ar
    10    27    28   ar
    11    28    29   ar
    12    29    30   ar
    13    18     1    1
    14     1     2   am
    15     2     3    2
    16     2     5    1
    17     5     6   ar
    18     6     7   ar
    19     7     8   ar
    20     8     9   ar
    21     9    10    1
    22    10    11    1
    23    11    12    1
    24    12    13   ar
    25    13    14   ar
    26    14    15   ar
    27    15    16   ar
    28    16    17   ar
    29    30    26   ar
    30     9     5   ar
    31    17    12   ar
    32    17     8    1
    33     1     4    1
@<TRIPOS>MOLECULE
*****
 30 33 0 0 0
SMALL
GASTEIGER

@<TRIPOS>ATOM
      1 N          -9.5267  -16.6230   21.5397 N.am    1  UNL1       -0.2904
      2 C          -8.8989  -16.2989   22.8628 C.2     1  UNL1        0.2670
      3 O          -9.7573  -15.8665   24.0145 O.2     1  UNL1       -0.2684
      4 H          -8.9632  -16.9068   20.7839 H       1  UNL1        0.1503
      5 C          -7.4126  -16.4072   23.0344 C.ar    1  UNL1        0.1720
      6 N          -6.5535  -15.5055   23.8704 N.ar    1  UNL1       -0.0727
      7 O          -5.1345  -15.9773   23.7527 O.2     1  UNL1       -0.3536
      8 C          -5.1167  -17.1705   22.8440 C.ar    1  UNL1        0.1726
      9 C          -6.5246  -17.4362   22.4000 C.ar    1  UNL1        0.0406
     10 C          -6.8160  -18.5809   21.4755 C.3     1  UNL1        0.0360
     11 C          -5.6996  -19.4598   20.9949 C.3     1  UNL1        0.0313
     12 C          -4.2916  -19.1941   21.4388 C.ar    1  UNL1       -0.0188
     13 C          -3.1752  -20.0731   20.9582 C.ar    1  UNL1       -0.0042
     14 C          -1.7673  -19.8073   21.4022 C.ar    1  UNL1       -0.0003
     15 C          -1.4758  -18.6627   22.3268 C.ar    1  UNL1        0.0001
     16 C          -2.5922  -17.7838   22.8074 C.ar    1  UNL1        0.0028
     17 C          -4.0001  -18.0495   22.3634 C.ar    1  UNL1        0.0330
     18 C         -11.0129  -16.5147   21.3680 C.3     1  UNL1        0.1945
     19 C         -11.6349  -16.7841   20.0299 C.2     1  UNL1        0.3369
     20 O         -12.1707  -15.6484   19.2095 O.2     1  UNL1       -0.2482
     21 O         -11.7210  -18.1893   19.5122 O.3     1  UNL1       -0.4511
     22 C         -10.9921  -20.0305   21.1940 C.3     1  UNL1        0.0473
     23 C         -10.7252  -19.2168   19.9624 C.3     1  UNL1        0.1691
     24 C          -9.4627  -19.4306   19.1811 C.3     1  UNL1        0.0473
     25 C         -11.8771  -16.1369   22.5344 C.3     1  UNL1        0.1386
     26 N         -12.4294  -17.2021   23.4347 N.ar    1  UNL1       -0.3055
     27 C         -13.8732  -17.3909   23.7947 C.ar    1  UNL1        0.0981
     28 C         -13.9708  -18.5710   24.7155 C.ar    1  UNL1        0.1193
     29 N         -12.5873  -19.1114   24.9246 N.ar    1  UNL1       -0.2223
     30 C         -11.6346  -18.2654   24.1330 C.ar    1  UNL1        0.1787
@<TRIPOS>BOND
     1    22    23    1
     2    23    24    1
     3    23    21    1
     4    21    19    1
     5    19    20    2
     6    19    18    1
     7    18    25    1
     8    25    26    1
     9    26    27   ar
    10    27    28   ar
    11    28    29   ar
    12    29    30   ar
    13    18     1    1
    14     1     2   am
    15     2     3    2
    16     2     5    1
    17     5     6   ar
    18     6     7   ar
    19     7     8   ar
    20     8     9   ar
    21     9    10    1
    22    10    11    1
    23    11    12    1
    24    12    13   ar
    25    13    14   ar
    26    14    15   ar
    27    15    16   ar
    28    16    17   ar
    29    30    26   ar
    30     9     5   ar
    31    17    12   ar
    32    17     8    1
    33     1     4    1
