@<TRIPOS>MOLECULE
*****
 34 38 0 0 0
SMALL
GASTEIGER

@<TRIPOS>ATOM
      1 C          -0.5921    2.6604   26.9805 C.ar    1  UNL1        0.0536
      2 C          -0.6926    1.4190   27.8165 C.ar    1  UNL1        0.0046
      3 C          -0.1212    1.4003   29.2032 C.ar    1  UNL1        0.0017
      4 C           0.5507    2.6230   29.7541 C.ar    1  UNL1        0.0191
      5 C           0.6513    3.8644   28.9182 C.ar    1  UNL1        0.0017
      6 C           0.0799    3.8831   27.5313 C.ar    1  UNL1        0.0046
      7 C           1.1222    2.6042   31.1409 C.ar    1  UNL1        0.0989
      8 C           2.1529    1.5802   31.5136 C.ar    1  UNL1        0.1006
      9 N           2.7242    1.5615   32.9003 N.ar    1  UNL1       -0.2861
     10 C           3.7459    0.6782   33.5531 C.ar    1  UNL1        0.0846
     11 C           3.9180    1.1377   34.9706 C.ar    1  UNL1        0.1180
     12 N           3.0027    2.3049   35.1939 N.ar    1  UNL1       -0.2233
     13 C           2.2649    2.5668   33.9144 C.ar    1  UNL1        0.1672
     14 C           1.2342    3.5909   33.5417 C.ar    1  UNL1        0.1361
     15 N           0.6628    3.6096   32.1549 N.ar    1  UNL1       -0.2392
     16 C           4.4685   -0.4639   32.9026 C.ar    1  UNL1        0.0177
     17 C           5.2574   -0.2350   31.6476 C.ar    1  UNL1        0.0022
     18 C           5.9801   -1.3772   30.9970 C.ar    1  UNL1        0.0103
     19 C           5.9139   -2.7484   31.6016 C.ar    1  UNL1        0.0684
     20 C           5.1250   -2.9774   32.8567 C.ar    1  UNL1        0.0103
     21 C           4.4023   -1.8352   33.5072 C.ar    1  UNL1        0.0022
     22 C           6.6365   -3.8905   30.9510 C.1     1  UNL1        0.1004
     23 N           7.3591   -5.0327   30.3004 N.1     1  UNL1       -0.1908
     24 C          -5.2719    4.3689   24.8758 C.3     1  UNL1        0.0610
     25 C          -4.7005    4.3502   26.2625 C.3     1  UNL1        0.0375
     26 C          -3.3310    3.7869   26.5019 C.3     1  UNL1        0.0951
     27 N          -2.5329    3.2424   25.3544 N.am    1  UNL1       -0.2760
     28 C          -1.1635    2.6791   25.5938 C.2     1  UNL1        0.2490
     29 O          -0.3655    2.1346   24.4463 O.2     1  UNL1       -0.2699
     30 C          -3.1044    3.2611   23.9676 C.3     1  UNL1        0.0951
     31 C          -4.4739    3.8244   23.7283 C.3     1  UNL1        0.0375
     32 C          -7.4758    4.4183   23.5008 C.3     1  UNL1        0.0896
     33 N          -6.6413    4.9322   24.6365 N.3     1  UNL1       -0.2715
     34 C          -7.1764    6.0094   25.5328 C.3     1  UNL1        0.0896
@<TRIPOS>BOND
     1    32    33    1
     2    33    34    1
     3    33    24    1
     4    24    25    1
     5    25    26    1
     6    26    27    1
     7    27    28   am
     8    28    29    2
     9    28     1    1
    10     1     2   ar
    11     2     3   ar
    12     3     4   ar
    13     4     7    1
    14     7     8   ar
    15     8     9   ar
    16     9    10   ar
    17    10    16    1
    18    16    17   ar
    19    17    18   ar
    20    18    19   ar
    21    19    22    1
    22    22    23    3
    23    19    20   ar
    24    20    21   ar
    25    10    11   ar
    26    11    12   ar
    27    12    13   ar
    28    13    14   ar
    29    14    15   ar
    30     4     5   ar
    31     5     6   ar
    32    27    30    1
    33    30    31    1
    34    31    24    1
    35     6     1   ar
    36    15     7   ar
    37    13     9   ar
    38    21    16   ar
@<TRIPOS>MOLECULE
*****
 34 38 0 0 0
SMALL
GASTEIGER

@<TRIPOS>ATOM
      1 C           0.6669    1.2639   27.4815 C.ar    1  UNL1        0.0536
      2 C           1.9136    0.9610   26.7042 C.ar    1  UNL1        0.0046
      3 C           1.9044    1.0508   25.2069 C.ar    1  UNL1        0.0017
      4 C           0.6484    1.4434   24.4869 C.ar    1  UNL1        0.0191
      5 C          -0.5982    1.7463   25.2641 C.ar    1  UNL1        0.0017
      6 C          -0.5890    1.6565   26.7614 C.ar    1  UNL1        0.0046
      7 C           0.6392    1.5332   22.9895 C.ar    1  UNL1        0.0989
      8 C           1.5857    0.6953   22.1821 C.ar    1  UNL1        0.1006
      9 N           1.5765    0.7851   20.6849 N.ar    1  UNL1       -0.2861
     10 C           2.3865    0.0877   19.6325 C.ar    1  UNL1        0.0846
     11 C           1.9313    0.5843   18.2923 C.ar    1  UNL1        0.1180
     12 N           0.8400    1.5887   18.5164 N.ar    1  UNL1       -0.2233
     13 C           0.6207    1.7129   19.9951 C.ar    1  UNL1        0.1672
     14 C          -0.3258    2.5508   20.8025 C.ar    1  UNL1        0.1361
     15 N          -0.3165    2.4609   22.2997 N.ar    1  UNL1       -0.2392
     16 C           3.4627   -0.9281   19.8774 C.ar    1  UNL1        0.0177
     17 C           4.8405   -0.4818   20.2676 C.ar    1  UNL1        0.0022
     18 C           5.9167   -1.4976   20.5125 C.ar    1  UNL1        0.0103
     19 C           5.6151   -2.9598   20.3672 C.ar    1  UNL1        0.0684
     20 C           4.2372   -3.4061   19.9769 C.ar    1  UNL1        0.0103
     21 C           3.1610   -2.3903   19.7320 C.ar    1  UNL1        0.0022
     22 C           6.6913   -3.9755   20.6121 C.1     1  UNL1        0.1004
     23 N           7.7675   -4.9912   20.8570 N.1     1  UNL1       -0.1908
     24 C           0.5370    4.9264   31.4586 C.3     1  UNL1        0.0610
     25 C           0.5277    5.0162   29.9614 C.3     1  UNL1        0.0375
     26 C           0.5741    3.7654   29.1347 C.3     1  UNL1        0.0951
     27 N           0.6298    2.4248   29.8053 N.am    1  UNL1       -0.2760
     28 C           0.6762    1.1741   28.9787 C.2     1  UNL1        0.2490
     29 O           0.7319   -0.1665   29.6494 O.2     1  UNL1       -0.2699
     30 C           0.6391    2.3351   31.3027 C.3     1  UNL1        0.0951
     31 C           0.5927    3.5859   32.1293 C.3     1  UNL1        0.0375
     32 C           1.1236    7.4376   31.7746 C.3     1  UNL1        0.0896
     33 N           0.4906    6.1772   32.2853 N.3     1  UNL1       -0.2715
     34 C          -0.1887    6.1677   33.6226 C.3     1  UNL1        0.0896
@<TRIPOS>BOND
     1    32    33    1
     2    33    34    1
     3    33    24    1
     4    24    25    1
     5    25    26    1
     6    26    27    1
     7    27    28   am
     8    28    29    2
     9    28     1    1
    10     1     2   ar
    11     2     3   ar
    12     3     4   ar
    13     4     7    1
    14     7     8   ar
    15     8     9   ar
    16     9    10   ar
    17    10    16    1
    18    16    17   ar
    19    17    18   ar
    20    18    19   ar
    21    19    22    1
    22    22    23    3
    23    19    20   ar
    24    20    21   ar
    25    10    11   ar
    26    11    12   ar
    27    12    13   ar
    28    13    14   ar
    29    14    15   ar
    30     4     5   ar
    31     5     6   ar
    32    27    30    1
    33    30    31    1
    34    31    24    1
    35     6     1   ar
    36    15     7   ar
    37    13     9   ar
    38    21    16   ar
@<TRIPOS>MOLECULE
*****
 34 38 0 0 0
SMALL
GASTEIGER

@<TRIPOS>ATOM
      1 C           1.5003    1.3240   29.6515 C.ar    1  UNL1        0.0536
      2 C           2.1437    2.4231   28.8589 C.ar    1  UNL1        0.0046
      3 C           1.7184    2.6744   27.4427 C.ar    1  UNL1        0.0017
      4 C           0.6497    1.8267   26.8188 C.ar    1  UNL1        0.0191
      5 C           0.0063    0.7276   27.6113 C.ar    1  UNL1        0.0017
      6 C           0.4316    0.4762   29.0276 C.ar    1  UNL1        0.0046
      7 C           0.2244    2.0781   25.4025 C.ar    1  UNL1        0.0989
      8 C           0.8449    1.2959   24.2830 C.ar    1  UNL1        0.1006
      9 N           0.4196    1.5473   22.8668 N.ar    1  UNL1       -0.2861
     10 C           0.8499    0.9365   21.5661 C.ar    1  UNL1        0.0846
     11 C           0.0701    1.5925   20.4654 C.ar    1  UNL1        0.1180
     12 N          -0.8422    2.6088   21.0858 N.ar    1  UNL1       -0.2233
     13 C          -0.6262    2.5808   22.5699 C.ar    1  UNL1        0.1672
     14 C          -1.2467    3.3630   23.6894 C.ar    1  UNL1        0.1361
     15 N          -0.8214    3.1116   25.1056 N.ar    1  UNL1       -0.2392
     16 C           1.8793   -0.1412   21.3960 C.ar    1  UNL1        0.0177
     17 C           2.7587   -0.5270   22.5482 C.ar    1  UNL1        0.0022
     18 C           3.7881   -1.6047   22.3782 C.ar    1  UNL1        0.0103
     19 C           3.9382   -2.2965   21.0558 C.ar    1  UNL1        0.0684
     20 C           3.0588   -1.9107   19.9034 C.ar    1  UNL1        0.0103
     21 C           2.0294   -0.8331   20.0735 C.ar    1  UNL1        0.0022
     22 C           4.9676   -3.3742   20.8857 C.1     1  UNL1        0.1004
     23 N           5.9971   -4.4517   20.7156 N.1     1  UNL1       -0.1908
     24 C           5.5126   -1.5090   31.9154 C.3     1  UNL1        0.0610
     25 C           5.0873   -1.2577   30.4991 C.3     1  UNL1        0.0375
     26 C           3.8916   -0.3971   30.2165 C.3     1  UNL1        0.0951
     27 N           3.1212    0.2121   31.3503 N.am    1  UNL1       -0.2760
     28 C           1.9256    1.0727   31.0678 C.2     1  UNL1        0.2490
     29 O           1.1553    1.6819   32.2015 O.2     1  UNL1       -0.2699
     30 C           3.5466   -0.0392   32.7666 C.3     1  UNL1        0.0951
     31 C           4.7422   -0.8998   33.0491 C.3     1  UNL1        0.0375
     32 C           6.6663   -3.8367   31.8884 C.3     1  UNL1        0.0896
     33 N           6.7082   -2.3696   32.1979 N.3     1  UNL1       -0.2715
     34 C           7.9459   -1.7630   32.7899 C.3     1  UNL1        0.0896
@<TRIPOS>BOND
     1    32    33    1
     2    33    34    1
     3    33    24    1
     4    24    25    1
     5    25    26    1
     6    26    27    1
     7    27    28   am
     8    28    29    2
     9    28     1    1
    10     1     2   ar
    11     2     3   ar
    12     3     4   ar
    13     4     7    1
    14     7     8   ar
    15     8     9   ar
    16     9    10   ar
    17    10    16    1
    18    16    17   ar
    19    17    18   ar
    20    18    19   ar
    21    19    22    1
    22    22    23    3
    23    19    20   ar
    24    20    21   ar
    25    10    11   ar
    26    11    12   ar
    27    12    13   ar
    28    13    14   ar
    29    14    15   ar
    30     4     5   ar
    31     5     6   ar
    32    27    30    1
    33    30    31    1
    34    31    24    1
    35     6     1   ar
    36    15     7   ar
    37    13     9   ar
    38    21    16   ar
@<TRIPOS>MOLECULE
*****
 34 38 0 0 0
SMALL
GASTEIGER

@<TRIPOS>ATOM
      1 C           2.9334   -0.1263   19.9236 C.ar    1  UNL1        0.0536
      2 C           1.5250   -0.6259   20.0546 C.ar    1  UNL1        0.0046
      3 C           0.5300    0.1419   20.8732 C.ar    1  UNL1        0.0017
      4 C           0.9432    1.4093   21.5609 C.ar    1  UNL1        0.0191
      5 C           2.3514    1.9089   21.4300 C.ar    1  UNL1        0.0017
      6 C           3.3466    1.1411   20.6113 C.ar    1  UNL1        0.0046
      7 C          -0.0519    2.1772   22.3796 C.ar    1  UNL1        0.0989
      8 C          -0.0320    2.0729   23.8759 C.ar    1  UNL1        0.1006
      9 N          -1.0271    2.8407   24.6945 N.ar    1  UNL1       -0.2861
     10 C          -1.2489    2.9356   26.1749 C.ar    1  UNL1        0.0846
     11 C          -2.4010    3.8664   26.4124 C.ar    1  UNL1        0.1180
     12 N          -2.8913    4.3467   25.0786 N.ar    1  UNL1       -0.2233
     13 C          -2.0422    3.7128   24.0169 C.ar    1  UNL1        0.1672
     14 C          -2.0621    3.8171   22.5207 C.ar    1  UNL1        0.1361
     15 N          -1.0670    3.0493   21.7020 N.ar    1  UNL1       -0.2392
     16 C          -0.4575    2.2246   27.2324 C.ar    1  UNL1        0.0177
     17 C          -1.0384    1.0289   27.9270 C.ar    1  UNL1        0.0022
     18 C          -0.2470    0.3179   28.9845 C.ar    1  UNL1        0.0103
     19 C           1.1254    0.8026   29.3472 C.ar    1  UNL1        0.0684
     20 C           1.7063    1.9984   28.6525 C.ar    1  UNL1        0.0103
     21 C           0.9149    2.7094   27.5951 C.ar    1  UNL1        0.0022
     22 C           1.9168    0.0916   30.4046 C.1     1  UNL1        0.1004
     23 N           2.7080   -0.6195   31.4620 N.1     1  UNL1       -0.1908
     24 C           6.7850   -3.7311   21.1154 C.3     1  UNL1        0.0610
     25 C           5.7899   -2.9632   21.9340 C.3     1  UNL1        0.0375
     26 C           4.8377   -2.0176   21.2639 C.3     1  UNL1        0.0951
     27 N           4.8806   -1.8398   19.7751 N.am    1  UNL1       -0.2760
     28 C           3.9284   -0.8942   19.1049 C.2     1  UNL1        0.2490
     29 O           3.9713   -0.7164   17.6161 O.2     1  UNL1       -0.2699
     30 C           5.8757   -2.6077   18.9564 C.3     1  UNL1        0.0951
     31 C           6.8279   -3.5533   19.6266 C.3     1  UNL1        0.0375
     32 C           7.6478   -4.9079   23.2649 C.3     1  UNL1        0.0896
     33 N           7.7372   -4.6767   21.7855 N.3     1  UNL1       -0.2715
     34 C           8.7787   -5.3912   20.9763 C.3     1  UNL1        0.0896
@<TRIPOS>BOND
     1    32    33    1
     2    33    34    1
     3    33    24    1
     4    24    25    1
     5    25    26    1
     6    26    27    1
     7    27    28   am
     8    28    29    2
     9    28     1    1
    10     1     2   ar
    11     2     3   ar
    12     3     4   ar
    13     4     7    1
    14     7     8   ar
    15     8     9   ar
    16     9    10   ar
    17    10    16    1
    18    16    17   ar
    19    17    18   ar
    20    18    19   ar
    21    19    22    1
    22    22    23    3
    23    19    20   ar
    24    20    21   ar
    25    10    11   ar
    26    11    12   ar
    27    12    13   ar
    28    13    14   ar
    29    14    15   ar
    30     4     5   ar
    31     5     6   ar
    32    27    30    1
    33    30    31    1
    34    31    24    1
    35     6     1   ar
    36    15     7   ar
    37    13     9   ar
    38    21    16   ar
@<TRIPOS>MOLECULE
*****
 34 38 0 0 0
SMALL
GASTEIGER

@<TRIPOS>ATOM
      1 C           1.4181    1.0401   28.1234 C.ar    1  UNL1        0.0536
      2 C           2.3281    1.6842   27.1198 C.ar    1  UNL1        0.0046
      3 C           1.7798    2.1606   25.8074 C.ar    1  UNL1        0.0017
      4 C           0.3215    1.9931   25.4986 C.ar    1  UNL1        0.0191
      5 C          -0.5884    1.3490   26.5021 C.ar    1  UNL1        0.0017
      6 C          -0.0402    0.8725   27.8145 C.ar    1  UNL1        0.0046
      7 C          -0.2267    2.4696   24.1861 C.ar    1  UNL1        0.0989
      8 C           0.3328    1.9352   22.9011 C.ar    1  UNL1        0.1006
      9 N          -0.2154    2.4117   21.5888 N.ar    1  UNL1       -0.2861
     10 C           0.1331    2.0675   20.1710 C.ar    1  UNL1        0.0846
     11 C          -0.7593    2.8657   19.2674 C.ar    1  UNL1        0.1180
     12 N          -1.6594    3.7032   20.1268 N.ar    1  UNL1       -0.2233
     13 C          -1.3233    3.4226   21.5614 C.ar    1  UNL1        0.1672
     14 C          -1.8828    3.9570   22.8464 C.ar    1  UNL1        0.1361
     15 N          -1.3345    3.4805   24.1588 N.ar    1  UNL1       -0.2392
     16 C           1.1887    1.0957   19.7337 C.ar    1  UNL1        0.0177
     17 C           1.1974   -0.2999   20.2832 C.ar    1  UNL1        0.0022
     18 C           2.2530   -1.2717   19.8458 C.ar    1  UNL1        0.0103
     19 C           3.3000   -0.8479   18.8589 C.ar    1  UNL1        0.0684
     20 C           3.2914    0.5478   18.3093 C.ar    1  UNL1        0.0103
     21 C           2.2358    1.5196   18.7467 C.ar    1  UNL1        0.0022
     22 C           4.3556   -1.8197   18.4215 C.1     1  UNL1        0.1004
     23 N           5.4112   -2.7914   17.9841 N.1     1  UNL1       -0.1908
     24 C           1.6591    3.1786   33.0851 C.3     1  UNL1        0.0610
     25 C           1.1108    3.6550   31.7727 C.3     1  UNL1        0.0375
     26 C           1.2132    2.7834   30.5562 C.3     1  UNL1        0.0951
     27 N           1.8639    1.4353   30.6521 N.am    1  UNL1       -0.2760
     28 C           1.9664    0.5636   29.4357 C.2     1  UNL1        0.2490
     29 O           2.6171   -0.7845   29.5317 O.2     1  UNL1       -0.2699
     30 C           2.4122    0.9588   31.9646 C.3     1  UNL1        0.0951
     31 C           2.3098    1.8305   33.1810 C.3     1  UNL1        0.0375
     32 C           0.8742    5.3831   34.2138 C.3     1  UNL1        0.0896
     33 N           1.5566    4.0502   34.3015 N.3     1  UNL1       -0.2715
     34 C           2.1366    3.5890   35.6057 C.3     1  UNL1        0.0896
@<TRIPOS>BOND
     1    32    33    1
     2    33    34    1
     3    33    24    1
     4    24    25    1
     5    25    26    1
     6    26    27    1
     7    27    28   am
     8    28    29    2
     9    28     1    1
    10     1     2   ar
    11     2     3   ar
    12     3     4   ar
    13     4     7    1
    14     7     8   ar
    15     8     9   ar
    16     9    10   ar
    17    10    16    1
    18    16    17   ar
    19    17    18   ar
    20    18    19   ar
    21    19    22    1
    22    22    23    3
    23    19    20   ar
    24    20    21   ar
    25    10    11   ar
    26    11    12   ar
    27    12    13   ar
    28    13    14   ar
    29    14    15   ar
    30     4     5   ar
    31     5     6   ar
    32    27    30    1
    33    30    31    1
    34    31    24    1
    35     6     1   ar
    36    15     7   ar
    37    13     9   ar
    38    21    16   ar
@<TRIPOS>MOLECULE
*****
 34 38 0 0 0
SMALL
GASTEIGER

@<TRIPOS>ATOM
      1 C          -0.0807    1.6546   27.4788 C.ar    1  UNL1        0.0536
      2 C          -1.3190    2.3885   27.0567 C.ar    1  UNL1        0.0046
      3 C          -1.4934    2.8044   25.6261 C.ar    1  UNL1        0.0017
      4 C          -0.4296    2.4863   24.6176 C.ar    1  UNL1        0.0191
      5 C           0.8086    1.7524   25.0396 C.ar    1  UNL1        0.0017
      6 C           0.9831    1.3365   26.4703 C.ar    1  UNL1        0.0046
      7 C          -0.6040    2.9022   23.1869 C.ar    1  UNL1        0.0989
      8 C           0.1215    2.1679   22.0986 C.ar    1  UNL1        0.1006
      9 N          -0.0530    2.5838   20.6681 N.ar    1  UNL1       -0.2861
     10 C           0.5277    2.0536   19.3907 C.ar    1  UNL1        0.0846
     11 C          -0.0134    2.8761   18.2590 C.ar    1  UNL1        0.1180
     12 N          -0.9285    3.9146   18.8369 N.ar    1  UNL1       -0.2233
     13 C          -0.9530    3.7340   20.3258 C.ar    1  UNL1        0.1672
     14 C          -1.6785    4.4683   21.4141 C.ar    1  UNL1        0.1361
     15 N          -1.5040    4.0524   22.8447 N.ar    1  UNL1       -0.2392
     16 C           1.4819    0.9029   19.2668 C.ar    1  UNL1        0.0177
     17 C           2.5529    0.9264   18.2170 C.ar    1  UNL1        0.0022
     18 C           3.5072   -0.2243   18.0931 C.ar    1  UNL1        0.0103
     19 C           3.3904   -1.3985   19.0192 C.ar    1  UNL1        0.0684
     20 C           2.3194   -1.4220   20.0691 C.ar    1  UNL1        0.0103
     21 C           1.3651   -0.2713   20.1929 C.ar    1  UNL1        0.0022
     22 C           4.3447   -2.5492   18.8953 C.1     1  UNL1        0.1004
     23 N           5.2990   -3.6998   18.7715 N.1     1  UNL1       -0.1908
     24 C           1.5484    4.2140   31.9560 C.3     1  UNL1        0.0610
     25 C           1.3740    4.6298   30.5254 C.3     1  UNL1        0.0375
     26 C           0.8891    3.6380   29.5098 C.3     1  UNL1        0.0951
     27 N           0.5786    2.2305   29.9249 N.am    1  UNL1       -0.2760
     28 C           0.0936    1.2387   28.9094 C.2     1  UNL1        0.2490
     29 O          -0.2169   -0.1689   29.3245 O.2     1  UNL1       -0.2699
     30 C           0.7530    1.8146   31.3556 C.3     1  UNL1        0.0951
     31 C           1.2379    2.8064   32.3710 C.3     1  UNL1        0.0375
     32 C           2.8027    6.4155   32.5304 C.3     1  UNL1        0.0896
     33 N           2.0333    5.2057   32.9715 N.3     1  UNL1       -0.2715
     34 C           1.7488    4.9877   34.4281 C.3     1  UNL1        0.0896
@<TRIPOS>BOND
     1    32    33    1
     2    33    34    1
     3    33    24    1
     4    24    25    1
     5    25    26    1
     6    26    27    1
     7    27    28   am
     8    28    29    2
     9    28     1    1
    10     1     2   ar
    11     2     3   ar
    12     3     4   ar
    13     4     7    1
    14     7     8   ar
    15     8     9   ar
    16     9    10   ar
    17    10    16    1
    18    16    17   ar
    19    17    18   ar
    20    18    19   ar
    21    19    22    1
    22    22    23    3
    23    19    20   ar
    24    20    21   ar
    25    10    11   ar
    26    11    12   ar
    27    12    13   ar
    28    13    14   ar
    29    14    15   ar
    30     4     5   ar
    31     5     6   ar
    32    27    30    1
    33    30    31    1
    34    31    24    1
    35     6     1   ar
    36    15     7   ar
    37    13     9   ar
    38    21    16   ar
@<TRIPOS>MOLECULE
*****
 34 38 0 0 0
SMALL
GASTEIGER

@<TRIPOS>ATOM
      1 C           1.1338    2.0368   27.4375 C.ar    1  UNL1        0.0536
      2 C          -0.0840    1.4077   26.8283 C.ar    1  UNL1        0.0046
      3 C          -0.2139    1.3152   25.3369 C.ar    1  UNL1        0.0017
      4 C           0.8740    1.8517   24.4545 C.ar    1  UNL1        0.0191
      5 C           2.0918    2.4809   25.0636 C.ar    1  UNL1        0.0017
      6 C           2.2217    2.5734   26.5552 C.ar    1  UNL1        0.0046
      7 C           0.7440    1.7592   22.9630 C.ar    1  UNL1        0.0989
      8 C           1.6429    0.8426   22.1873 C.ar    1  UNL1        0.1006
      9 N           1.5129    0.7500   20.6958 N.ar    1  UNL1       -0.2861
     10 C           2.2531   -0.0588   19.6721 C.ar    1  UNL1        0.0846
     11 C           1.6817    0.2655   18.3236 C.ar    1  UNL1        0.1180
     12 N           0.5884    1.2746   18.5140 N.ar    1  UNL1       -0.2233
     13 C           0.4841    1.5741   19.9801 C.ar    1  UNL1        0.1672
     14 C          -0.4148    2.4907   20.7558 C.ar    1  UNL1        0.1361
     15 N          -0.2848    2.5833   22.2472 N.ar    1  UNL1       -0.2392
     16 C           3.3688   -1.0226   19.9483 C.ar    1  UNL1        0.0177
     17 C           4.6924   -0.5167   20.4402 C.ar    1  UNL1        0.0022
     18 C           5.8081   -1.4805   20.7165 C.ar    1  UNL1        0.0103
     19 C           5.6001   -2.9503   20.5008 C.ar    1  UNL1        0.0684
     20 C           4.2765   -3.4562   20.0089 C.ar    1  UNL1        0.0103
     21 C           3.1608   -2.4924   19.7326 C.ar    1  UNL1        0.0022
     22 C           6.7158   -3.9141   20.7771 C.1     1  UNL1        0.1004
     23 N           7.8314   -4.8779   21.0533 N.1     1  UNL1       -0.1908
     24 C           3.8349   -0.8206   31.1509 C.3     1  UNL1        0.0610
     25 C           3.7050   -0.9131   29.6594 C.3     1  UNL1        0.0375
     26 C           2.8479    0.0702   28.9187 C.3     1  UNL1        0.0951
     27 N           2.1208    1.1461   29.6696 N.am    1  UNL1       -0.2760
     28 C           1.2637    2.1294   28.9290 C.2     1  UNL1        0.2490
     29 O           0.5366    3.2052   29.6799 O.2     1  UNL1       -0.2699
     30 C           2.2507    1.2386   31.1611 C.3     1  UNL1        0.0951
     31 C           3.1077    0.2553   31.9017 C.3     1  UNL1        0.0375
     32 C           5.9533   -2.3203   31.2651 C.3     1  UNL1        0.0896
     33 N           4.6919   -1.8039   31.8914 N.3     1  UNL1       -0.2715
     34 C           4.2876   -2.2709   33.2584 C.3     1  UNL1        0.0896
@<TRIPOS>BOND
     1    32    33    1
     2    33    34    1
     3    33    24    1
     4    24    25    1
     5    25    26    1
     6    26    27    1
     7    27    28   am
     8    28    29    2
     9    28     1    1
    10     1     2   ar
    11     2     3   ar
    12     3     4   ar
    13     4     7    1
    14     7     8   ar
    15     8     9   ar
    16     9    10   ar
    17    10    16    1
    18    16    17   ar
    19    17    18   ar
    20    18    19   ar
    21    19    22    1
    22    22    23    3
    23    19    20   ar
    24    20    21   ar
    25    10    11   ar
    26    11    12   ar
    27    12    13   ar
    28    13    14   ar
    29    14    15   ar
    30     4     5   ar
    31     5     6   ar
    32    27    30    1
    33    30    31    1
    34    31    24    1
    35     6     1   ar
    36    15     7   ar
    37    13     9   ar
    38    21    16   ar
@<TRIPOS>MOLECULE
*****
 34 38 0 0 0
SMALL
GASTEIGER

@<TRIPOS>ATOM
      1 C           1.9108    0.9517   29.6498 C.ar    1  UNL1        0.0536
      2 C           0.4611    0.7743   29.3074 C.ar    1  UNL1        0.0046
      3 C          -0.0229    1.0684   27.9185 C.ar    1  UNL1        0.0017
      4 C           0.9427    1.5398   26.8719 C.ar    1  UNL1        0.0191
      5 C           2.3923    1.7172   27.2142 C.ar    1  UNL1        0.0017
      6 C           2.8764    1.4231   28.6032 C.ar    1  UNL1        0.0046
      7 C           0.4586    1.8339   25.4829 C.ar    1  UNL1        0.0989
      8 C           1.0336    1.0890   24.3148 C.ar    1  UNL1        0.1006
      9 N           0.5495    1.3831   22.9259 N.ar    1  UNL1       -0.2861
     10 C           0.9267    0.8145   21.5901 C.ar    1  UNL1        0.0846
     11 C           0.1007    1.5021   20.5436 C.ar    1  UNL1        0.1180
     12 N          -0.7869    2.4957   21.2328 N.ar    1  UNL1       -0.2233
     13 C          -0.5096    2.4222   22.7051 C.ar    1  UNL1        0.1672
     14 C          -1.0845    3.1671   23.8731 C.ar    1  UNL1        0.1361
     15 N          -0.6005    2.8730   25.2620 N.ar    1  UNL1       -0.2392
     16 C           1.9501   -0.2541   21.3439 C.ar    1  UNL1        0.0177
     17 C           1.9952   -0.9589   20.0207 C.ar    1  UNL1        0.0022
     18 C           3.0187   -2.0276   19.7745 C.ar    1  UNL1        0.0103
     19 C           3.9971   -2.3914   20.8517 C.ar    1  UNL1        0.0684
     20 C           3.9521   -1.6865   22.1750 C.ar    1  UNL1        0.0103
     21 C           2.9286   -0.6179   22.4212 C.ar    1  UNL1        0.0022
     22 C           5.0206   -3.4600   20.6056 C.1     1  UNL1        0.1004
     23 N           6.0439   -4.5286   20.3593 N.1     1  UNL1       -0.1908
     24 C           1.8235    3.6938   34.3105 C.3     1  UNL1        0.0610
     25 C           1.3395    3.9879   32.9216 C.3     1  UNL1        0.0375
     26 C           1.5299    2.9758   31.8309 C.3     1  UNL1        0.0951
     27 N           2.2044    1.6696   32.1293 N.am    1  UNL1       -0.2760
     28 C           2.3948    0.6576   31.0388 C.2     1  UNL1        0.2490
     29 O           3.0692   -0.6486   31.3371 O.2     1  UNL1       -0.2699
     30 C           2.6884    1.3756   33.5184 C.3     1  UNL1        0.0951
     31 C           2.4980    2.3877   34.6089 C.3     1  UNL1        0.0375
     32 C           1.5449    6.1648   35.0634 C.3     1  UNL1        0.0896
     33 N           1.6331    4.7059   35.4011 N.3     1  UNL1       -0.2715
     34 C           1.5308    4.2592   36.8294 C.3     1  UNL1        0.0896
@<TRIPOS>BOND
     1    32    33    1
     2    33    34    1
     3    33    24    1
     4    24    25    1
     5    25    26    1
     6    26    27    1
     7    27    28   am
     8    28    29    2
     9    28     1    1
    10     1     2   ar
    11     2     3   ar
    12     3     4   ar
    13     4     7    1
    14     7     8   ar
    15     8     9   ar
    16     9    10   ar
    17    10    16    1
    18    16    17   ar
    19    17    18   ar
    20    18    19   ar
    21    19    22    1
    22    22    23    3
    23    19    20   ar
    24    20    21   ar
    25    10    11   ar
    26    11    12   ar
    27    12    13   ar
    28    13    14   ar
    29    14    15   ar
    30     4     5   ar
    31     5     6   ar
    32    27    30    1
    33    30    31    1
    34    31    24    1
    35     6     1   ar
    36    15     7   ar
    37    13     9   ar
    38    21    16   ar
@<TRIPOS>MOLECULE
*****
 34 38 0 0 0
SMALL
GASTEIGER

@<TRIPOS>ATOM
      1 C           4.1606   -1.3971   19.4575 C.ar    1  UNL1        0.0536
      2 C           4.4398    0.0653   19.2744 C.ar    1  UNL1        0.0046
      3 C           3.3468    1.0700   19.4880 C.ar    1  UNL1        0.0017
      4 C           1.9745    0.6125   19.8848 C.ar    1  UNL1        0.0191
      5 C           1.6952   -0.8499   20.0679 C.ar    1  UNL1        0.0017
      6 C           2.7883   -1.8547   19.8542 C.ar    1  UNL1        0.0046
      7 C           0.8814    1.6173   20.0984 C.ar    1  UNL1        0.0989
      8 C           0.3531    1.8686   21.4796 C.ar    1  UNL1        0.1006
      9 N          -0.7399    2.8734   21.6932 N.ar    1  UNL1       -0.2861
     10 C          -1.4556    3.3304   22.9297 C.ar    1  UNL1        0.0846
     11 C          -2.4628    4.3662   22.5263 C.ar    1  UNL1        0.1180
     12 N          -2.3694    4.5495   21.0405 N.ar    1  UNL1       -0.2233
     13 C          -1.3047    3.6269   20.5255 C.ar    1  UNL1        0.1672
     14 C          -0.7764    3.3756   19.1444 C.ar    1  UNL1        0.1361
     15 N           0.3166    2.3708   18.9308 N.ar    1  UNL1       -0.2392
     16 C          -1.2078    2.8379   24.3247 C.ar    1  UNL1        0.0177
     17 C          -0.1156    1.8436   24.5861 C.ar    1  UNL1        0.0022
     18 C           0.1323    1.3511   25.9811 C.ar    1  UNL1        0.0103
     19 C          -0.7121    1.8529   27.1147 C.ar    1  UNL1        0.0684
     20 C          -1.8043    2.8472   26.8534 C.ar    1  UNL1        0.0103
     21 C          -2.0522    3.3397   25.4584 C.ar    1  UNL1        0.0022
     22 C          -0.4642    1.3604   28.5097 C.1     1  UNL1        0.1004
     23 N          -0.2163    0.8678   29.9046 N.1     1  UNL1       -0.1908
     24 C           7.2985   -4.2883   22.7808 C.3     1  UNL1        0.0610
     25 C           6.2054   -3.2835   22.9945 C.3     1  UNL1        0.0375
     26 C           5.5238   -2.6547   21.8155 C.3     1  UNL1        0.0951
     27 N           5.9352   -3.0306   20.4228 N.am    1  UNL1       -0.2760
     28 C           5.2536   -2.4019   19.2439 C.2     1  UNL1        0.2490
     29 O           5.6651   -2.7778   17.8513 O.2     1  UNL1       -0.2699
     30 C           7.0283   -4.0354   20.2093 C.3     1  UNL1        0.0951
     31 C           7.7099   -4.6642   21.3882 C.3     1  UNL1        0.0375
     32 C           8.3672   -4.0750   25.1393 C.3     1  UNL1        0.0896
     33 N           7.9800   -4.9170   23.9598 N.3     1  UNL1       -0.2715
     34 C           8.2745   -6.3879   23.9594 C.3     1  UNL1        0.0896
@<TRIPOS>BOND
     1    32    33    1
     2    33    34    1
     3    33    24    1
     4    24    25    1
     5    25    26    1
     6    26    27    1
     7    27    28   am
     8    28    29    2
     9    28     1    1
    10     1     2   ar
    11     2     3   ar
    12     3     4   ar
    13     4     7    1
    14     7     8   ar
    15     8     9   ar
    16     9    10   ar
    17    10    16    1
    18    16    17   ar
    19    17    18   ar
    20    18    19   ar
    21    19    22    1
    22    22    23    3
    23    19    20   ar
    24    20    21   ar
    25    10    11   ar
    26    11    12   ar
    27    12    13   ar
    28    13    14   ar
    29    14    15   ar
    30     4     5   ar
    31     5     6   ar
    32    27    30    1
    33    30    31    1
    34    31    24    1
    35     6     1   ar
    36    15     7   ar
    37    13     9   ar
    38    21    16   ar
