@<TRIPOS>MOLECULE
*****
 22 24 0 0 0
SMALL
GASTEIGER

@<TRIPOS>ATOM
      1 C         -10.6228  -18.0463   22.3460 C.ar    1  UNL1        0.1444
      2 C          -9.3761  -18.7657   22.7677 C.ar    1  UNL1        0.0693
      3 C          -9.3640  -19.5643   24.0373 C.ar    1  UNL1        0.0090
      4 C         -10.5988  -19.6434   24.8854 C.ar    1  UNL1        0.0378
      5 C         -11.8456  -18.9240   24.4636 C.ar    1  UNL1        0.1484
      6 O         -13.2045  -18.8192   25.0901 O.2     1  UNL1       -0.4503
      7 C         -14.0563  -17.9558   24.2075 C.ar    1  UNL1        0.1797
      8 C         -13.2240  -17.5270   23.0356 C.ar    1  UNL1        0.0467
      9 C         -11.8576  -18.1254   23.1939 C.ar    1  UNL1        0.0717
     10 C         -11.1304  -17.8691   19.8041 C.3     1  UNL1        0.2525
     11 O         -10.6349  -17.2477   21.0762 O.3     1  UNL1       -0.4712
     12 C          -8.1413  -18.6866   21.9196 C.2     1  UNL1        0.1837
     13 O          -8.0048  -19.5627   20.7099 O.2     1  UNL1       -0.2908
     14 C          -7.0430  -17.7312   22.2815 C.3     1  UNL1        0.1382
     15 C          -7.3785  -16.3572   22.7808 C.2     1  UNL1        0.1808
     16 O          -7.8711  -15.3113   21.8250 O.2     1  UNL1       -0.2909
     17 C          -7.2213  -16.0289   24.2361 C.ar    1  UNL1        0.0352
     18 C          -5.8828  -15.6145   24.7712 C.ar    1  UNL1        0.0029
     19 C          -5.7256  -15.2863   26.2263 C.ar    1  UNL1        0.0001
     20 C          -6.9071  -15.3724   27.1464 C.ar    1  UNL1        0.0000
     21 C          -8.2458  -15.7867   26.6114 C.ar    1  UNL1        0.0001
     22 C          -8.4029  -16.1150   25.1561 C.ar    1  UNL1        0.0029
@<TRIPOS>BOND
     1    10    11    1
     2    11     1    1
     3     1     2   ar
     4     2    12    1
     5    12    13    2
     6    12    14    1
     7    14    15    1
     8    15    16    2
     9    15    17    1
    10    17    18   ar
    11    18    19   ar
    12    19    20   ar
    13    20    21   ar
    14    21    22   ar
    15     2     3   ar
    16     3     4   ar
    17     4     5   ar
    18     5     6   ar
    19     6     7   ar
    20     7     8   ar
    21     8     9   ar
    22     9     1   ar
    23    22    17   ar
    24     9     5   ar
@<TRIPOS>MOLECULE
*****
 22 24 0 0 0
SMALL
GASTEIGER

@<TRIPOS>ATOM
      1 C         -10.4325  -18.5722   23.2544 C.ar    1  UNL1        0.1444
      2 C         -10.0294  -18.0320   21.9144 C.ar    1  UNL1        0.0693
      3 C         -11.0415  -17.3430   21.0481 C.ar    1  UNL1        0.0090
      4 C         -12.4571  -17.1941   21.5217 C.ar    1  UNL1        0.0378
      5 C         -12.8602  -17.7342   22.8617 C.ar    1  UNL1        0.1484
      6 O         -14.1716  -17.7361   23.5898 O.2     1  UNL1       -0.4503
      7 C         -13.9699  -18.4264   24.9062 C.ar    1  UNL1        0.1797
      8 C         -12.5338  -18.8511   24.9916 C.ar    1  UNL1        0.0467
      9 C         -11.8480  -18.4233   23.7280 C.ar    1  UNL1        0.0717
     10 C          -9.4135  -20.7579   24.2210 C.3     1  UNL1        0.2525
     11 O          -9.4203  -19.2612   24.1207 O.3     1  UNL1       -0.4712
     12 C          -8.6139  -18.1809   21.4407 C.2     1  UNL1        0.1837
     13 O          -8.3263  -18.8775   20.1439 O.2     1  UNL1       -0.2908
     14 C          -7.4860  -17.6332   22.2641 C.3     1  UNL1        0.1382
     15 C          -7.5414  -16.2211   22.7669 C.2     1  UNL1        0.1808
     16 O          -7.8308  -15.0973   21.8164 O.2     1  UNL1       -0.2909
     17 C          -7.3074  -15.9327   24.2203 C.ar    1  UNL1        0.0352
     18 C          -5.9344  -15.5673   24.7008 C.ar    1  UNL1        0.0029
     19 C          -5.7004  -15.2789   26.1541 C.ar    1  UNL1        0.0001
     20 C          -6.8395  -15.3560   27.1269 C.ar    1  UNL1        0.0000
     21 C          -8.2127  -15.7213   26.6464 C.ar    1  UNL1        0.0001
     22 C          -8.4467  -16.0097   25.1930 C.ar    1  UNL1        0.0029
@<TRIPOS>BOND
     1    10    11    1
     2    11     1    1
     3     1     2   ar
     4     2    12    1
     5    12    13    2
     6    12    14    1
     7    14    15    1
     8    15    16    2
     9    15    17    1
    10    17    18   ar
    11    18    19   ar
    12    19    20   ar
    13    20    21   ar
    14    21    22   ar
    15     2     3   ar
    16     3     4   ar
    17     4     5   ar
    18     5     6   ar
    19     6     7   ar
    20     7     8   ar
    21     8     9   ar
    22     9     1   ar
    23    22    17   ar
    24     9     5   ar
@<TRIPOS>MOLECULE
*****
 22 24 0 0 0
SMALL
GASTEIGER

@<TRIPOS>ATOM
      1 C         -10.2323  -18.2085   22.2066 C.ar    1  UNL1        0.1444
      2 C          -9.0426  -18.9620   22.7232 C.ar    1  UNL1        0.0693
      3 C          -9.1272  -19.6924   24.0305 C.ar    1  UNL1        0.0090
      4 C         -10.4016  -19.6694   24.8214 C.ar    1  UNL1        0.0378
      5 C         -11.5913  -18.9158   24.3049 C.ar    1  UNL1        0.1484
      6 O         -12.9704  -18.7151   24.8595 O.2     1  UNL1       -0.4503
      7 C         -13.7381  -17.8606   23.8949 C.ar    1  UNL1        0.1797
      8 C         -12.8334  -17.5332   22.7441 C.ar    1  UNL1        0.0467
      9 C         -11.5066  -18.1854   22.9975 C.ar    1  UNL1        0.0717
     10 C         -10.9397  -17.9579   19.7193 C.3     1  UNL1        0.2525
     11 O         -10.1476  -17.4780   20.8992 O.3     1  UNL1       -0.4712
     12 C          -7.7682  -18.9851   21.9322 C.2     1  UNL1        0.1837
     13 O          -7.4271  -17.8396   21.0260 O.2     1  UNL1       -0.2908
     14 C          -6.8350  -20.1537   22.0476 C.3     1  UNL1        0.1382
     15 C          -5.8216  -20.4133   20.9726 C.2     1  UNL1        0.1808
     16 O          -6.1112  -21.4161   19.8953 O.2     1  UNL1       -0.2909
     17 C          -4.5187  -19.6700   20.9748 C.ar    1  UNL1        0.0352
     18 C          -3.9496  -19.1579   22.2646 C.ar    1  UNL1        0.0029
     19 C          -2.6467  -18.4147   22.2669 C.ar    1  UNL1        0.0001
     20 C          -1.9129  -18.1836   20.9792 C.ar    1  UNL1        0.0000
     21 C          -2.4820  -18.6957   19.6893 C.ar    1  UNL1        0.0001
     22 C          -3.7850  -19.4390   19.6871 C.ar    1  UNL1        0.0029
@<TRIPOS>BOND
     1    10    11    1
     2    11     1    1
     3     1     2   ar
     4     2    12    1
     5    12    13    2
     6    12    14    1
     7    14    15    1
     8    15    16    2
     9    15    17    1
    10    17    18   ar
    11    18    19   ar
    12    19    20   ar
    13    20    21   ar
    14    21    22   ar
    15     2     3   ar
    16     3     4   ar
    17     4     5   ar
    18     5     6   ar
    19     6     7   ar
    20     7     8   ar
    21     8     9   ar
    22     9     1   ar
    23    22    17   ar
    24     9     5   ar
@<TRIPOS>MOLECULE
*****
 22 24 0 0 0
SMALL
GASTEIGER

@<TRIPOS>ATOM
      1 C          -9.3978  -17.4365   22.0862 C.ar    1  UNL1        0.1444
      2 C          -8.4419  -18.5710   22.3074 C.ar    1  UNL1        0.0693
      3 C          -8.8944  -19.8020   23.0352 C.ar    1  UNL1        0.0090
      4 C         -10.3030  -19.8986   23.5417 C.ar    1  UNL1        0.0378
      5 C         -11.2590  -18.7641   23.3205 C.ar    1  UNL1        0.1484
      6 O         -12.6972  -18.5747   23.7020 O.2     1  UNL1       -0.4503
      7 C         -13.1335  -17.2265   23.2100 C.ar    1  UNL1        0.1797
      8 C         -11.9650  -16.5827   22.5244 C.ar    1  UNL1        0.0467
      9 C         -10.8064  -17.5331   22.5927 C.ar    1  UNL1        0.0717
     10 C          -8.2206  -15.1205   22.0984 C.3     1  UNL1        0.2525
     11 O          -8.9453  -16.2054   21.3584 O.3     1  UNL1       -0.4712
     12 C          -7.0332  -18.4744   21.8009 C.2     1  UNL1        0.1837
     13 O          -5.9873  -17.7792   22.6210 O.2     1  UNL1       -0.2908
     14 C          -6.6707  -19.0730   20.4742 C.3     1  UNL1        0.1382
     15 C          -5.4969  -20.0006   20.3655 C.2     1  UNL1        0.1808
     16 O          -5.7181  -21.4795   20.2482 O.2     1  UNL1       -0.2909
     17 C          -4.1019  -19.4492   20.3743 C.ar    1  UNL1        0.0352
     18 C          -3.2112  -19.6811   21.5586 C.ar    1  UNL1        0.0029
     19 C          -1.8162  -19.1297   21.5674 C.ar    1  UNL1        0.0001
     20 C          -1.3120  -18.3465   20.3917 C.ar    1  UNL1        0.0000
     21 C          -2.2027  -18.1146   19.2072 C.ar    1  UNL1        0.0001
     22 C          -3.5977  -18.6660   19.1985 C.ar    1  UNL1        0.0029
@<TRIPOS>BOND
     1    10    11    1
     2    11     1    1
     3     1     2   ar
     4     2    12    1
     5    12    13    2
     6    12    14    1
     7    14    15    1
     8    15    16    2
     9    15    17    1
    10    17    18   ar
    11    18    19   ar
    12    19    20   ar
    13    20    21   ar
    14    21    22   ar
    15     2     3   ar
    16     3     4   ar
    17     4     5   ar
    18     5     6   ar
    19     6     7   ar
    20     7     8   ar
    21     8     9   ar
    22     9     1   ar
    23    22    17   ar
    24     9     5   ar
@<TRIPOS>MOLECULE
*****
 22 24 0 0 0
SMALL
GASTEIGER

@<TRIPOS>ATOM
      1 C          -9.0540  -18.0215   22.0062 C.ar    1  UNL1        0.1444
      2 C          -8.5418  -19.0009   20.9921 C.ar    1  UNL1        0.0693
      3 C          -9.4173  -19.4254   19.8506 C.ar    1  UNL1        0.0090
      4 C         -10.8051  -18.8704   19.7230 C.ar    1  UNL1        0.0378
      5 C         -11.3172  -17.8910   20.7371 C.ar    1  UNL1        0.1484
      6 O         -12.6310  -17.1797   20.8711 O.2     1  UNL1       -0.4503
      7 C         -12.5674  -16.3156   22.0955 C.ar    1  UNL1        0.1797
      8 C         -11.2144  -16.4929   22.7183 C.ar    1  UNL1        0.0467
      9 C         -10.4417  -17.4666   21.8787 C.ar    1  UNL1        0.0717
     10 C          -7.5176  -16.2507   23.1258 C.3     1  UNL1        0.2525
     11 O          -8.1784  -17.5970   23.1478 O.3     1  UNL1       -0.4712
     12 C          -7.1540  -19.5559   21.1197 C.2     1  UNL1        0.1837
     13 O          -6.7833  -20.3810   22.3161 O.2     1  UNL1       -0.2908
     14 C          -6.1371  -19.2856   20.0507 C.3     1  UNL1        0.1382
     15 C          -4.7135  -19.7170   20.2436 C.2     1  UNL1        0.1808
     16 O          -4.3432  -21.1641   20.1069 O.2     1  UNL1       -0.2909
     17 C          -3.6600  -18.7011   20.5731 C.ar    1  UNL1        0.0352
     18 C          -3.5224  -18.1918   21.9772 C.ar    1  UNL1        0.0029
     19 C          -2.4691  -17.1761   22.3067 C.ar    1  UNL1        0.0001
     20 C          -1.5533  -16.6696   21.2321 C.ar    1  UNL1        0.0000
     21 C          -1.6909  -17.1789   19.8279 C.ar    1  UNL1        0.0001
     22 C          -2.7443  -18.1947   19.4984 C.ar    1  UNL1        0.0029
@<TRIPOS>BOND
     1    10    11    1
     2    11     1    1
     3     1     2   ar
     4     2    12    1
     5    12    13    2
     6    12    14    1
     7    14    15    1
     8    15    16    2
     9    15    17    1
    10    17    18   ar
    11    18    19   ar
    12    19    20   ar
    13    20    21   ar
    14    21    22   ar
    15     2     3   ar
    16     3     4   ar
    17     4     5   ar
    18     5     6   ar
    19     6     7   ar
    20     7     8   ar
    21     8     9   ar
    22     9     1   ar
    23    22    17   ar
    24     9     5   ar
@<TRIPOS>MOLECULE
*****
 22 24 0 0 0
SMALL
GASTEIGER

@<TRIPOS>ATOM
      1 C          -8.7736  -17.4829   22.0474 C.ar    1  UNL1        0.1444
      2 C          -7.9581  -18.7416   22.0743 C.ar    1  UNL1        0.0693
      3 C          -8.5693  -20.0210   22.5633 C.ar    1  UNL1        0.0090
      4 C          -9.9963  -20.0419   23.0255 C.ar    1  UNL1        0.0378
      5 C         -10.8118  -18.7833   22.9986 C.ar    1  UNL1        0.1484
      6 O         -12.2320  -18.4991   23.3888 O.2     1  UNL1       -0.4503
      7 C         -12.4984  -17.0439   23.1409 C.ar    1  UNL1        0.1797
      8 C         -11.2428  -16.4288   22.5975 C.ar    1  UNL1        0.0467
      9 C         -10.2004  -17.5038   22.5096 C.ar    1  UNL1        0.0717
     10 C          -7.6356  -15.2001   22.5413 C.3     1  UNL1        0.2525
     11 O          -8.1622  -16.2034   21.5584 O.3     1  UNL1       -0.4712
     12 C          -6.5311  -18.7206   21.6121 C.2     1  UNL1        0.1837
     13 O          -6.2123  -18.4315   20.1753 O.2     1  UNL1       -0.2908
     14 C          -5.4231  -18.9889   22.5869 C.3     1  UNL1        0.1382
     15 C          -4.3786  -17.9429   22.8415 C.2     1  UNL1        0.1808
     16 O          -4.5281  -16.9997   23.9983 O.2     1  UNL1       -0.2909
     17 C          -3.1846  -17.8400   21.9394 C.ar    1  UNL1        0.0352
     18 C          -2.3815  -16.5738   21.8995 C.ar    1  UNL1        0.0029
     19 C          -1.1876  -16.4709   20.9974 C.ar    1  UNL1        0.0001
     20 C          -0.7967  -17.6343   20.1351 C.ar    1  UNL1        0.0000
     21 C          -1.5997  -18.9006   20.1749 C.ar    1  UNL1        0.0001
     22 C          -2.7937  -19.0035   21.0771 C.ar    1  UNL1        0.0029
@<TRIPOS>BOND
     1    10    11    1
     2    11     1    1
     3     1     2   ar
     4     2    12    1
     5    12    13    2
     6    12    14    1
     7    14    15    1
     8    15    16    2
     9    15    17    1
    10    17    18   ar
    11    18    19   ar
    12    19    20   ar
    13    20    21   ar
    14    21    22   ar
    15     2     3   ar
    16     3     4   ar
    17     4     5   ar
    18     5     6   ar
    19     6     7   ar
    20     7     8   ar
    21     8     9   ar
    22     9     1   ar
    23    22    17   ar
    24     9     5   ar
@<TRIPOS>MOLECULE
*****
 22 24 0 0 0
SMALL
GASTEIGER

@<TRIPOS>ATOM
      1 C         -10.0921  -18.1936   22.3982 C.ar    1  UNL1        0.1444
      2 C          -9.2460  -19.2663   21.7790 C.ar    1  UNL1        0.0693
      3 C          -9.3561  -19.5547   20.3112 C.ar    1  UNL1        0.0090
      4 C         -10.3124  -18.7704   19.4624 C.ar    1  UNL1        0.0378
      5 C         -11.1586  -17.6978   20.0815 C.ar    1  UNL1        0.1484
      6 O         -12.1824  -16.7673   19.5018 O.2     1  UNL1       -0.4503
      7 C         -12.7049  -15.9038   20.6115 C.ar    1  UNL1        0.1797
      8 C         -12.0041  -16.3006   21.8770 C.ar    1  UNL1        0.0467
      9 C         -11.0484  -17.4094   21.5494 C.ar    1  UNL1        0.0717
     10 C          -9.3495  -16.6282   24.3341 C.3     1  UNL1        0.2525
     11 O          -9.9819  -17.9052   23.8660 O.3     1  UNL1       -0.4712
     12 C          -8.2896  -20.0506   22.6278 C.2     1  UNL1        0.1837
     13 O          -8.7801  -20.7471   23.8623 O.2     1  UNL1       -0.2908
     14 C          -6.8427  -20.1382   22.2420 C.3     1  UNL1        0.1382
     15 C          -6.0169  -18.8902   22.1399 C.2     1  UNL1        0.1808
     16 O          -6.5657  -17.5851   22.6354 O.2     1  UNL1       -0.2909
     17 C          -4.6421  -18.9473   21.5424 C.ar    1  UNL1        0.0352
     18 C          -3.4369  -18.7531   22.4139 C.ar    1  UNL1        0.0029
     19 C          -2.0622  -18.8102   21.8165 C.ar    1  UNL1        0.0001
     20 C          -1.8928  -19.0616   20.3474 C.ar    1  UNL1        0.0000
     21 C          -3.0981  -19.2558   19.4759 C.ar    1  UNL1        0.0001
     22 C          -4.4728  -19.1987   20.0734 C.ar    1  UNL1        0.0029
@<TRIPOS>BOND
     1    10    11    1
     2    11     1    1
     3     1     2   ar
     4     2    12    1
     5    12    13    2
     6    12    14    1
     7    14    15    1
     8    15    16    2
     9    15    17    1
    10    17    18   ar
    11    18    19   ar
    12    19    20   ar
    13    20    21   ar
    14    21    22   ar
    15     2     3   ar
    16     3     4   ar
    17     4     5   ar
    18     5     6   ar
    19     6     7   ar
    20     7     8   ar
    21     8     9   ar
    22     9     1   ar
    23    22    17   ar
    24     9     5   ar
@<TRIPOS>MOLECULE
*****
 22 24 0 0 0
SMALL
GASTEIGER

@<TRIPOS>ATOM
      1 C          -4.2316  -18.2732   21.6655 C.ar    1  UNL1        0.1444
      2 C          -5.1661  -19.3561   21.2140 C.ar    1  UNL1        0.0693
      3 C          -4.7885  -20.2409   20.0632 C.ar    1  UNL1        0.0090
      4 C          -3.4763  -20.0430   19.3639 C.ar    1  UNL1        0.0378
      5 C          -2.5418  -18.9601   19.8155 C.ar    1  UNL1        0.1484
      6 O          -1.1914  -18.5302   19.3238 O.2     1  UNL1       -0.4503
      7 C          -0.7344  -17.3797   20.1708 C.ar    1  UNL1        0.1797
      8 C          -1.8024  -17.0984   21.1859 C.ar    1  UNL1        0.0467
      9 C          -2.9194  -18.0752   20.9663 C.ar    1  UNL1        0.0717
     10 C          -3.9634  -17.5837   24.1561 C.3     1  UNL1        0.2525
     11 O          -4.6092  -17.3883   22.8164 O.3     1  UNL1       -0.4712
     12 C          -6.4783  -19.5541   21.9133 C.2     1  UNL1        0.1837
     13 O          -6.7579  -20.8397   22.6334 O.2     1  UNL1       -0.2908
     14 C          -7.5109  -18.4662   21.8923 C.3     1  UNL1        0.1382
     15 C          -8.7642  -18.6372   21.0862 C.2     1  UNL1        0.1808
     16 O          -8.6793  -19.0431   19.6447 O.2     1  UNL1       -0.2909
     17 C         -10.1026  -18.4023   21.7217 C.ar    1  UNL1        0.0352
     18 C         -10.2704  -18.5741   23.2022 C.ar    1  UNL1        0.0029
     19 C         -11.6087  -18.3393   23.8377 C.ar    1  UNL1        0.0001
     20 C         -12.7792  -17.9326   22.9924 C.ar    1  UNL1        0.0000
     21 C         -12.6115  -17.7608   21.5118 C.ar    1  UNL1        0.0001
     22 C         -11.2731  -17.9957   20.8763 C.ar    1  UNL1        0.0029
@<TRIPOS>BOND
     1    10    11    1
     2    11     1    1
     3     1     2   ar
     4     2    12    1
     5    12    13    2
     6    12    14    1
     7    14    15    1
     8    15    16    2
     9    15    17    1
    10    17    18   ar
    11    18    19   ar
    12    19    20   ar
    13    20    21   ar
    14    21    22   ar
    15     2     3   ar
    16     3     4   ar
    17     4     5   ar
    18     5     6   ar
    19     6     7   ar
    20     7     8   ar
    21     8     9   ar
    22     9     1   ar
    23    22    17   ar
    24     9     5   ar
@<TRIPOS>MOLECULE
*****
 22 24 0 0 0
SMALL
GASTEIGER

@<TRIPOS>ATOM
      1 C          -5.1444  -18.9649   20.8783 C.ar    1  UNL1        0.1444
      2 C          -5.7490  -18.5534   22.1879 C.ar    1  UNL1        0.0693
      3 C          -4.8879  -17.9391   23.2513 C.ar    1  UNL1        0.0090
      4 C          -3.4221  -17.7362   23.0053 C.ar    1  UNL1        0.0378
      5 C          -2.8176  -18.1478   21.6956 C.ar    1  UNL1        0.1484
      6 O          -1.4147  -18.0725   21.1700 O.2     1  UNL1       -0.4503
      7 C          -1.4088  -18.6403   19.7817 C.ar    1  UNL1        0.1797
      8 C          -2.8081  -19.0666   19.4492 C.ar    1  UNL1        0.0467
      9 C          -3.6787  -18.7621   20.6321 C.ar    1  UNL1        0.0717
     10 C          -6.2718  -21.0554   19.8252 C.3     1  UNL1        0.2525
     11 O          -6.0056  -19.5793   19.8148 O.3     1  UNL1       -0.4712
     12 C          -7.2147  -18.7563   22.4340 C.2     1  UNL1        0.1837
     13 O          -7.7232  -20.0979   22.8711 O.2     1  UNL1       -0.2908
     14 C          -8.1719  -17.6173   22.2429 C.3     1  UNL1        0.1382
     15 C          -7.8106  -16.2446   22.7278 C.2     1  UNL1        0.1808
     16 O          -7.6946  -15.1110   21.7524 O.2     1  UNL1       -0.2909
     17 C          -7.5653  -16.0055   24.1883 C.ar    1  UNL1        0.0352
     18 C          -8.6031  -16.3988   25.1973 C.ar    1  UNL1        0.0029
     19 C          -8.3578  -16.1597   26.6577 C.ar    1  UNL1        0.0001
     20 C          -7.0747  -15.5274   27.1090 C.ar    1  UNL1        0.0000
     21 C          -6.0368  -15.1341   26.0999 C.ar    1  UNL1        0.0001
     22 C          -6.2821  -15.3731   24.6395 C.ar    1  UNL1        0.0029
@<TRIPOS>BOND
     1    10    11    1
     2    11     1    1
     3     1     2   ar
     4     2    12    1
     5    12    13    2
     6    12    14    1
     7    14    15    1
     8    15    16    2
     9    15    17    1
    10    17    18   ar
    11    18    19   ar
    12    19    20   ar
    13    20    21   ar
    14    21    22   ar
    15     2     3   ar
    16     3     4   ar
    17     4     5   ar
    18     5     6   ar
    19     6     7   ar
    20     7     8   ar
    21     8     9   ar
    22     9     1   ar
    23    22    17   ar
    24     9     5   ar
