@<TRIPOS>MOLECULE
*****
 26 30 0 0 0
SMALL
GASTEIGER

@<TRIPOS>ATOM
      1 C          -4.4203  -17.0673   22.6436 C.3     1  UNL1        0.0579
      2 C          -4.2521  -16.2680   23.9016 C.3     1  UNL1        0.0163
      3 C          -5.5891  -16.1773   24.5754 C.3     1  UNL1        0.0058
      4 C          -6.5837  -16.9205   23.7337 C.3     1  UNL1        0.0240
      5 C          -7.3690  -17.7119   22.7302 C.3     1  UNL1        0.0301
      6 C          -8.8303  -18.0501   22.7423 C.ar    1  UNL1       -0.0255
      7 C          -9.2143  -18.8649   21.5429 C.ar    1  UNL1       -0.0046
      8 C         -10.6353  -19.3098   21.3622 C.ar    1  UNL1       -0.0003
      9 C         -11.6723  -18.9400   22.3809 C.ar    1  UNL1       -0.0003
     10 C         -11.2884  -18.1252   23.5803 C.ar    1  UNL1       -0.0042
     11 C          -9.8674  -17.6802   23.7610 C.ar    1  UNL1       -0.0217
     12 C          -9.6991  -16.8809   25.0192 C.3     1  UNL1        0.0520
     13 C          -8.4524  -16.2541   25.5694 C.ar    1  UNL1       -0.0218
     14 C          -8.7222  -15.5387   26.8599 C.ar    1  UNL1       -0.0042
     15 C          -7.6054  -14.8411   27.5783 C.ar    1  UNL1       -0.0003
     16 C          -6.2190  -14.8587   27.0063 C.ar    1  UNL1       -0.0003
     17 C          -5.9492  -15.5740   25.7157 C.ar    1  UNL1       -0.0046
     18 C          -7.0659  -16.2717   24.9972 C.ar    1  UNL1       -0.0261
     19 C          -5.8613  -17.4706   22.5397 C.3     1  UNL1        0.0203
     20 C          -1.8062  -17.8805   20.2730 C.3     1  UNL1        0.0684
     21 C          -3.0545  -18.5616   20.7506 C.3     1  UNL1        0.0790
     22 N          -3.3375  -17.4041   21.6616 N.3     1  UNL1       -0.2732
     23 C          -2.0893  -16.7230   21.1841 C.3     1  UNL1        0.0790
     24 O           0.5187  -18.9181   19.7554 O.co2   1  UNL1       -0.5491
     25 C          -0.7234  -18.2173   19.2911 C.2     1  UNL1        0.0527
     26 O          -0.8829  -17.8531   17.8447 O.co2   1  UNL1       -0.5491
@<TRIPOS>UNITY_ATOM_ATTR
24 1
charge -1
@<TRIPOS>BOND
     1    24    25   ar
     2    25    26   ar
     3    25    20    1
     4    20    21    1
     5    21    22    1
     6    22     1    1
     7     1     2    1
     8     2     3    1
     9     4     3    1
    10     4     5    1
    11     5     6    1
    12     6     7   ar
    13     7     8   ar
    14     8     9   ar
    15     9    10   ar
    16    10    11   ar
    17    11    12    1
    18    12    13    1
    19    13    14   ar
    20    14    15   ar
    21    15    16   ar
    22    16    17   ar
    23    17    18   ar
    24     4    19    1
    25    22    23    1
    26    23    20    1
    27    19     1    1
    28    18     4    1
    29    11     6   ar
    30    18    13   ar
@<TRIPOS>MOLECULE
*****
 26 30 0 0 0
SMALL
GASTEIGER

@<TRIPOS>ATOM
      1 C          -5.4922  -18.3314   21.3048 C.3     1  UNL1        0.0579
      2 C          -6.7105  -19.0566   20.8154 C.3     1  UNL1        0.0163
      3 C          -7.8298  -18.7829   21.7756 C.3     1  UNL1        0.0058
      4 C          -7.3032  -17.8884   22.8585 C.3     1  UNL1        0.0240
      5 C          -6.5445  -17.0078   23.8065 C.3     1  UNL1        0.0301
      6 C          -7.0348  -16.3359   25.0548 C.ar    1  UNL1       -0.0255
      7 C          -5.9465  -15.5407   25.7129 C.ar    1  UNL1       -0.0046
      8 C          -6.2284  -14.7884   26.9796 C.ar    1  UNL1       -0.0003
      9 C          -7.5988  -14.8313   27.5882 C.ar    1  UNL1       -0.0003
     10 C          -8.6871  -15.6265   26.9301 C.ar    1  UNL1       -0.0042
     11 C          -8.4051  -16.3788   25.6634 C.ar    1  UNL1       -0.0217
     12 C          -9.6235  -17.1041   25.1740 C.3     1  UNL1        0.0520
     13 C          -9.7726  -17.9657   23.9552 C.ar    1  UNL1       -0.0218
     14 C         -11.1670  -18.5044   23.8320 C.ar    1  UNL1       -0.0042
     15 C         -11.5289  -19.3922   22.6783 C.ar    1  UNL1       -0.0003
     16 C         -10.4963  -19.7412   21.6479 C.ar    1  UNL1       -0.0003
     17 C          -9.1018  -19.2024   21.7710 C.ar    1  UNL1       -0.0046
     18 C          -8.7399  -18.3147   22.9247 C.ar    1  UNL1       -0.0261
     19 C          -5.8585  -17.6093   22.5675 C.3     1  UNL1        0.0203
     20 C          -2.2377  -18.3248   19.7166 C.3     1  UNL1        0.0684
     21 C          -3.5949  -18.8491   19.3518 C.3     1  UNL1        0.0790
     22 N          -4.1441  -18.3286   20.6470 N.3     1  UNL1       -0.2732
     23 C          -2.7869  -17.8043   21.0118 C.3     1  UNL1        0.0790
     24 O          -0.7375  -17.7965   17.6623 O.co2   1  UNL1       -0.5491
     25 C          -0.8896  -18.3220   19.0589 C.2     1  UNL1        0.0527
     26 O           0.3066  -18.8447   19.7979 O.co2   1  UNL1       -0.5491
@<TRIPOS>UNITY_ATOM_ATTR
24 1
charge -1
@<TRIPOS>BOND
     1    24    25   ar
     2    25    26   ar
     3    25    20    1
     4    20    21    1
     5    21    22    1
     6    22     1    1
     7     1     2    1
     8     2     3    1
     9     4     3    1
    10     4     5    1
    11     5     6    1
    12     6     7   ar
    13     7     8   ar
    14     8     9   ar
    15     9    10   ar
    16    10    11   ar
    17    11    12    1
    18    12    13    1
    19    13    14   ar
    20    14    15   ar
    21    15    16   ar
    22    16    17   ar
    23    17    18   ar
    24     4    19    1
    25    22    23    1
    26    23    20    1
    27    19     1    1
    28    18     4    1
    29    11     6   ar
    30    18    13   ar
@<TRIPOS>MOLECULE
*****
 26 30 0 0 0
SMALL
GASTEIGER

@<TRIPOS>ATOM
      1 C           3.6743   -1.2596   24.5175 C.3     1  UNL1        0.0579
      2 C           4.5414   -2.3255   23.9160 C.3     1  UNL1        0.0163
      3 C           4.3755   -2.2721   22.4262 C.3     1  UNL1        0.0058
      4 C           3.4058   -1.1731   22.1070 C.3     1  UNL1        0.0240
      5 C           2.4266   -0.0380   22.0540 C.3     1  UNL1        0.0301
      6 C           1.7888    0.5917   20.8512 C.ar    1  UNL1       -0.0255
      7 C           0.8634    1.7057   21.2416 C.ar    1  UNL1       -0.0046
      8 C           0.1219    2.4698   20.1851 C.ar    1  UNL1       -0.0003
      9 C           0.3059    2.1199   18.7381 C.ar    1  UNL1       -0.0003
     10 C           1.2313    1.0059   18.3477 C.ar    1  UNL1       -0.0042
     11 C           1.9728    0.2418   19.4042 C.ar    1  UNL1       -0.0217
     12 C           2.8399   -0.8242   18.8027 C.3     1  UNL1        0.0520
     13 C           3.7373   -1.8036   19.4995 C.ar    1  UNL1       -0.0218
     14 C           4.4314   -2.7035   18.5207 C.ar    1  UNL1       -0.0042
     15 C           5.3774   -3.7587   19.0123 C.ar    1  UNL1       -0.0003
     16 C           5.6292   -3.9140   20.4828 C.ar    1  UNL1       -0.0003
     17 C           4.9350   -3.0140   21.4617 C.ar    1  UNL1       -0.0046
     18 C           3.9891   -1.9588   20.9701 C.ar    1  UNL1       -0.0261
     19 C           2.9724   -0.5473   23.3995 C.3     1  UNL1        0.0203
     20 C           3.3349   -0.5332   28.0490 C.3     1  UNL1        0.0684
     21 C           3.9110   -1.6640   27.2493 C.3     1  UNL1        0.0790
     22 N           3.5337   -0.9587   25.9803 N.3     1  UNL1       -0.2732
     23 C           2.9577    0.1721   26.7800 C.3     1  UNL1        0.0790
     24 O           1.9084   -0.5390   30.2204 O.co2   1  UNL1       -0.5491
     25 C           3.1943   -0.2322   29.5117 C.2     1  UNL1        0.0527
     26 O           4.3397    0.3756   30.2659 O.co2   1  UNL1       -0.5491
@<TRIPOS>UNITY_ATOM_ATTR
24 1
charge -1
@<TRIPOS>BOND
     1    24    25   ar
     2    25    26   ar
     3    25    20    1
     4    20    21    1
     5    21    22    1
     6    22     1    1
     7     1     2    1
     8     2     3    1
     9     4     3    1
    10     4     5    1
    11     5     6    1
    12     6     7   ar
    13     7     8   ar
    14     8     9   ar
    15     9    10   ar
    16    10    11   ar
    17    11    12    1
    18    12    13    1
    19    13    14   ar
    20    14    15   ar
    21    15    16   ar
    22    16    17   ar
    23    17    18   ar
    24     4    19    1
    25    22    23    1
    26    23    20    1
    27    19     1    1
    28    18     4    1
    29    11     6   ar
    30    18    13   ar
@<TRIPOS>MOLECULE
*****
 26 30 0 0 0
SMALL
GASTEIGER

@<TRIPOS>ATOM
      1 C           4.1109   -1.1588   25.6697 C.3     1  UNL1        0.0579
      2 C           3.0593   -0.0916   25.5980 C.3     1  UNL1        0.0163
      3 C           2.5802   -0.0074   24.1792 C.3     1  UNL1        0.0058
      4 C           3.3358   -1.0226   23.3739 C.3     1  UNL1        0.0240
      5 C           4.2129   -2.0962   22.8011 C.3     1  UNL1        0.0301
      6 C           4.2890   -2.5856   21.3852 C.ar    1  UNL1       -0.0255
      7 C           5.3047   -3.6793   21.2372 C.ar    1  UNL1       -0.0046
      8 C           5.5381   -4.3096   19.8962 C.ar    1  UNL1       -0.0003
      9 C           4.7557   -3.8462   18.7033 C.ar    1  UNL1       -0.0003
     10 C           3.7400   -2.7524   18.8513 C.ar    1  UNL1       -0.0042
     11 C           3.5066   -2.1221   20.1922 C.ar    1  UNL1       -0.0217
     12 C           2.4550   -1.0549   20.1206 C.3     1  UNL1        0.0520
     13 C           1.9260   -0.1875   21.2242 C.ar    1  UNL1       -0.0218
     14 C           0.8733    0.7562   20.7228 C.ar    1  UNL1       -0.0042
     15 C           0.2127    1.7142   21.6693 C.ar    1  UNL1       -0.0003
     16 C           0.6046    1.7285   23.1170 C.ar    1  UNL1       -0.0003
     17 C           1.6573    0.7848   23.6184 C.ar    1  UNL1       -0.0046
     18 C           2.3180   -0.1732   22.6720 C.ar    1  UNL1       -0.0261
     19 C           4.2818   -1.7342   24.2950 C.3     1  UNL1        0.0203
     20 C           5.9197   -2.1688   28.6399 C.3     1  UNL1        0.0684
     21 C           6.0355   -2.4676   27.1746 C.3     1  UNL1        0.0790
     22 N           4.8601   -1.5771   26.9000 N.3     1  UNL1       -0.2732
     23 C           4.7442   -1.2782   28.3654 C.3     1  UNL1        0.0790
     24 O           6.5369   -3.9883   30.3887 O.co2   1  UNL1       -0.5491
     25 C           6.6688   -2.5870   29.8703 C.2     1  UNL1        0.0527
     26 O           7.5500   -1.6038   30.5823 O.co2   1  UNL1       -0.5491
@<TRIPOS>UNITY_ATOM_ATTR
24 1
charge -1
@<TRIPOS>BOND
     1    24    25   ar
     2    25    26   ar
     3    25    20    1
     4    20    21    1
     5    21    22    1
     6    22     1    1
     7     1     2    1
     8     2     3    1
     9     4     3    1
    10     4     5    1
    11     5     6    1
    12     6     7   ar
    13     7     8   ar
    14     8     9   ar
    15     9    10   ar
    16    10    11   ar
    17    11    12    1
    18    12    13    1
    19    13    14   ar
    20    14    15   ar
    21    15    16   ar
    22    16    17   ar
    23    17    18   ar
    24     4    19    1
    25    22    23    1
    26    23    20    1
    27    19     1    1
    28    18     4    1
    29    11     6   ar
    30    18    13   ar
@<TRIPOS>MOLECULE
*****
 26 30 0 0 0
SMALL
GASTEIGER

@<TRIPOS>ATOM
      1 C           1.3337    1.0804   24.5978 C.3     1  UNL1        0.0579
      2 C           0.6180    1.8971   23.5631 C.3     1  UNL1        0.0163
      3 C           1.0215    1.3888   22.2108 C.3     1  UNL1        0.0058
      4 C           1.9866    0.2579   22.4098 C.3     1  UNL1        0.0240
      5 C           2.9165   -0.8250   22.8709 C.3     1  UNL1        0.0301
      6 C           3.7162   -1.7866   22.0427 C.ar    1  UNL1       -0.0255
      7 C           4.5218   -2.7133   22.9040 C.ar    1  UNL1       -0.0046
      8 C           5.3947   -3.7563   22.2714 C.ar    1  UNL1       -0.0003
      9 C           5.4620   -3.8724   20.7774 C.ar    1  UNL1       -0.0003
     10 C           4.6564   -2.9456   19.9161 C.ar    1  UNL1       -0.0042
     11 C           3.7835   -1.9027   20.5487 C.ar    1  UNL1       -0.0217
     12 C           3.0677   -1.0860   19.5140 C.3     1  UNL1        0.0520
     13 C           2.1079    0.0486   19.7176 C.ar    1  UNL1       -0.0218
     14 C           1.6175    0.5933   18.4089 C.ar    1  UNL1       -0.0042
     15 C           0.6461    1.7361   18.3888 C.ar    1  UNL1       -0.0003
     16 C           0.1650    2.3341   19.6775 C.ar    1  UNL1       -0.0003
     17 C           0.6553    1.7894   20.9863 C.ar    1  UNL1       -0.0046
     18 C           1.6268    0.6467   21.0064 C.ar    1  UNL1       -0.0261
     19 C           2.1796    0.0673   23.8850 C.3     1  UNL1        0.0203
     20 C           1.0665    1.4838   28.1866 C.3     1  UNL1        0.0684
     21 C           2.2015    1.3277   27.2184 C.3     1  UNL1        0.0790
     22 N           1.2230    1.2475   26.0843 N.3     1  UNL1       -0.2732
     23 C           0.0880    1.4035   27.0526 C.3     1  UNL1        0.0790
     24 O           0.5481    2.9736   30.2510 O.co2   1  UNL1       -0.5491
     25 C           0.9557    1.6508   29.6732 C.2     1  UNL1        0.0527
     26 O           1.2526    0.4949   30.5820 O.co2   1  UNL1       -0.5491
@<TRIPOS>UNITY_ATOM_ATTR
24 1
charge -1
@<TRIPOS>BOND
     1    24    25   ar
     2    25    26   ar
     3    25    20    1
     4    20    21    1
     5    21    22    1
     6    22     1    1
     7     1     2    1
     8     2     3    1
     9     4     3    1
    10     4     5    1
    11     5     6    1
    12     6     7   ar
    13     7     8   ar
    14     8     9   ar
    15     9    10   ar
    16    10    11   ar
    17    11    12    1
    18    12    13    1
    19    13    14   ar
    20    14    15   ar
    21    15    16   ar
    22    16    17   ar
    23    17    18   ar
    24     4    19    1
    25    22    23    1
    26    23    20    1
    27    19     1    1
    28    18     4    1
    29    11     6   ar
    30    18    13   ar
@<TRIPOS>MOLECULE
*****
 26 30 0 0 0
SMALL
GASTEIGER

@<TRIPOS>ATOM
      1 C           1.3905    0.8731   20.3719 C.3     1  UNL1        0.0579
      2 C           1.4386   -0.6182   20.5258 C.3     1  UNL1        0.0163
      3 C           2.6501   -1.1204   19.7980 C.3     1  UNL1        0.0058
      4 C           3.3508    0.0605   19.1943 C.3     1  UNL1        0.0240
      5 C           3.8535    1.3852   18.7019 C.3     1  UNL1        0.0301
      6 C           5.0696    1.6746   17.8728 C.ar    1  UNL1       -0.0255
      7 C           5.2096    3.1428   17.5991 C.ar    1  UNL1       -0.0046
      8 C           6.3634    3.6471   16.7840 C.ar    1  UNL1       -0.0003
      9 C           7.3772    2.6832   16.2425 C.ar    1  UNL1       -0.0003
     10 C           7.2372    1.2151   16.5162 C.ar    1  UNL1       -0.0042
     11 C           6.0834    0.7108   17.3313 C.ar    1  UNL1       -0.0217
     12 C           6.1315   -0.7805   17.4852 C.3     1  UNL1        0.0520
     13 C           5.1777   -1.6764   18.2186 C.ar    1  UNL1       -0.0218
     14 C           5.5945   -3.1142   18.1253 C.ar    1  UNL1       -0.0042
     15 C           4.7739   -4.1778   18.7927 C.ar    1  UNL1       -0.0003
     16 C           3.5365   -3.8035   19.5532 C.ar    1  UNL1       -0.0003
     17 C           3.1196   -2.3656   19.6465 C.ar    1  UNL1       -0.0046
     18 C           3.9402   -1.3020   18.9792 C.ar    1  UNL1       -0.0261
     19 C           2.5723    1.2926   19.5490 C.3     1  UNL1        0.0203
     20 C          -1.1355    3.0744   21.7459 C.3     1  UNL1        0.0684
     21 C           0.0367    2.3248   22.3063 C.3     1  UNL1        0.0790
     22 N           0.3442    1.7849   20.9410 N.3     1  UNL1       -0.2732
     23 C          -0.8281    2.5344   20.3806 C.3     1  UNL1        0.0790
     24 O          -3.6011    3.5161   22.4357 O.co2   1  UNL1       -0.5491
     25 C          -2.1819    3.9862   22.3150 C.2     1  UNL1        0.0527
     26 O          -1.8089    5.3682   22.7633 O.co2   1  UNL1       -0.5491
@<TRIPOS>UNITY_ATOM_ATTR
24 1
charge -1
@<TRIPOS>BOND
     1    24    25   ar
     2    25    26   ar
     3    25    20    1
     4    20    21    1
     5    21    22    1
     6    22     1    1
     7     1     2    1
     8     2     3    1
     9     4     3    1
    10     4     5    1
    11     5     6    1
    12     6     7   ar
    13     7     8   ar
    14     8     9   ar
    15     9    10   ar
    16    10    11   ar
    17    11    12    1
    18    12    13    1
    19    13    14   ar
    20    14    15   ar
    21    15    16   ar
    22    16    17   ar
    23    17    18   ar
    24     4    19    1
    25    22    23    1
    26    23    20    1
    27    19     1    1
    28    18     4    1
    29    11     6   ar
    30    18    13   ar
@<TRIPOS>MOLECULE
*****
 26 30 0 0 0
SMALL
GASTEIGER

@<TRIPOS>ATOM
      1 C           1.0776    0.9659   19.9030 C.3     1  UNL1        0.0579
      2 C           1.6304   -0.1083   19.0140 C.3     1  UNL1        0.0163
      3 C           2.4783   -1.0155   19.8553 C.3     1  UNL1        0.0058
      4 C           2.4496   -0.5019   21.2644 C.3     1  UNL1        0.0240
      5 C           2.2606    0.2036   22.5745 C.3     1  UNL1        0.0301
      6 C           2.8317   -0.1470   23.9166 C.ar    1  UNL1       -0.0255
      7 C           2.3912    0.8252   24.9705 C.ar    1  UNL1       -0.0046
      8 C           2.8521    0.6546   26.3877 C.ar    1  UNL1       -0.0003
      9 C           3.7534   -0.4881   26.7510 C.ar    1  UNL1       -0.0003
     10 C           4.1938   -1.4602   25.6970 C.ar    1  UNL1       -0.0042
     11 C           3.7330   -1.2897   24.2798 C.ar    1  UNL1       -0.0217
     12 C           4.2857   -2.3640   23.3907 C.3     1  UNL1        0.0520
     13 C           4.0737   -2.5610   21.9189 C.ar    1  UNL1       -0.0218
     14 C           4.8117   -3.7658   21.4153 C.ar    1  UNL1       -0.0042
     15 C           4.7326   -4.1420   19.9654 C.ar    1  UNL1       -0.0003
     16 C           3.9155   -3.3133   19.0191 C.ar    1  UNL1       -0.0003
     17 C           3.1774   -2.1084   19.5227 C.ar    1  UNL1       -0.0046
     18 C           3.2565   -1.7323   20.9726 C.ar    1  UNL1       -0.0261
     19 C           1.5840    0.7227   21.2938 C.3     1  UNL1        0.0203
     20 C          -1.0973    3.6718   18.8724 C.3     1  UNL1        0.0684
     21 C          -0.9434    2.8504   20.1180 C.3     1  UNL1        0.0790
     22 N           0.1767    2.0867   19.4761 N.3     1  UNL1       -0.2732
     23 C           0.0228    2.9081   18.2304 C.3     1  UNL1        0.0790
     24 O          -1.5830    6.2161   18.6710 O.co2   1  UNL1       -0.5491
     25 C          -1.9982    4.7925   18.4454 C.2     1  UNL1        0.0527
     26 O          -3.3144    4.4897   17.7927 O.co2   1  UNL1       -0.5491
@<TRIPOS>UNITY_ATOM_ATTR
24 1
charge -1
@<TRIPOS>BOND
     1    24    25   ar
     2    25    26   ar
     3    25    20    1
     4    20    21    1
     5    21    22    1
     6    22     1    1
     7     1     2    1
     8     2     3    1
     9     4     3    1
    10     4     5    1
    11     5     6    1
    12     6     7   ar
    13     7     8   ar
    14     8     9   ar
    15     9    10   ar
    16    10    11   ar
    17    11    12    1
    18    12    13    1
    19    13    14   ar
    20    14    15   ar
    21    15    16   ar
    22    16    17   ar
    23    17    18   ar
    24     4    19    1
    25    22    23    1
    26    23    20    1
    27    19     1    1
    28    18     4    1
    29    11     6   ar
    30    18    13   ar
@<TRIPOS>MOLECULE
*****
 26 30 0 0 0
SMALL
GASTEIGER

@<TRIPOS>ATOM
      1 C           1.6412    2.4262   19.3408 C.3     1  UNL1        0.0579
      2 C           2.6065    3.3945   18.7241 C.3     1  UNL1        0.0163
      3 C           3.8053    2.6217   18.2597 C.3     1  UNL1        0.0058
      4 C           3.5807    1.1757   18.5894 C.3     1  UNL1        0.0240
      5 C           3.1218   -0.1859   19.0201 C.3     1  UNL1        0.0301
      6 C           3.8300   -1.5004   18.8767 C.ar    1  UNL1       -0.0255
      7 C           3.0165   -2.6259   19.4436 C.ar    1  UNL1       -0.0046
      8 C           3.5452   -4.0289   19.4010 C.ar    1  UNL1       -0.0003
      9 C           4.8873   -4.3065   18.7914 C.ar    1  UNL1       -0.0003
     10 C           5.7008   -3.1810   18.2244 C.ar    1  UNL1       -0.0042
     11 C           5.1721   -1.7780   18.2671 C.ar    1  UNL1       -0.0217
     12 C           6.1375   -0.8096   17.6504 C.3     1  UNL1        0.0520
     13 C           5.9993    0.6755   17.4909 C.ar    1  UNL1       -0.0218
     14 C           7.2008    1.2686   16.8168 C.ar    1  UNL1       -0.0042
     15 C           7.2645    2.7451   16.5605 C.ar    1  UNL1       -0.0003
     16 C           6.1267    3.6286   16.9784 C.ar    1  UNL1       -0.0003
     17 C           4.9251    3.0356   17.6526 C.ar    1  UNL1       -0.0046
     18 C           4.8614    1.5590   17.9089 C.ar    1  UNL1       -0.0261
     19 C           2.2433    1.0548   19.2576 C.3     1  UNL1        0.0203
     20 C          -1.5780    3.2538   20.7782 C.3     1  UNL1        0.0684
     21 C          -0.4001    2.4346   21.2157 C.3     1  UNL1        0.0790
     22 N           0.3078    2.7690   19.9362 N.3     1  UNL1       -0.2732
     23 C          -0.8702    3.5882   19.4987 C.3     1  UNL1        0.0790
     24 O          -4.0855    2.6887   21.1567 O.co2   1  UNL1       -0.5491
     25 C          -2.9114    3.5966   21.3735 C.2     1  UNL1        0.0527
     26 O          -3.0707    4.8476   22.1858 O.co2   1  UNL1       -0.5491
@<TRIPOS>UNITY_ATOM_ATTR
24 1
charge -1
@<TRIPOS>BOND
     1    24    25   ar
     2    25    26   ar
     3    25    20    1
     4    20    21    1
     5    21    22    1
     6    22     1    1
     7     1     2    1
     8     2     3    1
     9     4     3    1
    10     4     5    1
    11     5     6    1
    12     6     7   ar
    13     7     8   ar
    14     8     9   ar
    15     9    10   ar
    16    10    11   ar
    17    11    12    1
    18    12    13    1
    19    13    14   ar
    20    14    15   ar
    21    15    16   ar
    22    16    17   ar
    23    17    18   ar
    24     4    19    1
    25    22    23    1
    26    23    20    1
    27    19     1    1
    28    18     4    1
    29    11     6   ar
    30    18    13   ar
@<TRIPOS>MOLECULE
*****
 26 30 0 0 0
SMALL
GASTEIGER

@<TRIPOS>ATOM
      1 C          -2.3553    3.3136   25.8190 C.3     1  UNL1        0.0579
      2 C          -3.1198    4.0120   26.9043 C.3     1  UNL1        0.0163
      3 C          -4.3795    4.5619   26.3037 C.3     1  UNL1        0.0058
      4 C          -4.3935    4.2033   24.8473 C.3     1  UNL1        0.0240
      5 C          -4.1717    3.7265   23.4425 C.3     1  UNL1        0.0301
      6 C          -5.0508    3.9136   22.2415 C.ar    1  UNL1       -0.0255
      7 C          -4.4552    3.2753   21.0217 C.ar    1  UNL1       -0.0046
      8 C          -5.1777    3.3472   19.7092 C.ar    1  UNL1       -0.0003
      9 C          -6.4957    4.0572   19.6164 C.ar    1  UNL1       -0.0003
     10 C          -7.0913    4.6955   20.8362 C.ar    1  UNL1       -0.0042
     11 C          -6.3688    4.6236   22.1487 C.ar    1  UNL1       -0.0217
     12 C          -7.1332    5.3220   23.2340 C.3     1  UNL1        0.0520
     13 C          -6.7686    5.4829   24.6801 C.ar    1  UNL1       -0.0218
     14 C          -7.8163    6.2538   25.4271 C.ar    1  UNL1       -0.0042
     15 C          -7.6447    6.5268   26.8920 C.ar    1  UNL1       -0.0003
     16 C          -6.4255    6.0290   27.6100 C.ar    1  UNL1       -0.0003
     17 C          -5.3777    5.2580   26.8630 C.ar    1  UNL1       -0.0046
     18 C          -5.5493    4.9850   25.3980 C.ar    1  UNL1       -0.0261
     19 C          -3.1425    3.4319   24.5477 C.3     1  UNL1        0.0203
     20 C           0.8314    1.6365   26.2012 C.3     1  UNL1        0.0684
     21 C          -0.5446    1.4407   26.7653 C.3     1  UNL1        0.0790
     22 N          -1.0353    2.6189   25.9773 N.3     1  UNL1       -0.2732
     23 C           0.3407    2.8148   25.4132 C.3     1  UNL1        0.0790
     24 O           2.8796    1.0042   27.6692 O.co2   1  UNL1       -0.5491
     25 C           2.1515    0.9419   26.3594 C.2     1  UNL1        0.0527
     26 O           2.7433    0.1848   25.2076 O.co2   1  UNL1       -0.5491
@<TRIPOS>UNITY_ATOM_ATTR
24 1
charge -1
@<TRIPOS>BOND
     1    24    25   ar
     2    25    26   ar
     3    25    20    1
     4    20    21    1
     5    21    22    1
     6    22     1    1
     7     1     2    1
     8     2     3    1
     9     4     3    1
    10     4     5    1
    11     5     6    1
    12     6     7   ar
    13     7     8   ar
    14     8     9   ar
    15     9    10   ar
    16    10    11   ar
    17    11    12    1
    18    12    13    1
    19    13    14   ar
    20    14    15   ar
    21    15    16   ar
    22    16    17   ar
    23    17    18   ar
    24     4    19    1
    25    22    23    1
    26    23    20    1
    27    19     1    1
    28    18     4    1
    29    11     6   ar
    30    18    13   ar
