@<TRIPOS>MOLECULE
*****
 31 33 0 0 0
SMALL
GASTEIGER

@<TRIPOS>ATOM
      1 C          -7.6093  -15.2196   26.2353 C.3     1  UNL1        0.0328
      2 C          -6.6698  -15.8917   25.2784 C.ar    1  UNL1        0.0003
      3 C          -5.1956  -15.8987   25.5549 C.ar    1  UNL1       -0.0011
      4 C          -4.2562  -16.5708   24.5979 C.ar    1  UNL1        0.0188
      5 C          -4.7910  -17.2359   23.3645 C.ar    1  UNL1        0.0814
      6 N          -6.2653  -17.2290   23.0880 N.ar    1  UNL1       -0.2411
      7 C          -7.2047  -16.5569   24.0449 C.ar    1  UNL1        0.1307
      8 C          -3.8516  -17.9080   22.4075 C.ar    1  UNL1        0.0174
      9 C          -4.1276  -19.3076   21.9439 C.ar    1  UNL1        0.0015
     10 C          -3.1882  -19.9797   20.9870 C.ar    1  UNL1       -0.0002
     11 C          -1.9728  -19.2523   20.4936 C.ar    1  UNL1       -0.0019
     12 C          -1.6968  -17.8527   20.9571 C.ar    1  UNL1        0.0070
     13 C          -2.6362  -17.1806   21.9141 C.ar    1  UNL1       -0.0004
     14 C          -0.4813  -17.1251   20.4638 C.3     1  UNL1        0.1636
     15 O           0.8618  -17.7915   20.5096 O.3     1  UNL1       -0.3772
     16 H           1.1211  -17.9329   21.4336 H       1  UNL1        0.2109
     17 C          -8.6790  -16.5500   23.7684 C.2     1  UNL1        0.2669
     18 O          -9.5130  -15.3716   24.1759 O.2     1  UNL1       -0.2682
     19 N          -9.3193  -17.7213   23.0844 N.am    1  UNL1       -0.2797
     20 H          -8.7719  -18.4947   22.8169 H       1  UNL1        0.1552
     21 C         -10.7936  -17.7144   22.8078 C.ar    1  UNL1        0.0426
     22 C         -11.3024  -17.2862   21.4633 C.ar    1  UNL1       -0.0087
     23 C         -10.3370  -16.8648   20.3954 C.3     1  UNL1        0.0323
     24 C         -12.7767  -17.2792   21.1867 C.ar    1  UNL1       -0.0030
     25 C         -13.7421  -17.7005   22.2546 C.ar    1  UNL1        0.0006
     26 C         -13.2332  -18.1288   23.5991 C.ar    1  UNL1        0.0112
     27 C         -11.7590  -18.1357   23.8757 C.ar    1  UNL1       -0.0076
     28 C         -11.2501  -18.5640   25.2202 C.3     1  UNL1        0.0324
     29 C         -14.1987  -18.5501   24.6671 C.2     1  UNL1        0.0726
     30 O         -15.6232  -18.8573   24.3115 O.co2   1  UNL1       -0.5446
     31 O         -13.7396  -18.6643   26.0905 O.co2   1  UNL1       -0.5446
@<TRIPOS>UNITY_ATOM_ATTR
30 1
charge -1
@<TRIPOS>BOND
     1     1     2    1
     2     2     3   ar
     3     3     4   ar
     4     4     5   ar
     5     5     8    1
     6     8     9   ar
     7     9    10   ar
     8    10    11   ar
     9    11    12   ar
    10    12    14    1
    11    14    15    1
    12    12    13   ar
    13     5     6   ar
    14     6     7   ar
    15     7    17    1
    16    17    18    2
    17    17    19   am
    18    19    21    1
    19    21    22   ar
    20    22    23    1
    21    22    24   ar
    22    24    25   ar
    23    25    26   ar
    24    26    29    1
    25    29    30   ar
    26    29    31   ar
    27    26    27   ar
    28    27    28    1
    29     7     2   ar
    30    27    21   ar
    31    13     8   ar
    32    15    16    1
    33    19    20    1
@<TRIPOS>MOLECULE
*****
 31 33 0 0 0
SMALL
GASTEIGER

@<TRIPOS>ATOM
      1 C          -2.4224    5.1690   18.7493 C.3     1  UNL1        0.0328
      2 C          -1.4419    4.0592   18.9878 C.ar    1  UNL1        0.0003
      3 C          -0.5948    3.5514   17.8589 C.ar    1  UNL1       -0.0011
      4 C           0.3858    2.4416   18.0974 C.ar    1  UNL1        0.0188
      5 C           0.5192    1.8396   19.4647 C.ar    1  UNL1        0.0814
      6 N          -0.3279    2.3474   20.5936 N.ar    1  UNL1       -0.2411
      7 C          -1.3085    3.4572   20.3552 C.ar    1  UNL1        0.1307
      8 C           1.4998    0.7298   19.7032 C.ar    1  UNL1        0.0174
      9 C           1.6604    0.1537   21.0788 C.ar    1  UNL1        0.0015
     10 C           2.6410   -0.9561   21.3172 C.ar    1  UNL1       -0.0002
     11 C           3.4609   -1.4898   20.1802 C.ar    1  UNL1       -0.0019
     12 C           3.3002   -0.9136   18.8046 C.ar    1  UNL1        0.0070
     13 C           2.3197    0.1962   18.5661 C.ar    1  UNL1       -0.0004
     14 C           4.1201   -1.4472   17.6675 C.3     1  UNL1        0.1636
     15 O           3.6841   -1.2093   16.2521 O.3     1  UNL1       -0.3772
     16 H           2.8519   -1.6793   16.0868 H       1  UNL1        0.2109
     17 C          -2.1556    3.9650   21.4842 C.2     1  UNL1        0.2669
     18 O          -1.9314    5.3447   22.0283 O.2     1  UNL1       -0.2682
     19 N          -3.2269    3.0931   22.0690 N.am    1  UNL1       -0.2797
     20 H          -3.3740    2.1875   21.7118 H       1  UNL1        0.1552
     21 C          -4.0741    3.6009   23.1980 C.ar    1  UNL1        0.0426
     22 C          -3.5355    3.6022   24.5979 C.ar    1  UNL1       -0.0087
     23 C          -2.1498    3.0958   24.8689 C.3     1  UNL1        0.0323
     24 C          -4.3826    4.1100   25.7269 C.ar    1  UNL1       -0.0030
     25 C          -5.7682    4.6164   25.4559 C.ar    1  UNL1        0.0006
     26 C          -6.3068    4.6151   24.0559 C.ar    1  UNL1        0.0112
     27 C          -5.4597    4.1073   22.9269 C.ar    1  UNL1       -0.0076
     28 C          -5.9983    4.1060   21.5270 C.3     1  UNL1        0.0324
     29 C          -7.6925    5.1215   23.7849 C.2     1  UNL1        0.0726
     30 O          -8.8541    4.1727   23.8003 O.co2   1  UNL1       -0.5446
     31 O          -7.9165    6.5768   23.4986 O.co2   1  UNL1       -0.5446
@<TRIPOS>UNITY_ATOM_ATTR
30 1
charge -1
@<TRIPOS>BOND
     1     1     2    1
     2     2     3   ar
     3     3     4   ar
     4     4     5   ar
     5     5     8    1
     6     8     9   ar
     7     9    10   ar
     8    10    11   ar
     9    11    12   ar
    10    12    14    1
    11    14    15    1
    12    12    13   ar
    13     5     6   ar
    14     6     7   ar
    15     7    17    1
    16    17    18    2
    17    17    19   am
    18    19    21    1
    19    21    22   ar
    20    22    23    1
    21    22    24   ar
    22    24    25   ar
    23    25    26   ar
    24    26    29    1
    25    29    30   ar
    26    29    31   ar
    27    26    27   ar
    28    27    28    1
    29     7     2   ar
    30    27    21   ar
    31    13     8   ar
    32    15    16    1
    33    19    20    1
@<TRIPOS>MOLECULE
*****
 31 33 0 0 0
SMALL
GASTEIGER

@<TRIPOS>ATOM
      1 C           5.6820   -1.1861   26.7911 C.3     1  UNL1        0.0328
      2 C           5.4359   -1.5896   25.3675 C.ar    1  UNL1        0.0003
      3 C           4.5870   -0.7284   24.4800 C.ar    1  UNL1       -0.0011
      4 C           4.3409   -1.1319   23.0563 C.ar    1  UNL1        0.0188
      5 C           4.9437   -2.3964   22.5202 C.ar    1  UNL1        0.0814
      6 N           5.7927   -3.2575   23.4077 N.ar    1  UNL1       -0.2411
      7 C           6.0388   -2.8541   24.8313 C.ar    1  UNL1        0.1307
      8 C           4.6976   -2.7998   21.0966 C.ar    1  UNL1        0.0174
      9 C           4.4933   -4.2451   20.7513 C.ar    1  UNL1        0.0015
     10 C           4.2472   -4.6486   19.3276 C.ar    1  UNL1       -0.0002
     11 C           4.2054   -3.6067   18.2494 C.ar    1  UNL1       -0.0019
     12 C           4.4096   -2.1614   18.5947 C.ar    1  UNL1        0.0070
     13 C           4.6558   -1.7580   20.0184 C.ar    1  UNL1       -0.0004
     14 C           4.3678   -1.1194   17.5165 C.3     1  UNL1        0.1636
     15 O           3.7115   -1.4255   16.2028 O.3     1  UNL1       -0.3772
     16 H           4.2151   -2.1151   15.7427 H       1  UNL1        0.2109
     17 C           6.8878   -3.7153   25.7189 C.2     1  UNL1        0.2669
     18 O           8.3029   -3.3180   26.0182 O.2     1  UNL1       -0.2682
     19 N           6.3217   -4.9737   26.3069 N.am    1  UNL1       -0.2797
     20 H           5.3929   -5.2345   26.1104 H       1  UNL1        0.1552
     21 C           7.1707   -5.8349   27.1944 C.ar    1  UNL1        0.0426
     22 C           7.9248   -6.9950   26.6150 C.ar    1  UNL1       -0.0087
     23 C           7.8298   -7.2938   25.1481 C.3     1  UNL1        0.0323
     24 C           8.7738   -7.8561   27.5025 C.ar    1  UNL1       -0.0030
     25 C           8.8687   -7.5572   28.9693 C.ar    1  UNL1        0.0006
     26 C           8.1147   -6.3972   29.5487 C.ar    1  UNL1        0.0112
     27 C           7.2657   -5.5360   28.6612 C.ar    1  UNL1       -0.0076
     28 C           6.5117   -4.3759   29.2406 C.3     1  UNL1        0.0324
     29 C           8.2097   -6.0983   31.0156 C.2     1  UNL1        0.0726
     30 O           9.4656   -5.5033   31.5799 O.co2   1  UNL1       -0.5446
     31 O           7.0487   -6.3944   31.9180 O.co2   1  UNL1       -0.5446
@<TRIPOS>UNITY_ATOM_ATTR
30 1
charge -1
@<TRIPOS>BOND
     1     1     2    1
     2     2     3   ar
     3     3     4   ar
     4     4     5   ar
     5     5     8    1
     6     8     9   ar
     7     9    10   ar
     8    10    11   ar
     9    11    12   ar
    10    12    14    1
    11    14    15    1
    12    12    13   ar
    13     5     6   ar
    14     6     7   ar
    15     7    17    1
    16    17    18    2
    17    17    19   am
    18    19    21    1
    19    21    22   ar
    20    22    23    1
    21    22    24   ar
    22    24    25   ar
    23    25    26   ar
    24    26    29    1
    25    29    30   ar
    26    29    31   ar
    27    26    27   ar
    28    27    28    1
    29     7     2   ar
    30    27    21   ar
    31    13     8   ar
    32    15    16    1
    33    19    20    1
@<TRIPOS>MOLECULE
*****
 31 33 0 0 0
SMALL
GASTEIGER

@<TRIPOS>ATOM
      1 C           8.5580   -2.7610   19.1744 C.3     1  UNL1        0.0328
      2 C           8.3683   -3.5264   20.4504 C.ar    1  UNL1        0.0003
      3 C           9.5346   -4.2208   21.0888 C.ar    1  UNL1       -0.0011
      4 C           9.3449   -4.9862   22.3648 C.ar    1  UNL1        0.0188
      5 C           7.9891   -5.0572   23.0024 C.ar    1  UNL1        0.0814
      6 N           6.8229   -4.3628   22.3640 N.ar    1  UNL1       -0.2411
      7 C           7.0125   -3.5974   21.0880 C.ar    1  UNL1        0.1307
      8 C           7.7995   -5.8226   24.2784 C.ar    1  UNL1        0.0174
      9 C           8.2694   -7.2436   24.3775 C.ar    1  UNL1        0.0015
     10 C           8.0798   -8.0090   25.6536 C.ar    1  UNL1       -0.0002
     11 C           7.4202   -7.3534   26.8304 C.ar    1  UNL1       -0.0019
     12 C           6.9503   -5.9324   26.7313 C.ar    1  UNL1        0.0070
     13 C           7.1399   -5.1670   25.4553 C.ar    1  UNL1       -0.0004
     14 C           6.2907   -5.2767   27.9083 C.3     1  UNL1        0.1636
     15 O           6.4964   -5.8296   29.2874 O.3     1  UNL1       -0.3772
     16 H           6.0944   -6.7104   29.3459 H       1  UNL1        0.2109
     17 C           5.8462   -2.9029   20.4496 C.2     1  UNL1        0.2669
     18 O           4.7798   -3.7044   19.7636 O.2     1  UNL1       -0.2682
     19 N           5.7462   -1.4070   20.4971 N.am    1  UNL1       -0.2797
     20 H           6.4461   -0.8810   20.9473 H       1  UNL1        0.1552
     21 C           4.5799   -0.7126   19.8587 C.ar    1  UNL1        0.0426
     22 C           4.6378   -0.3271   18.4102 C.ar    1  UNL1       -0.0087
     23 C           5.8619   -0.6360   17.6002 C.3     1  UNL1        0.0323
     24 C           3.4715    0.3674   17.7718 C.ar    1  UNL1       -0.0030
     25 C           2.2475    0.6763   18.5818 C.ar    1  UNL1        0.0006
     26 C           2.1896    0.2907   20.0303 C.ar    1  UNL1        0.0112
     27 C           3.3558   -0.4037   20.6687 C.ar    1  UNL1       -0.0076
     28 C           3.2980   -0.7892   22.1171 C.3     1  UNL1        0.0324
     29 C           0.9655    0.5996   20.8403 C.2     1  UNL1        0.0726
     30 O          -0.2618   -0.2511   20.6989 O.co2   1  UNL1       -0.5446
     31 O           0.9686    1.7593   21.7917 O.co2   1  UNL1       -0.5446
@<TRIPOS>UNITY_ATOM_ATTR
30 1
charge -1
@<TRIPOS>BOND
     1     1     2    1
     2     2     3   ar
     3     3     4   ar
     4     4     5   ar
     5     5     8    1
     6     8     9   ar
     7     9    10   ar
     8    10    11   ar
     9    11    12   ar
    10    12    14    1
    11    14    15    1
    12    12    13   ar
    13     5     6   ar
    14     6     7   ar
    15     7    17    1
    16    17    18    2
    17    17    19   am
    18    19    21    1
    19    21    22   ar
    20    22    23    1
    21    22    24   ar
    22    24    25   ar
    23    25    26   ar
    24    26    29    1
    25    29    30   ar
    26    29    31   ar
    27    26    27   ar
    28    27    28    1
    29     7     2   ar
    30    27    21   ar
    31    13     8   ar
    32    15    16    1
    33    19    20    1
@<TRIPOS>MOLECULE
*****
 31 33 0 0 0
SMALL
GASTEIGER

@<TRIPOS>ATOM
      1 C          -7.6105  -15.0898   26.3607 C.3     1  UNL1        0.0328
      2 C          -6.6889  -15.7692   25.3917 C.ar    1  UNL1        0.0003
      3 C          -5.2139  -15.8087   25.6612 C.ar    1  UNL1       -0.0011
      4 C          -4.2923  -16.4881   24.6922 C.ar    1  UNL1        0.0188
      5 C          -4.8457  -17.1281   23.4536 C.ar    1  UNL1        0.0814
      6 N          -6.3208  -17.0886   23.1840 N.ar    1  UNL1       -0.2411
      7 C          -7.2424  -16.4091   24.1531 C.ar    1  UNL1        0.1307
      8 C          -3.9241  -17.8075   22.4845 C.ar    1  UNL1        0.0174
      9 C          -2.5158  -17.3181   22.3198 C.ar    1  UNL1        0.0015
     10 C          -1.5942  -17.9975   21.3508 C.ar    1  UNL1       -0.0002
     11 C          -2.0810  -19.1663   20.5464 C.ar    1  UNL1       -0.0019
     12 C          -3.4893  -19.6557   20.7111 C.ar    1  UNL1        0.0070
     13 C          -4.4109  -18.9762   21.6802 C.ar    1  UNL1       -0.0004
     14 C          -3.9760  -20.8245   19.9067 C.3     1  UNL1        0.1636
     15 O          -5.3839  -21.3147   20.0725 O.3     1  UNL1       -0.3772
     16 H          -5.4981  -21.6739   20.9663 H       1  UNL1        0.2109
     17 C          -8.7175  -16.3697   23.8834 C.2     1  UNL1        0.2669
     18 O          -9.5429  -15.2261   24.3943 O.2     1  UNL1       -0.2682
     19 N          -9.3670  -17.4737   23.1030 N.am    1  UNL1       -0.2797
     20 H          -8.8253  -18.2242   22.7677 H       1  UNL1        0.1552
     21 C         -10.8421  -17.4342   22.8334 C.ar    1  UNL1        0.0426
     22 C         -11.3557  -16.8342   21.5582 C.ar    1  UNL1       -0.0087
     23 C         -10.3941  -16.2736   20.5525 C.3     1  UNL1        0.0323
     24 C         -12.8307  -16.7947   21.2885 C.ar    1  UNL1       -0.0030
     25 C         -13.7921  -17.3552   22.2941 C.ar    1  UNL1        0.0006
     26 C         -13.2786  -17.9553   23.5694 C.ar    1  UNL1        0.0112
     27 C         -11.8036  -17.9948   23.8390 C.ar    1  UNL1       -0.0076
     28 C         -11.2901  -18.5948   25.1142 C.3     1  UNL1        0.0324
     29 C         -14.2402  -18.5158   24.5750 C.2     1  UNL1        0.0726
     30 O         -13.8007  -18.7338   25.9925 O.co2   1  UNL1       -0.5446
     31 O         -15.6412  -18.8584   24.1631 O.co2   1  UNL1       -0.5446
@<TRIPOS>UNITY_ATOM_ATTR
30 1
charge -1
@<TRIPOS>BOND
     1     1     2    1
     2     2     3   ar
     3     3     4   ar
     4     4     5   ar
     5     5     8    1
     6     8     9   ar
     7     9    10   ar
     8    10    11   ar
     9    11    12   ar
    10    12    14    1
    11    14    15    1
    12    12    13   ar
    13     5     6   ar
    14     6     7   ar
    15     7    17    1
    16    17    18    2
    17    17    19   am
    18    19    21    1
    19    21    22   ar
    20    22    23    1
    21    22    24   ar
    22    24    25   ar
    23    25    26   ar
    24    26    29    1
    25    29    30   ar
    26    29    31   ar
    27    26    27   ar
    28    27    28    1
    29     7     2   ar
    30    27    21   ar
    31    13     8   ar
    32    15    16    1
    33    19    20    1
@<TRIPOS>MOLECULE
*****
 31 33 0 0 0
SMALL
GASTEIGER

@<TRIPOS>ATOM
      1 C           9.0429   -5.1144   24.1539 C.3     1  UNL1        0.0328
      2 C           8.0140   -4.3766   23.3495 C.ar    1  UNL1        0.0003
      3 C           7.9096   -4.6090   21.8713 C.ar    1  UNL1       -0.0011
      4 C           6.8808   -3.8712   21.0669 C.ar    1  UNL1        0.0188
      5 C           5.9563   -2.9009   21.7407 C.ar    1  UNL1        0.0814
      6 N           6.0608   -2.6685   23.2188 N.ar    1  UNL1       -0.2411
      7 C           7.0896   -3.4063   24.0233 C.ar    1  UNL1        0.1307
      8 C           4.9275   -2.1631   20.9363 C.ar    1  UNL1        0.0174
      9 C           3.6190   -1.7808   21.5620 C.ar    1  UNL1        0.0015
     10 C           2.5901   -1.0430   20.7576 C.ar    1  UNL1       -0.0002
     11 C           2.8698   -0.6874   19.3274 C.ar    1  UNL1       -0.0019
     12 C           4.1783   -1.0697   18.7017 C.ar    1  UNL1        0.0070
     13 C           5.2072   -1.8075   19.5061 C.ar    1  UNL1       -0.0004
     14 C           4.4581   -0.7142   17.2715 C.3     1  UNL1        0.1636
     15 O           3.6761   -1.3661   16.1699 O.3     1  UNL1       -0.3772
     16 H           3.8814   -2.3138   16.1447 H       1  UNL1        0.2109
     17 C           7.1940   -3.1739   25.5015 C.2     1  UNL1        0.2669
     18 O           8.3714   -2.4332   26.0629 O.2     1  UNL1       -0.2682
     19 N           6.1210   -3.6820   26.4182 N.am    1  UNL1       -0.2797
     20 H           5.3483   -4.1682   26.0498 H       1  UNL1        0.1552
     21 C           6.2254   -3.4496   27.8965 C.ar    1  UNL1        0.0426
     22 C           5.7303   -2.1642   28.4904 C.ar    1  UNL1       -0.0087
     23 C           5.1308   -1.1113   27.6060 C.3     1  UNL1        0.0323
     24 C           5.8347   -1.9317   29.9685 C.ar    1  UNL1       -0.0030
     25 C           6.4342   -2.9846   30.8528 C.ar    1  UNL1        0.0006
     26 C           6.9293   -4.2700   30.2589 C.ar    1  UNL1        0.0112
     27 C           6.8249   -4.5025   28.7808 C.ar    1  UNL1       -0.0076
     28 C           7.3200   -5.7878   28.1869 C.3     1  UNL1        0.0324
     29 C           7.5288   -5.3229   31.1433 C.2     1  UNL1        0.0726
     30 O           9.0193   -5.4481   31.2559 O.co2   1  UNL1       -0.5446
     31 O           6.6377   -6.2504   31.9151 O.co2   1  UNL1       -0.5446
@<TRIPOS>UNITY_ATOM_ATTR
30 1
charge -1
@<TRIPOS>BOND
     1     1     2    1
     2     2     3   ar
     3     3     4   ar
     4     4     5   ar
     5     5     8    1
     6     8     9   ar
     7     9    10   ar
     8    10    11   ar
     9    11    12   ar
    10    12    14    1
    11    14    15    1
    12    12    13   ar
    13     5     6   ar
    14     6     7   ar
    15     7    17    1
    16    17    18    2
    17    17    19   am
    18    19    21    1
    19    21    22   ar
    20    22    23    1
    21    22    24   ar
    22    24    25   ar
    23    25    26   ar
    24    26    29    1
    25    29    30   ar
    26    29    31   ar
    27    26    27   ar
    28    27    28    1
    29     7     2   ar
    30    27    21   ar
    31    13     8   ar
    32    15    16    1
    33    19    20    1
@<TRIPOS>MOLECULE
*****
 31 33 0 0 0
SMALL
GASTEIGER

@<TRIPOS>ATOM
      1 C          -0.0317    2.4253   23.8189 C.3     1  UNL1        0.0328
      2 C           0.9064    1.3941   23.2651 C.ar    1  UNL1        0.0003
      3 C           0.8099    0.9893   21.8240 C.ar    1  UNL1       -0.0011
      4 C           1.7480   -0.0419   21.2703 C.ar    1  UNL1        0.0188
      5 C           2.7825   -0.6683   22.1576 C.ar    1  UNL1        0.0814
      6 N           2.8789   -0.2635   23.5987 N.ar    1  UNL1       -0.2411
      7 C           1.9409    0.7677   24.1524 C.ar    1  UNL1        0.1307
      8 C           3.7205   -1.6995   21.6038 C.ar    1  UNL1        0.0174
      9 C           4.2862   -2.7586   22.5027 C.ar    1  UNL1        0.0015
     10 C           5.2243   -3.7898   21.9489 C.ar    1  UNL1       -0.0002
     11 C           5.5966   -3.7619   20.4962 C.ar    1  UNL1       -0.0019
     12 C           5.0309   -2.7028   19.5972 C.ar    1  UNL1        0.0070
     13 C           4.0929   -1.6716   20.1510 C.ar    1  UNL1       -0.0004
     14 C           5.4033   -2.6748   18.1444 C.3     1  UNL1        0.1636
     15 O           4.4314   -2.1469   17.1311 O.3     1  UNL1       -0.3772
     16 H           3.6584   -2.7315   17.0894 H       1  UNL1        0.2109
     17 C           2.0373    1.1724   25.5936 C.2     1  UNL1        0.2669
     18 O           2.8869    2.3439   25.9883 O.2     1  UNL1       -0.2682
     19 N           1.2843    0.4057   26.6400 N.am    1  UNL1       -0.2797
     20 H           0.7267   -0.3632   26.3809 H       1  UNL1        0.1552
     21 C           1.3807    0.8105   28.0812 C.ar    1  UNL1        0.0426
     22 C           0.4419    1.8408   28.6353 C.ar    1  UNL1       -0.0087
     23 C          -0.5934    2.4664   27.7482 C.3     1  UNL1        0.0323
     24 C           0.5383    2.2456   30.0764 C.ar    1  UNL1       -0.0030
     25 C           1.5736    1.6200   30.9634 C.ar    1  UNL1        0.0006
     26 C           2.5125    0.5897   30.4093 C.ar    1  UNL1        0.0112
     27 C           2.4160    0.1849   28.9682 C.ar    1  UNL1       -0.0076
     28 C           3.3549   -0.8454   28.4141 C.3     1  UNL1        0.0324
     29 C           3.5478   -0.0359   31.2964 C.2     1  UNL1        0.0726
     30 O           4.8647    0.6495   31.5109 O.co2   1  UNL1       -0.5446
     31 O           3.2661   -1.3467   31.9689 O.co2   1  UNL1       -0.5446
@<TRIPOS>UNITY_ATOM_ATTR
30 1
charge -1
@<TRIPOS>BOND
     1     1     2    1
     2     2     3   ar
     3     3     4   ar
     4     4     5   ar
     5     5     8    1
     6     8     9   ar
     7     9    10   ar
     8    10    11   ar
     9    11    12   ar
    10    12    14    1
    11    14    15    1
    12    12    13   ar
    13     5     6   ar
    14     6     7   ar
    15     7    17    1
    16    17    18    2
    17    17    19   am
    18    19    21    1
    19    21    22   ar
    20    22    23    1
    21    22    24   ar
    22    24    25   ar
    23    25    26   ar
    24    26    29    1
    25    29    30   ar
    26    29    31   ar
    27    26    27   ar
    28    27    28    1
    29     7     2   ar
    30    27    21   ar
    31    13     8   ar
    32    15    16    1
    33    19    20    1
@<TRIPOS>MOLECULE
*****
 31 33 0 0 0
SMALL
GASTEIGER

@<TRIPOS>ATOM
      1 C           7.9905   -4.8517   22.2411 C.3     1  UNL1        0.0328
      2 C           6.8782   -3.8778   22.4949 C.ar    1  UNL1        0.0003
      3 C           6.1693   -3.2318   21.3416 C.ar    1  UNL1       -0.0011
      4 C           5.0571   -2.2579   21.5953 C.ar    1  UNL1        0.0188
      5 C           4.6538   -1.9299   23.0023 C.ar    1  UNL1        0.0814
      6 N           5.3627   -2.5759   24.1556 N.ar    1  UNL1       -0.2411
      7 C           6.4749   -3.5498   23.9019 C.ar    1  UNL1        0.1307
      8 C           3.5415   -0.9560   23.2561 C.ar    1  UNL1        0.0174
      9 C           3.3100   -0.4259   24.6400 C.ar    1  UNL1        0.0015
     10 C           2.1978    0.5481   24.8938 C.ar    1  UNL1       -0.0002
     11 C           1.3171    0.9919   23.7636 C.ar    1  UNL1       -0.0019
     12 C           1.5487    0.4618   22.3796 C.ar    1  UNL1        0.0070
     13 C           2.6609   -0.5121   22.1259 C.ar    1  UNL1       -0.0004
     14 C           0.6680    0.9056   21.2493 C.3     1  UNL1        0.1636
     15 O          -0.2124   -0.0873   20.5501 O.3     1  UNL1       -0.3772
     16 H           0.3382   -0.7346   20.0823 H       1  UNL1        0.2109
     17 C           7.1839   -4.1958   25.0552 C.2     1  UNL1        0.2669
     18 O           8.5370   -3.7031   25.4749 O.2     1  UNL1       -0.2682
     19 N           6.5396   -5.3345   25.7889 N.am    1  UNL1       -0.2797
     20 H           5.6514   -5.6579   25.5135 H       1  UNL1        0.1552
     21 C           7.2485   -5.9805   26.9423 C.ar    1  UNL1        0.0426
     22 C           8.1274   -7.1735   26.7093 C.ar    1  UNL1       -0.0087
     23 C           8.2973   -7.7205   25.3229 C.3     1  UNL1        0.0323
     24 C           8.8363   -7.8195   27.8625 C.ar    1  UNL1       -0.0030
     25 C           8.6663   -7.2725   29.2488 C.ar    1  UNL1        0.0006
     26 C           7.7875   -6.0795   29.4818 C.ar    1  UNL1        0.0112
     27 C           7.0786   -5.4335   28.3286 C.ar    1  UNL1       -0.0076
     28 C           6.1997   -4.2404   28.5616 C.3     1  UNL1        0.0324
     29 C           7.6175   -5.5324   30.8682 C.2     1  UNL1        0.0726
     30 O           8.4117   -4.3374   31.3055 O.co2   1  UNL1       -0.5446
     31 O           6.6535   -6.1804   31.8172 O.co2   1  UNL1       -0.5446
@<TRIPOS>UNITY_ATOM_ATTR
30 1
charge -1
@<TRIPOS>BOND
     1     1     2    1
     2     2     3   ar
     3     3     4   ar
     4     4     5   ar
     5     5     8    1
     6     8     9   ar
     7     9    10   ar
     8    10    11   ar
     9    11    12   ar
    10    12    14    1
    11    14    15    1
    12    12    13   ar
    13     5     6   ar
    14     6     7   ar
    15     7    17    1
    16    17    18    2
    17    17    19   am
    18    19    21    1
    19    21    22   ar
    20    22    23    1
    21    22    24   ar
    22    24    25   ar
    23    25    26   ar
    24    26    29    1
    25    29    30   ar
    26    29    31   ar
    27    26    27   ar
    28    27    28    1
    29     7     2   ar
    30    27    21   ar
    31    13     8   ar
    32    15    16    1
    33    19    20    1
@<TRIPOS>MOLECULE
*****
 31 33 0 0 0
SMALL
GASTEIGER

@<TRIPOS>ATOM
      1 C           3.9282   -0.2896   26.8777 C.3     1  UNL1        0.0328
      2 C           4.0210   -0.8413   25.4860 C.ar    1  UNL1        0.0003
      3 C           3.0903   -0.3458   24.4192 C.ar    1  UNL1       -0.0011
      4 C           3.1831   -0.8975   23.0274 C.ar    1  UNL1        0.0188
      5 C           4.2066   -1.9448   22.7025 C.ar    1  UNL1        0.0814
      6 N           5.1373   -2.4403   23.7693 N.ar    1  UNL1       -0.2411
      7 C           5.0445   -1.8886   25.1611 C.ar    1  UNL1        0.1307
      8 C           4.2994   -2.4966   21.3108 C.ar    1  UNL1        0.0174
      9 C           4.2876   -3.9801   21.0898 C.ar    1  UNL1        0.0015
     10 C           4.3804   -4.5319   19.6980 C.ar    1  UNL1       -0.0002
     11 C           4.4849   -3.6001   18.5273 C.ar    1  UNL1       -0.0019
     12 C           4.4967   -2.1165   18.7482 C.ar    1  UNL1        0.0070
     13 C           4.4039   -1.5648   20.1400 C.ar    1  UNL1       -0.0004
     14 C           4.6013   -1.1846   17.5774 C.3     1  UNL1        0.1636
     15 O           3.7601   -1.4160   16.3572 O.3     1  UNL1       -0.3772
     16 H           4.0305   -2.2440   15.9304 H       1  UNL1        0.2109
     17 C           5.9753   -2.3841   26.2279 C.2     1  UNL1        0.2669
     18 O           7.3932   -1.8966   26.2718 O.2     1  UNL1       -0.2682
     19 N           5.4882   -3.3671   27.2508 N.am    1  UNL1       -0.2797
     20 H           4.5576   -3.6871   27.2220 H       1  UNL1        0.1552
     21 C           6.4190   -3.8627   28.3177 C.ar    1  UNL1        0.0426
     22 C           7.1358   -5.1683   28.1403 C.ar    1  UNL1       -0.0087
     23 C           6.9218   -5.9784   26.8961 C.3     1  UNL1        0.0323
     24 C           8.0666   -5.6639   29.2071 C.ar    1  UNL1       -0.0030
     25 C           8.2805   -4.8539   30.4512 C.ar    1  UNL1        0.0006
     26 C           7.5637   -3.5482   30.6286 C.ar    1  UNL1        0.0112
     27 C           6.6329   -3.0526   29.5619 C.ar    1  UNL1       -0.0076
     28 C           5.9161   -1.7470   29.7392 C.3     1  UNL1        0.0324
     29 C           7.7777   -2.7381   31.8729 C.2     1  UNL1        0.0726
     30 O           6.6481   -2.5340   32.8384 O.co2   1  UNL1       -0.5446
     31 O           9.1212   -2.1322   32.1515 O.co2   1  UNL1       -0.5446
@<TRIPOS>UNITY_ATOM_ATTR
30 1
charge -1
@<TRIPOS>BOND
     1     1     2    1
     2     2     3   ar
     3     3     4   ar
     4     4     5   ar
     5     5     8    1
     6     8     9   ar
     7     9    10   ar
     8    10    11   ar
     9    11    12   ar
    10    12    14    1
    11    14    15    1
    12    12    13   ar
    13     5     6   ar
    14     6     7   ar
    15     7    17    1
    16    17    18    2
    17    17    19   am
    18    19    21    1
    19    21    22   ar
    20    22    23    1
    21    22    24   ar
    22    24    25   ar
    23    25    26   ar
    24    26    29    1
    25    29    30   ar
    26    29    31   ar
    27    26    27   ar
    28    27    28    1
    29     7     2   ar
    30    27    21   ar
    31    13     8   ar
    32    15    16    1
    33    19    20    1
