@<TRIPOS>MOLECULE
*****
 35 38 0 0 0
SMALL
GASTEIGER

@<TRIPOS>ATOM
      1 C          -7.1934  -19.9045   20.8589 C.ar    1  UNL1        0.1534
      2 C          -7.4304  -19.9585   22.3390 C.ar    1  UNL1        0.0351
      3 C          -8.8052  -19.7158   22.8877 C.ar    1  UNL1        0.0722
      4 CL         -9.0423  -19.7697   24.3679 Cl      1  UNL1       -0.0809
      5 C          -9.9429  -19.4191   21.9563 C.ar    1  UNL1        0.0577
      6 C          -9.7058  -19.3651   20.4761 C.ar    1  UNL1        0.0462
      7 C          -8.3311  -19.6078   19.9274 C.ar    1  UNL1        0.1602
      8 F          -8.0940  -19.5539   18.4472 F       1  UNL1       -0.2027
      9 O          -6.0114  -21.6250   20.4808 O.2     1  UNL1       -0.1498
     10 S          -5.8186  -20.1473   20.3101 S.O2    1  UNL1        0.0772
     11 O          -5.6258  -18.6696   20.1394 O.2     1  UNL1       -0.1498
     12 N          -4.4439  -20.3901   19.7614 N.pl3   1  UNL1       -0.1936
     13 H          -4.2971  -21.1036   19.0992 H       1  UNL1        0.1758
     14 C          -3.2927  -19.5457   20.2216 C.ar    1  UNL1        0.1786
     15 N          -2.4814  -18.6188   19.3656 N.ar    1  UNL1       -0.2214
     16 C          -1.4380  -17.9802   20.2336 C.ar    1  UNL1        0.1079
     17 C          -1.6044  -18.5124   21.6262 C.ar    1  UNL1        0.0588
     18 S          -2.7507  -19.4800   21.6188 S.2     1  UNL1       -0.0497
     19 N         -11.3177  -19.1763   22.5050 N.pl3   1  UNL1       -0.3306
     20 H         -11.8495  -19.9290   22.8511 H       1  UNL1        0.1469
     21 C         -11.8821  -17.7867   22.5265 C.3     1  UNL1        0.1075
     22 C         -11.6128  -16.8501   21.3861 C.3     1  UNL1        0.0963
     23 N         -12.5606  -16.7902   20.2251 N.3     1  UNL1       -0.2935
     24 C         -12.2913  -15.8536   19.0848 C.3     1  UNL1        0.0735
     25 C         -11.0743  -14.9770   19.1056 C.3     1  UNL1        0.0428
     26 C         -10.1265  -15.0370   20.2667 C.2     1  UNL1       -0.0276
     27 C         -10.3958  -15.9735   21.4069 C.2     1  UNL1       -0.0106
     28 H         -13.4739  -16.5388   20.6032 H       1  UNL1        0.1236
     29 C          -9.4480  -16.0335   22.5681 C.ar    1  UNL1       -0.0028
     30 C          -9.9713  -15.9251   23.9697 C.ar    1  UNL1        0.0020
     31 C          -9.0236  -15.9852   25.1308 C.ar    1  UNL1        0.0296
     32 C          -7.5526  -16.1536   24.8904 C.ar    1  UNL1        0.1401
     33 F          -6.6049  -16.2136   26.0515 F       1  UNL1       -0.2042
     34 C          -7.0293  -16.2620   23.4888 C.ar    1  UNL1        0.0296
     35 C          -7.9771  -16.2019   22.3276 C.ar    1  UNL1        0.0020
@<TRIPOS>BOND
     1     9    10    2
     2    10    11    2
     3    10    12    1
     4    12    14    1
     5    14    15   ar
     6    15    16   ar
     7    16    17   ar
     8    17    18   ar
     9    10     1    1
    10     1     2   ar
    11     2     3   ar
    12     3     4    1
    13     3     5   ar
    14     5    19    1
    15    19    21    1
    16    22    21    1
    17    22    23    1
    18    23    24    1
    19    24    25    1
    20    25    26    1
    21    26    27    2
    22    27    29    1
    23    29    30   ar
    24    30    31   ar
    25    31    32   ar
    26    32    33    1
    27    32    34   ar
    28    34    35   ar
    29     5     6   ar
    30     6     7   ar
    31     7     8    1
    32    18    14   ar
    33     7     1   ar
    34    27    22    1
    35    35    29   ar
    36    12    13    1
    37    19    20    1
    38    23    28    1
@<TRIPOS>MOLECULE
*****
 35 38 0 0 0
SMALL
GASTEIGER

@<TRIPOS>ATOM
      1 C          -4.7871  -17.0350   23.4455 C.ar    1  UNL1        0.1534
      2 C          -4.8925  -16.2009   24.6877 C.ar    1  UNL1        0.0351
      3 C          -6.2401  -15.7949   25.2064 C.ar    1  UNL1        0.0722
      4 CL         -6.3455  -14.9607   26.4486 Cl      1  UNL1       -0.0809
      5 C          -7.4823  -16.2231   24.4829 C.ar    1  UNL1        0.0577
      6 C          -7.3770  -17.0573   23.2407 C.ar    1  UNL1        0.0462
      7 C          -6.0294  -17.4632   22.7221 C.ar    1  UNL1        0.1602
      8 F          -5.9240  -18.2975   21.4798 F       1  UNL1       -0.2027
      9 O          -3.2002  -16.0388   22.4510 O.2     1  UNL1       -0.1498
     10 S          -3.4394  -17.4410   22.9268 S.O2    1  UNL1        0.0772
     11 O          -3.6787  -18.8433   23.4026 O.2     1  UNL1       -0.1498
     12 N          -2.0918  -17.8469   22.4080 N.pl3   1  UNL1       -0.1936
     13 H          -1.3823  -18.1134   23.0364 H       1  UNL1        0.1758
     14 C          -1.8252  -17.8469   20.9319 C.ar    1  UNL1        0.1786
     15 N          -2.8592  -17.9395   19.8491 N.ar    1  UNL1       -0.2214
     16 C          -2.1508  -17.9040   18.5274 C.ar    1  UNL1        0.1079
     17 C          -0.6789  -17.7895   18.7933 C.ar    1  UNL1        0.0588
     18 S          -0.4777  -17.7542   20.2794 S.2     1  UNL1       -0.0497
     19 N          -8.8300  -15.8171   25.0017 N.pl3   1  UNL1       -0.3306
     20 H          -8.9003  -15.1380   25.7110 H       1  UNL1        0.1469
     21 C         -10.0705  -16.4458   24.4397 C.3     1  UNL1        0.1075
     22 C         -10.1683  -17.9381   24.3230 C.3     1  UNL1        0.0963
     23 N          -9.7538  -18.8090   25.4718 N.3     1  UNL1       -0.2935
     24 C          -9.8516  -20.3012   25.3551 C.3     1  UNL1        0.0735
     25 C         -10.3639  -20.9226   24.0895 C.3     1  UNL1        0.0428
     26 C         -10.7783  -20.0517   22.9408 C.2     1  UNL1       -0.0276
     27 C         -10.6806  -18.5595   23.0575 C.2     1  UNL1       -0.0106
     28 H         -10.3289  -18.5377   26.2694 H       1  UNL1        0.1236
     29 C         -11.0951  -17.6885   21.9087 C.ar    1  UNL1       -0.0028
     30 C         -10.1544  -17.4608   20.7627 C.ar    1  UNL1        0.0020
     31 C         -10.5688  -16.5899   19.6139 C.ar    1  UNL1        0.0296
     32 C         -11.9240  -15.9467   19.6111 C.ar    1  UNL1        0.1401
     33 F         -12.3384  -15.0758   18.4623 F       1  UNL1       -0.2042
     34 C         -12.8646  -16.1744   20.7571 C.ar    1  UNL1        0.0296
     35 C         -12.4501  -17.0453   21.9059 C.ar    1  UNL1        0.0020
@<TRIPOS>BOND
     1     9    10    2
     2    10    11    2
     3    10    12    1
     4    12    14    1
     5    14    15   ar
     6    15    16   ar
     7    16    17   ar
     8    17    18   ar
     9    10     1    1
    10     1     2   ar
    11     2     3   ar
    12     3     4    1
    13     3     5   ar
    14     5    19    1
    15    19    21    1
    16    22    21    1
    17    22    23    1
    18    23    24    1
    19    24    25    1
    20    25    26    1
    21    26    27    2
    22    27    29    1
    23    29    30   ar
    24    30    31   ar
    25    31    32   ar
    26    32    33    1
    27    32    34   ar
    28    34    35   ar
    29     5     6   ar
    30     6     7   ar
    31     7     8    1
    32    18    14   ar
    33     7     1   ar
    34    27    22    1
    35    35    29   ar
    36    12    13    1
    37    19    20    1
    38    23    28    1
@<TRIPOS>MOLECULE
*****
 35 38 0 0 0
SMALL
GASTEIGER

@<TRIPOS>ATOM
      1 C         -14.5957   -7.8511   18.2913 C.ar    1  UNL1        0.1534
      2 C         -13.3175   -7.8544   17.5064 C.ar    1  UNL1        0.0351
      3 C         -12.2923   -6.7842   17.7381 C.ar    1  UNL1        0.0722
      4 CL        -11.0140   -6.7876   16.9532 Cl      1  UNL1       -0.0809
      5 C         -12.5453   -5.7107   18.7547 C.ar    1  UNL1        0.0577
      6 C         -13.8235   -5.7074   19.5396 C.ar    1  UNL1        0.0462
      7 C         -14.8487   -6.7775   19.3079 C.ar    1  UNL1        0.1602
      8 F         -16.1270   -6.7742   20.0928 F       1  UNL1       -0.2027
      9 O         -16.3872   -7.9933   17.1642 O.2     1  UNL1       -0.1498
     10 S         -15.6209   -8.9213   18.0596 S.O2    1  UNL1        0.0772
     11 O         -14.8547   -9.8492   18.9550 O.2     1  UNL1       -0.1498
     12 N         -16.6461   -9.9914   17.8279 N.pl3   1  UNL1       -0.1936
     13 H         -16.4022  -10.8086   17.3361 H       1  UNL1        0.1758
     14 C         -18.0431   -9.8164   18.3456 C.ar    1  UNL1        0.1786
     15 N         -18.4274   -9.1798   19.6482 N.ar    1  UNL1       -0.2214
     16 C         -19.9228   -9.2173   19.7591 C.ar    1  UNL1        0.1079
     17 C         -20.4628   -9.8771   18.5249 C.ar    1  UNL1        0.0588
     18 S         -19.3010  -10.2474   17.6513 S.2     1  UNL1       -0.0497
     19 N         -11.5201   -4.6405   18.9864 N.pl3   1  UNL1       -0.3306
     20 H         -10.5632   -4.8427   18.8733 H       1  UNL1        0.1469
     21 C         -11.9527   -3.2623   19.3903 C.3     1  UNL1        0.1075
     22 C         -11.9076   -2.1403   18.3957 C.3     1  UNL1        0.0963
     23 N         -10.6103   -1.4441   18.1088 N.3     1  UNL1       -0.2935
     24 C         -10.5651   -0.3222   17.1142 C.3     1  UNL1        0.0735
     25 C         -11.8173    0.1035   16.4065 C.3     1  UNL1        0.0428
     26 C         -13.1146   -0.5927   16.6934 C.2     1  UNL1       -0.0276
     27 C         -13.1597   -1.7146   17.6880 C.2     1  UNL1       -0.0106
     28 H          -9.9603   -2.1572   17.7780 H       1  UNL1        0.1236
     29 C         -14.4570   -2.4108   17.9749 C.ar    1  UNL1       -0.0028
     30 C         -15.1841   -2.1425   19.2592 C.ar    1  UNL1        0.0020
     31 C         -16.4814   -2.8387   19.5461 C.ar    1  UNL1        0.0296
     32 C         -17.0517   -3.8032   18.5488 C.ar    1  UNL1        0.1401
     33 F         -18.3489   -4.4994   18.8358 F       1  UNL1       -0.2042
     34 C         -16.3246   -4.0715   17.2645 C.ar    1  UNL1        0.0296
     35 C         -15.0272   -3.3753   16.9776 C.ar    1  UNL1        0.0020
@<TRIPOS>BOND
     1     9    10    2
     2    10    11    2
     3    10    12    1
     4    12    14    1
     5    14    15   ar
     6    15    16   ar
     7    16    17   ar
     8    17    18   ar
     9    10     1    1
    10     1     2   ar
    11     2     3   ar
    12     3     4    1
    13     3     5   ar
    14     5    19    1
    15    19    21    1
    16    22    21    1
    17    22    23    1
    18    23    24    1
    19    24    25    1
    20    25    26    1
    21    26    27    2
    22    27    29    1
    23    29    30   ar
    24    30    31   ar
    25    31    32   ar
    26    32    33    1
    27    32    34   ar
    28    34    35   ar
    29     5     6   ar
    30     6     7   ar
    31     7     8    1
    32    18    14   ar
    33     7     1   ar
    34    27    22    1
    35    35    29   ar
    36    12    13    1
    37    19    20    1
    38    23    28    1
@<TRIPOS>MOLECULE
*****
 35 38 0 0 0
SMALL
GASTEIGER

@<TRIPOS>ATOM
      1 C           1.1112    2.6415   31.6349 C.ar    1  UNL1        0.1534
      2 C           0.5246    3.9629   32.0346 C.ar    1  UNL1        0.0351
      3 C           0.7954    4.5215   33.4001 C.ar    1  UNL1        0.0722
      4 CL          0.2088    5.8429   33.7997 Cl      1  UNL1       -0.0809
      5 C           1.6529    3.7587   34.3659 C.ar    1  UNL1        0.0577
      6 C           2.2395    2.4373   33.9663 C.ar    1  UNL1        0.0462
      7 C           1.9687    1.8787   32.6008 C.ar    1  UNL1        0.1602
      8 F           2.5553    0.5572   32.2011 F       1  UNL1       -0.2027
      9 O          -0.2533    1.2272   30.8364 O.2     1  UNL1       -0.1498
     10 S           0.8404    2.0829   30.2694 S.O2    1  UNL1        0.0772
     11 O           1.9342    2.9385   29.7024 O.2     1  UNL1       -0.1498
     12 N           0.5696    1.5242   28.9039 N.pl3   1  UNL1       -0.1936
     13 H          -0.2963    1.6917   28.4664 H       1  UNL1        0.1758
     14 C           1.6181    0.7104   28.2050 C.ar    1  UNL1        0.1786
     15 N           2.1634    0.9673   26.8315 N.ar    1  UNL1       -0.2214
     16 C           3.1876   -0.0875   26.5346 C.ar    1  UNL1        0.1079
     17 C           3.2753   -0.9965   27.7246 C.ar    1  UNL1        0.0588
     18 S           2.3053   -0.5033   28.7571 S.2     1  UNL1       -0.0497
     19 N           1.9237    4.3173   35.7315 N.pl3   1  UNL1       -0.3306
     20 H           1.5311    5.1802   35.9970 H       1  UNL1        0.1469
     21 C           2.7925    3.5612   36.6923 C.3     1  UNL1        0.1075
     22 C           2.1697    2.6607   37.7177 C.3     1  UNL1        0.0963
     23 N           0.8288    2.9996   38.2981 N.3     1  UNL1       -0.2935
     24 C           0.2061    2.0990   39.3234 C.3     1  UNL1        0.0735
     25 C           0.9243    0.8596   39.7683 C.3     1  UNL1        0.0428
     26 C           2.2653    0.5207   39.1879 C.2     1  UNL1       -0.0276
     27 C           2.8880    1.4212   38.1626 C.2     1  UNL1       -0.0106
     28 H           0.1749    3.0530   37.5171 H       1  UNL1        0.1236
     29 C           4.2290    1.0824   37.5821 C.ar    1  UNL1       -0.0028
     30 C           5.4564    1.7995   38.0610 C.ar    1  UNL1        0.0020
     31 C           6.7974    1.4607   37.4806 C.ar    1  UNL1        0.0296
     32 C           6.9111    0.4046   36.4213 C.ar    1  UNL1        0.1401
     33 F           8.2521    0.0658   35.8409 F       1  UNL1       -0.2042
     34 C           5.6837   -0.3125   35.9425 C.ar    1  UNL1        0.0296
     35 C           4.3427    0.0264   36.5229 C.ar    1  UNL1        0.0020
@<TRIPOS>BOND
     1     9    10    2
     2    10    11    2
     3    10    12    1
     4    12    14    1
     5    14    15   ar
     6    15    16   ar
     7    16    17   ar
     8    17    18   ar
     9    10     1    1
    10     1     2   ar
    11     2     3   ar
    12     3     4    1
    13     3     5   ar
    14     5    19    1
    15    19    21    1
    16    22    21    1
    17    22    23    1
    18    23    24    1
    19    24    25    1
    20    25    26    1
    21    26    27    2
    22    27    29    1
    23    29    30   ar
    24    30    31   ar
    25    31    32   ar
    26    32    33    1
    27    32    34   ar
    28    34    35   ar
    29     5     6   ar
    30     6     7   ar
    31     7     8    1
    32    18    14   ar
    33     7     1   ar
    34    27    22    1
    35    35    29   ar
    36    12    13    1
    37    19    20    1
    38    23    28    1
@<TRIPOS>MOLECULE
*****
 35 38 0 0 0
SMALL
GASTEIGER

@<TRIPOS>ATOM
      1 C           1.5813    0.5602   20.7903 C.ar    1  UNL1        0.1534
      2 C           2.0529    0.3187   22.1936 C.ar    1  UNL1        0.0351
      3 C           2.9830   -0.8211   22.4865 C.ar    1  UNL1        0.0722
      4 CL          3.4546   -1.0626   23.8899 Cl      1  UNL1       -0.0809
      5 C           3.4414   -1.7194   21.3762 C.ar    1  UNL1        0.0577
      6 C           2.9698   -1.4779   19.9729 C.ar    1  UNL1        0.0462
      7 C           2.0398   -0.3381   19.6800 C.ar    1  UNL1        0.1602
      8 F           1.5681   -0.0966   18.2766 F       1  UNL1       -0.2027
      9 O           1.8159    2.6451   20.4771 O.2     1  UNL1       -0.1498
     10 S           0.6512    1.7000   20.4973 S.O2    1  UNL1        0.0772
     11 O          -0.5134    0.7550   20.5175 O.2     1  UNL1       -0.1498
     12 N          -0.2788    2.8398   20.2044 N.pl3   1  UNL1       -0.1936
     13 H          -0.1600    3.3742   19.3861 H       1  UNL1        0.1758
     14 C          -1.3898    3.1655   21.1581 C.ar    1  UNL1        0.1786
     15 N          -2.8580    3.0435   20.8762 N.ar    1  UNL1       -0.2214
     16 C          -3.6032    3.4729   22.1051 C.ar    1  UNL1        0.1079
     17 C          -2.5956    3.8604   23.1466 C.ar    1  UNL1        0.0588
     18 S          -1.2275    3.6704   22.5613 S.2     1  UNL1       -0.0497
     19 N           4.3715   -2.8592   21.6692 N.pl3   1  UNL1       -0.3306
     20 H           4.5423   -3.1282   22.6007 H       1  UNL1        0.1469
     21 C           5.0414   -3.5891   20.5429 C.3     1  UNL1        0.1075
     22 C           6.5385   -3.6589   20.4797 C.3     1  UNL1        0.0963
     23 N           7.2569   -4.8590   21.0215 N.3     1  UNL1       -0.2935
     24 C           8.7539   -4.9288   20.9583 C.3     1  UNL1        0.0735
     25 C           9.5325   -3.7984   20.3532 C.3     1  UNL1        0.0428
     26 C           8.8141   -2.5983   19.8114 C.2     1  UNL1       -0.0276
     27 C           7.3171   -2.5286   19.8746 C.2     1  UNL1       -0.0106
     28 H           6.9026   -5.6689   20.5126 H       1  UNL1        0.1236
     29 C           6.5987   -1.3284   19.3328 C.ar    1  UNL1       -0.0028
     30 C           6.4015   -0.1187   20.1975 C.ar    1  UNL1        0.0020
     31 C           5.6831    1.0814   19.6557 C.ar    1  UNL1        0.0296
     32 C           5.1617    1.0718   18.2492 C.ar    1  UNL1        0.1401
     33 F           4.4433    2.2719   17.7074 F       1  UNL1       -0.2042
     34 C           5.3589   -0.1379   17.3845 C.ar    1  UNL1        0.0296
     35 C           6.0774   -1.3381   17.9264 C.ar    1  UNL1        0.0020
@<TRIPOS>BOND
     1     9    10    2
     2    10    11    2
     3    10    12    1
     4    12    14    1
     5    14    15   ar
     6    15    16   ar
     7    16    17   ar
     8    17    18   ar
     9    10     1    1
    10     1     2   ar
    11     2     3   ar
    12     3     4    1
    13     3     5   ar
    14     5    19    1
    15    19    21    1
    16    22    21    1
    17    22    23    1
    18    23    24    1
    19    24    25    1
    20    25    26    1
    21    26    27    2
    22    27    29    1
    23    29    30   ar
    24    30    31   ar
    25    31    32   ar
    26    32    33    1
    27    32    34   ar
    28    34    35   ar
    29     5     6   ar
    30     6     7   ar
    31     7     8    1
    32    18    14   ar
    33     7     1   ar
    34    27    22    1
    35    35    29   ar
    36    12    13    1
    37    19    20    1
    38    23    28    1
@<TRIPOS>MOLECULE
*****
 35 38 0 0 0
SMALL
GASTEIGER

@<TRIPOS>ATOM
      1 C           7.1502   -2.6074   22.0287 C.ar    1  UNL1        0.1534
      2 C           6.2427   -1.8221   22.9286 C.ar    1  UNL1        0.0351
      3 C           5.7081   -0.4942   22.4807 C.ar    1  UNL1        0.0722
      4 CL          4.8005    0.2911   23.3806 Cl      1  UNL1       -0.0809
      5 C           6.0811    0.0486   21.1330 C.ar    1  UNL1        0.0577
      6 C           6.9886   -0.7366   20.2332 C.ar    1  UNL1        0.0462
      7 C           7.5231   -2.0646   20.6810 C.ar    1  UNL1        0.1602
      8 F           8.4307   -2.8499   19.7811 F       1  UNL1       -0.2027
      9 O           6.4065   -4.5939   22.0496 O.2     1  UNL1       -0.1498
     10 S           7.6848   -3.9354   22.4765 S.O2    1  UNL1        0.0772
     11 O           8.9631   -3.2769   22.9035 O.2     1  UNL1       -0.1498
     12 N           8.2194   -5.2635   22.9243 N.pl3   1  UNL1       -0.1936
     13 H           8.8377   -5.7656   22.3458 H       1  UNL1        0.1758
     14 C           7.8118   -5.8264   24.2536 C.ar    1  UNL1        0.1786
     15 N           7.0820   -5.0892   25.3371 N.ar    1  UNL1       -0.2214
     16 C           6.8817   -6.0326   26.4859 C.ar    1  UNL1        0.1079
     17 C           7.4877   -7.3530   26.1125 C.ar    1  UNL1        0.0588
     18 S           8.0625   -7.2256   24.7328 S.2     1  UNL1       -0.0497
     19 N           5.5464    1.3767   20.6852 N.pl3   1  UNL1       -0.3306
     20 H           5.4945    2.1263   21.3213 H       1  UNL1        0.1469
     21 C           5.0909    1.5626   19.2683 C.3     1  UNL1        0.1075
     22 C           3.6289    1.7023   18.9626 C.3     1  UNL1        0.0963
     23 N           3.0133    3.0654   18.8494 N.3     1  UNL1       -0.2935
     24 C           1.5515    3.2051   18.5438 C.3     1  UNL1        0.0735
     25 C           0.7052    1.9816   18.3514 C.3     1  UNL1        0.0428
     26 C           1.3209    0.6185   18.4647 C.2     1  UNL1       -0.0276
     27 C           2.7827    0.4788   18.7703 C.2     1  UNL1       -0.0106
     28 H           3.5168    3.5554   18.1099 H       1  UNL1        0.1236
     29 C           3.3984   -0.8843   18.8836 C.ar    1  UNL1       -0.0028
     30 C           3.1199   -1.7354   20.0869 C.ar    1  UNL1        0.0020
     31 C           3.7356   -3.0985   20.2002 C.ar    1  UNL1        0.0296
     32 C           4.6298   -3.6106   19.1101 C.ar    1  UNL1        0.1401
     33 F           5.2455   -4.9737   19.2234 F       1  UNL1       -0.2042
     34 C           4.9083   -2.7595   17.9068 C.ar    1  UNL1        0.0296
     35 C           4.2926   -1.3964   17.7935 C.ar    1  UNL1        0.0020
@<TRIPOS>BOND
     1     9    10    2
     2    10    11    2
     3    10    12    1
     4    12    14    1
     5    14    15   ar
     6    15    16   ar
     7    16    17   ar
     8    17    18   ar
     9    10     1    1
    10     1     2   ar
    11     2     3   ar
    12     3     4    1
    13     3     5   ar
    14     5    19    1
    15    19    21    1
    16    22    21    1
    17    22    23    1
    18    23    24    1
    19    24    25    1
    20    25    26    1
    21    26    27    2
    22    27    29    1
    23    29    30   ar
    24    30    31   ar
    25    31    32   ar
    26    32    33    1
    27    32    34   ar
    28    34    35   ar
    29     5     6   ar
    30     6     7   ar
    31     7     8    1
    32    18    14   ar
    33     7     1   ar
    34    27    22    1
    35    35    29   ar
    36    12    13    1
    37    19    20    1
    38    23    28    1
@<TRIPOS>MOLECULE
*****
 35 38 0 0 0
SMALL
GASTEIGER

@<TRIPOS>ATOM
      1 C           3.5409   -1.3531   19.4730 C.ar    1  UNL1        0.1534
      2 C           3.5005   -2.7727   18.9903 C.ar    1  UNL1        0.0351
      3 C           4.6982   -3.6586   19.1649 C.ar    1  UNL1        0.0722
      4 CL          4.6578   -5.0783   18.6821 Cl      1  UNL1       -0.0809
      5 C           5.9364   -3.1249   19.8222 C.ar    1  UNL1        0.0577
      6 C           5.9769   -1.7053   20.3049 C.ar    1  UNL1        0.0462
      7 C           4.7791   -0.8194   20.1303 C.ar    1  UNL1        0.1602
      8 F           4.8195    0.6003   20.6131 F       1  UNL1       -0.2027
      9 O           2.9011    0.0310   17.9983 O.2     1  UNL1       -0.1498
     10 S           2.3431   -0.4671   19.2985 S.O2    1  UNL1        0.0772
     11 O           1.7851   -0.9653   20.5986 O.2     1  UNL1       -0.1498
     12 N           1.1454    0.4188   19.1239 N.pl3   1  UNL1       -0.1936
     13 H           0.5648    0.3121   18.3360 H       1  UNL1        0.1758
     14 C           0.8322    1.4674   20.1498 C.ar    1  UNL1        0.1786
     15 N          -0.4401    1.5790   20.9365 N.ar    1  UNL1       -0.2214
     16 C          -0.3223    2.7690   21.8420 C.ar    1  UNL1        0.1079
     17 C           1.0228    3.3930   21.6149 C.ar    1  UNL1        0.0588
     18 S           1.7363    2.5885   20.5690 S.2     1  UNL1       -0.0497
     19 N           7.1342   -4.0109   19.9967 N.pl3   1  UNL1       -0.3306
     20 H           7.3308   -4.7096   19.3316 H       1  UNL1        0.1469
     21 C           8.0324   -3.8323   21.1847 C.3     1  UNL1        0.1075
     22 C           8.0870   -4.8879   22.2491 C.3     1  UNL1        0.0963
     23 N           8.8655   -6.1486   22.0159 N.3     1  UNL1       -0.2935
     24 C           8.9201   -7.2041   23.0803 C.3     1  UNL1        0.0735
     25 C           8.1961   -6.9988   24.3779 C.3     1  UNL1        0.0428
     26 C           7.4176   -5.7381   24.6111 C.2     1  UNL1       -0.0276
     27 C           7.3631   -4.6826   23.5467 C.2     1  UNL1       -0.0106
     28 H           9.8285   -5.8696   21.8283 H       1  UNL1        0.1236
     29 C           6.5845   -3.4218   23.7799 C.ar    1  UNL1       -0.0028
     30 C           7.2600   -2.2228   24.3765 C.ar    1  UNL1        0.0020
     31 C           6.4815   -0.9620   24.6097 C.ar    1  UNL1        0.0296
     32 C           5.0275   -0.9003   24.2462 C.ar    1  UNL1        0.1401
     33 F           4.2490    0.3605   24.4794 F       1  UNL1       -0.2042
     34 C           4.3520   -2.0993   23.6496 C.ar    1  UNL1        0.0296
     35 C           5.1305   -3.3601   23.4164 C.ar    1  UNL1        0.0020
@<TRIPOS>BOND
     1     9    10    2
     2    10    11    2
     3    10    12    1
     4    12    14    1
     5    14    15   ar
     6    15    16   ar
     7    16    17   ar
     8    17    18   ar
     9    10     1    1
    10     1     2   ar
    11     2     3   ar
    12     3     4    1
    13     3     5   ar
    14     5    19    1
    15    19    21    1
    16    22    21    1
    17    22    23    1
    18    23    24    1
    19    24    25    1
    20    25    26    1
    21    26    27    2
    22    27    29    1
    23    29    30   ar
    24    30    31   ar
    25    31    32   ar
    26    32    33    1
    27    32    34   ar
    28    34    35   ar
    29     5     6   ar
    30     6     7   ar
    31     7     8    1
    32    18    14   ar
    33     7     1   ar
    34    27    22    1
    35    35    29   ar
    36    12    13    1
    37    19    20    1
    38    23    28    1
@<TRIPOS>MOLECULE
*****
 35 38 0 0 0
SMALL
GASTEIGER

@<TRIPOS>ATOM
      1 C           1.6249    1.1532   19.1731 C.ar    1  UNL1        0.1534
      2 C           2.8006    1.0348   18.2492 C.ar    1  UNL1        0.0351
      3 C           3.6110   -0.2272   18.2246 C.ar    1  UNL1        0.0722
      4 CL          4.7867   -0.3456   17.3006 Cl      1  UNL1       -0.0809
      5 C           3.2457   -1.3707   19.1239 C.ar    1  UNL1        0.0577
      6 C           2.0700   -1.2523   20.0478 C.ar    1  UNL1        0.0462
      7 C           1.2596    0.0096   20.0724 C.ar    1  UNL1        0.1602
      8 F           0.0838    0.1281   20.9964 F       1  UNL1       -0.2027
      9 O           0.0914    1.9750   17.9594 O.2     1  UNL1       -0.1498
     10 S           0.8144    2.4152   19.1977 S.O2    1  UNL1        0.0772
     11 O           1.5374    2.8554   20.4360 O.2     1  UNL1       -0.1498
     12 N           0.0040    3.6772   19.2223 N.pl3   1  UNL1       -0.1936
     13 H           0.4317    4.5408   19.0214 H       1  UNL1        0.1758
     14 C          -1.4582    3.6232   19.5530 C.ar    1  UNL1        0.1786
     15 N          -2.0760    2.8787   20.6993 N.ar    1  UNL1       -0.2214
     16 C          -3.5588    3.0996   20.6501 C.ar    1  UNL1        0.1079
     17 C          -3.8575    3.9808   19.4734 C.ar    1  UNL1        0.0588
     18 S          -2.5591    4.3043   18.7953 S.2     1  UNL1       -0.0497
     19 N           4.0561   -2.6328   19.0993 N.pl3   1  UNL1       -0.3306
     20 H           4.4293   -2.9616   18.2497 H       1  UNL1        0.1469
     21 C           4.2979   -3.3937   20.3691 C.3     1  UNL1        0.1075
     22 C           5.6617   -3.3963   20.9938 C.3     1  UNL1        0.0963
     23 N           6.6519   -4.4621   20.6287 N.3     1  UNL1       -0.2935
     24 C           8.0156   -4.4647   21.2535 C.3     1  UNL1        0.0735
     25 C           8.3890   -3.4013   22.2433 C.3     1  UNL1        0.0428
     26 C           7.3988   -2.3355   22.6084 C.2     1  UNL1       -0.0276
     27 C           6.0352   -2.3329   21.9837 C.2     1  UNL1       -0.0106
     28 H           6.7903   -4.4024   19.6199 H       1  UNL1        0.1236
     29 C           5.0449   -1.2670   22.3488 C.ar    1  UNL1       -0.0028
     30 C           5.1554    0.0995   21.7403 C.ar    1  UNL1        0.0020
     31 C           4.1652    1.1654   22.1053 C.ar    1  UNL1        0.0296
     32 C           3.0644    0.8648   23.0790 C.ar    1  UNL1        0.1401
     33 F           2.0742    1.9307   23.4441 F       1  UNL1       -0.2042
     34 C           2.9539   -0.5018   23.6876 C.ar    1  UNL1        0.0296
     35 C           3.9442   -1.5677   23.3224 C.ar    1  UNL1        0.0020
@<TRIPOS>BOND
     1     9    10    2
     2    10    11    2
     3    10    12    1
     4    12    14    1
     5    14    15   ar
     6    15    16   ar
     7    16    17   ar
     8    17    18   ar
     9    10     1    1
    10     1     2   ar
    11     2     3   ar
    12     3     4    1
    13     3     5   ar
    14     5    19    1
    15    19    21    1
    16    22    21    1
    17    22    23    1
    18    23    24    1
    19    24    25    1
    20    25    26    1
    21    26    27    2
    22    27    29    1
    23    29    30   ar
    24    30    31   ar
    25    31    32   ar
    26    32    33    1
    27    32    34   ar
    28    34    35   ar
    29     5     6   ar
    30     6     7   ar
    31     7     8    1
    32    18    14   ar
    33     7     1   ar
    34    27    22    1
    35    35    29   ar
    36    12    13    1
    37    19    20    1
    38    23    28    1
@<TRIPOS>MOLECULE
*****
 35 38 0 0 0
SMALL
GASTEIGER

@<TRIPOS>ATOM
      1 C          -7.9088  -16.9062   22.8926 C.ar    1  UNL1        0.1534
      2 C          -6.9345  -15.8168   23.2302 C.ar    1  UNL1        0.0351
      3 C          -5.4778  -16.1366   23.3902 C.ar    1  UNL1        0.0722
      4 CL         -4.5035  -15.0472   23.7279 Cl      1  UNL1       -0.0809
      5 C          -4.9953  -17.5457   23.2125 C.ar    1  UNL1        0.0577
      6 C          -5.9696  -18.6351   22.8749 C.ar    1  UNL1        0.0462
      7 C          -7.4263  -18.3153   22.7149 C.ar    1  UNL1        0.1602
      8 F          -8.4007  -19.4047   22.3772 F       1  UNL1       -0.2027
      9 O          -9.4209  -16.1250   24.1587 O.2     1  UNL1       -0.1498
     10 S          -9.3656  -16.5865   22.7326 S.O2    1  UNL1        0.0772
     11 O          -9.3103  -17.0479   21.3064 O.2     1  UNL1       -0.1498
     12 N         -10.8224  -16.2667   22.5727 N.pl3   1  UNL1       -0.1936
     13 H         -11.1000  -15.4937   22.0299 H       1  UNL1        0.1758
     14 C         -11.8562  -17.1249   23.2397 C.ar    1  UNL1        0.1786
     15 N         -13.3384  -16.8954   23.2203 N.ar    1  UNL1       -0.2214
     16 C         -13.9876  -17.9918   24.0118 C.ar    1  UNL1        0.1079
     17 C         -12.9065  -18.8989   24.5204 C.ar    1  UNL1        0.0588
     18 S         -11.5892  -18.3631   24.0432 S.2     1  UNL1       -0.0497
     19 N          -3.5385  -17.8654   23.3725 N.pl3   1  UNL1       -0.3306
     20 H          -2.9948  -17.3700   24.0269 H       1  UNL1        0.1469
     21 C          -2.9102  -18.9399   22.5355 C.3     1  UNL1        0.1075
     22 C          -2.1791  -18.5787   21.2764 C.3     1  UNL1        0.0963
     23 N          -0.7947  -18.0062   21.3510 N.3     1  UNL1       -0.2935
     24 C          -0.0638  -17.6450   20.0919 C.3     1  UNL1        0.0735
     25 C          -0.7172  -17.8564   18.7584 C.3     1  UNL1        0.0428
     26 C          -2.1016  -18.4289   18.6839 C.2     1  UNL1       -0.0276
     27 C          -2.8326  -18.7901   19.9429 C.2     1  UNL1       -0.0106
     28 H          -0.2186  -18.6914   21.8397 H       1  UNL1        0.1236
     29 C          -4.2170  -19.3627   19.8684 C.ar    1  UNL1       -0.0028
     30 C          -4.4410  -20.8210   20.1389 C.ar    1  UNL1        0.0020
     31 C          -5.8254  -21.3936   20.0645 C.ar    1  UNL1        0.0296
     32 C          -6.9859  -20.5079   19.7195 C.ar    1  UNL1        0.1401
     33 F          -8.3702  -21.0805   19.6451 F       1  UNL1       -0.2042
     34 C          -6.7619  -19.0496   19.4490 C.ar    1  UNL1        0.0296
     35 C          -5.3774  -18.4770   19.5235 C.ar    1  UNL1        0.0020
@<TRIPOS>BOND
     1     9    10    2
     2    10    11    2
     3    10    12    1
     4    12    14    1
     5    14    15   ar
     6    15    16   ar
     7    16    17   ar
     8    17    18   ar
     9    10     1    1
    10     1     2   ar
    11     2     3   ar
    12     3     4    1
    13     3     5   ar
    14     5    19    1
    15    19    21    1
    16    22    21    1
    17    22    23    1
    18    23    24    1
    19    24    25    1
    20    25    26    1
    21    26    27    2
    22    27    29    1
    23    29    30   ar
    24    30    31   ar
    25    31    32   ar
    26    32    33    1
    27    32    34   ar
    28    34    35   ar
    29     5     6   ar
    30     6     7   ar
    31     7     8    1
    32    18    14   ar
    33     7     1   ar
    34    27    22    1
    35    35    29   ar
    36    12    13    1
    37    19    20    1
    38    23    28    1
