@<TRIPOS>MOLECULE
*****
 33 37 0 0 0
SMALL
GASTEIGER

@<TRIPOS>ATOM
      1 N          -7.7995  -18.8528   21.6322 N.3     1  UNL1       -0.2679
      2 C          -9.0922  -18.9742   22.3833 C.3     1  UNL1        0.0978
      3 C          -9.1921  -19.8993   23.5597 C.3     1  UNL1        0.0224
      4 C         -10.4848  -20.0207   24.3108 C.3     1  UNL1        0.0065
      5 C         -11.6777  -19.2168   23.8855 C.3     1  UNL1        0.0277
      6 C         -11.5778  -18.2917   22.7090 C.ar    1  UNL1       -0.0073
      7 C         -12.7706  -17.4878   22.2837 C.ar    1  UNL1       -0.0015
      8 C         -12.6707  -16.5626   21.1072 C.ar    1  UNL1        0.0203
      9 C         -11.3780  -16.4412   20.3562 C.ar    1  UNL1        0.0985
     10 N         -10.1852  -17.2451   20.7815 N.ar    1  UNL1       -0.2471
     11 C         -10.2850  -18.1703   21.9580 C.ar    1  UNL1        0.0695
     12 C          -7.3123  -19.9934   20.7886 C.3     1  UNL1        0.0738
     13 C          -6.0054  -20.6573   21.1073 C.3     1  UNL1        0.0347
     14 C          -4.9321  -20.7403   20.0629 C.3     1  UNL1        0.0736
     15 C          -0.3227  -16.9011   20.1865 C.3     1  UNL1        0.0897
     16 N          -1.4751  -17.8609   20.1556 N.3     1  UNL1       -0.2691
     17 C          -1.5018  -19.0311   21.0936 C.3     1  UNL1        0.0897
     18 C          -2.6542  -19.9909   21.0627 C.3     1  UNL1        0.0897
     19 N          -3.7797  -19.7805   20.0938 N.3     1  UNL1       -0.2703
     20 C          -3.7530  -18.6103   19.1557 C.3     1  UNL1        0.0897
     21 C          -2.6006  -17.6505   19.1867 C.3     1  UNL1        0.0897
     22 C          -6.9939  -17.5909   21.7247 C.3     1  UNL1        0.0888
     23 C          -6.7415  -16.9585   23.0613 C.3     1  UNL1        0.0782
     24 C          -7.8956  -16.5727   23.9384 C.3     1  UNL1        0.0434
     25 C          -7.6431  -15.9403   25.2750 C.ar    1  UNL1       -0.0234
     26 C          -8.7971  -15.5544   26.1521 C.ar    1  UNL1       -0.0045
     27 C          -8.5447  -14.9221   27.4886 C.ar    1  UNL1       -0.0003
     28 C          -7.1383  -14.6756   27.9481 C.ar    1  UNL1       -0.0003
     29 C          -5.9842  -15.0614   27.0710 C.ar    1  UNL1       -0.0032
     30 C          -6.2366  -15.6938   25.7344 C.ar    1  UNL1       -0.0101
     31 C          -5.0826  -16.0796   24.8573 C.3     1  UNL1        0.0989
     32 N          -5.3351  -16.7120   23.5207 N.3     1  UNL1       -0.2674
     33 C          -4.1811  -17.0979   22.6436 C.3     1  UNL1        0.0899
@<TRIPOS>BOND
     1    15    16    1
     2    16    17    1
     3    17    18    1
     4    18    19    1
     5    19    14    1
     6    14    13    1
     7    13    12    1
     8    12     1    1
     9     1    22    1
    10    23    22    1
    11    23    24    1
    12    24    25    1
    13    25    26   ar
    14    26    27   ar
    15    27    28   ar
    16    28    29   ar
    17    29    30   ar
    18    30    31    1
    19    31    32    1
    20    32    33    1
    21     2     1    1
    22     2     3    1
    23     3     4    1
    24     4     5    1
    25     5     6    1
    26     6     7   ar
    27     7     8   ar
    28     8     9   ar
    29     9    10   ar
    30    10    11   ar
    31    19    20    1
    32    20    21    1
    33    21    16    1
    34    32    23    1
    35    11     2    1
    36    30    25   ar
    37    11     6   ar
@<TRIPOS>MOLECULE
*****
 33 37 0 0 0
SMALL
GASTEIGER

@<TRIPOS>ATOM
      1 N          -7.4779  -19.5592   21.6515 N.3     1  UNL1       -0.2679
      2 C          -8.3884  -19.1472   22.7701 C.3     1  UNL1        0.0978
      3 C          -9.3566  -20.1345   23.3514 C.3     1  UNL1        0.0224
      4 C         -10.2670  -19.7225   24.4700 C.3     1  UNL1        0.0065
      5 C         -10.2093  -18.3232   25.0074 C.3     1  UNL1        0.0277
      6 C          -9.2411  -17.3360   24.4261 C.ar    1  UNL1       -0.0073
      7 C          -9.1834  -15.9367   24.9634 C.ar    1  UNL1       -0.0015
      8 C          -8.2152  -14.9495   24.3821 C.ar    1  UNL1        0.0203
      9 C          -7.3047  -15.3615   23.2635 C.ar    1  UNL1        0.0985
     10 N          -7.3624  -16.7607   22.7262 N.ar    1  UNL1       -0.2471
     11 C          -8.3307  -17.7480   23.3075 C.ar    1  UNL1        0.0695
     12 C          -7.8674  -19.2874   20.2287 C.3     1  UNL1        0.0738
     13 C          -8.8774  -20.1625   19.5473 C.3     1  UNL1        0.0347
     14 C         -10.2629  -19.6487   19.2899 C.3     1  UNL1        0.0736
     15 C         -12.6253  -15.4627   22.8811 C.3     1  UNL1        0.0897
     16 N         -12.0347  -16.5092   21.9833 N.3     1  UNL1       -0.2691
     17 C         -11.0148  -16.1246   20.9528 C.3     1  UNL1        0.0897
     18 C         -10.4242  -17.1711   20.0550 C.3     1  UNL1        0.0897
     19 N         -10.8534  -18.6022   20.1877 N.3     1  UNL1       -0.2703
     20 C         -11.8734  -18.9868   21.2182 C.3     1  UNL1        0.0897
     21 C         -12.4639  -17.9403   22.1160 C.3     1  UNL1        0.0897
     22 C          -6.1780  -20.2430   21.9557 C.3     1  UNL1        0.0888
     23 C          -4.9040  -19.7374   21.3463 C.3     1  UNL1        0.0782
     24 C          -4.2285  -18.5260   21.9174 C.3     1  UNL1        0.0434
     25 C          -2.9546  -18.0204   21.3080 C.ar    1  UNL1       -0.0234
     26 C          -2.2790  -16.8090   21.8791 C.ar    1  UNL1       -0.0045
     27 C          -1.0051  -16.3034   21.2697 C.ar    1  UNL1       -0.0003
     28 C          -0.4066  -17.0092   20.0892 C.ar    1  UNL1       -0.0003
     29 C          -1.0821  -18.2206   19.5180 C.ar    1  UNL1       -0.0032
     30 C          -2.3561  -18.7262   20.1274 C.ar    1  UNL1       -0.0101
     31 C          -3.0316  -19.9376   19.5563 C.3     1  UNL1        0.0989
     32 N          -4.3056  -20.4432   20.1657 N.3     1  UNL1       -0.2674
     33 C          -4.9811  -21.6546   19.5946 C.3     1  UNL1        0.0899
@<TRIPOS>BOND
     1    15    16    1
     2    16    17    1
     3    17    18    1
     4    18    19    1
     5    19    14    1
     6    14    13    1
     7    13    12    1
     8    12     1    1
     9     1    22    1
    10    23    22    1
    11    23    24    1
    12    24    25    1
    13    25    26   ar
    14    26    27   ar
    15    27    28   ar
    16    28    29   ar
    17    29    30   ar
    18    30    31    1
    19    31    32    1
    20    32    33    1
    21     2     1    1
    22     2     3    1
    23     3     4    1
    24     4     5    1
    25     5     6    1
    26     6     7   ar
    27     7     8   ar
    28     8     9   ar
    29     9    10   ar
    30    10    11   ar
    31    19    20    1
    32    20    21    1
    33    21    16    1
    34    32    23    1
    35    11     2    1
    36    30    25   ar
    37    11     6   ar
@<TRIPOS>MOLECULE
*****
 33 37 0 0 0
SMALL
GASTEIGER

@<TRIPOS>ATOM
      1 N          -8.2521  -18.1615   21.2807 N.3     1  UNL1       -0.2679
      2 C          -9.6959  -17.7551   21.2700 C.3     1  UNL1        0.0978
      3 C         -10.2501  -16.9861   20.1075 C.3     1  UNL1        0.0224
      4 C         -11.6939  -16.5797   20.0968 C.3     1  UNL1        0.0065
      5 C         -12.5837  -16.9423   21.2487 C.3     1  UNL1        0.0277
      6 C         -12.0295  -17.7112   22.4112 C.ar    1  UNL1       -0.0073
      7 C         -12.9193  -18.0738   23.5632 C.ar    1  UNL1       -0.0015
      8 C         -12.3652  -18.8427   24.7258 C.ar    1  UNL1        0.0203
      9 C         -10.9213  -19.2491   24.7365 C.ar    1  UNL1        0.0985
     10 N         -10.0316  -18.8866   23.5846 N.ar    1  UNL1       -0.2471
     11 C         -10.5857  -18.1176   22.4219 C.ar    1  UNL1        0.0695
     12 C          -7.8732  -19.5902   21.0254 C.3     1  UNL1        0.0738
     13 C          -6.5662  -20.1220   21.5345 C.3     1  UNL1        0.0347
     14 C          -5.5249  -20.6034   20.5681 C.3     1  UNL1        0.0736
     15 C          -0.4280  -17.5165   19.8661 C.3     1  UNL1        0.0897
     16 N          -1.7023  -18.2882   20.0416 N.3     1  UNL1       -0.2691
     17 C          -2.8889  -17.9834   19.1762 C.3     1  UNL1        0.0897
     18 C          -4.1632  -18.7552   19.3517 C.3     1  UNL1        0.0897
     19 N          -4.2507  -19.8317   20.3926 N.3     1  UNL1       -0.2703
     20 C          -3.0640  -20.1365   21.2580 C.3     1  UNL1        0.0897
     21 C          -1.7898  -19.3648   21.0825 C.3     1  UNL1        0.0897
     22 C          -7.1872  -17.1392   21.5468 C.3     1  UNL1        0.0888
     23 C          -6.9246  -16.6773   22.9496 C.3     1  UNL1        0.0782
     24 C          -8.0648  -16.2416   23.8215 C.3     1  UNL1        0.0434
     25 C          -7.8023  -15.7796   25.2242 C.ar    1  UNL1       -0.0234
     26 C          -8.9424  -15.3439   26.0961 C.ar    1  UNL1       -0.0045
     27 C          -8.6799  -14.8820   27.4988 C.ar    1  UNL1       -0.0003
     28 C          -7.2772  -14.8558   28.0297 C.ar    1  UNL1       -0.0003
     29 C          -6.1370  -15.2916   27.1578 C.ar    1  UNL1       -0.0032
     30 C          -6.3995  -15.7535   25.7551 C.ar    1  UNL1       -0.0101
     31 C          -5.2594  -16.1892   24.8832 C.3     1  UNL1        0.0989
     32 N          -5.5220  -16.6511   23.4804 N.3     1  UNL1       -0.2674
     33 C          -4.3819  -17.0869   22.6085 C.3     1  UNL1        0.0899
@<TRIPOS>BOND
     1    15    16    1
     2    16    17    1
     3    17    18    1
     4    18    19    1
     5    19    14    1
     6    14    13    1
     7    13    12    1
     8    12     1    1
     9     1    22    1
    10    23    22    1
    11    23    24    1
    12    24    25    1
    13    25    26   ar
    14    26    27   ar
    15    27    28   ar
    16    28    29   ar
    17    29    30   ar
    18    30    31    1
    19    31    32    1
    20    32    33    1
    21     2     1    1
    22     2     3    1
    23     3     4    1
    24     4     5    1
    25     5     6    1
    26     6     7   ar
    27     7     8   ar
    28     8     9   ar
    29     9    10   ar
    30    10    11   ar
    31    19    20    1
    32    20    21    1
    33    21    16    1
    34    32    23    1
    35    11     2    1
    36    30    25   ar
    37    11     6   ar
@<TRIPOS>MOLECULE
*****
 33 37 0 0 0
SMALL
GASTEIGER

@<TRIPOS>ATOM
      1 N          -7.1223  -18.8553   21.1618 N.3     1  UNL1       -0.2679
      2 C          -7.9436  -18.0615   22.1342 C.3     1  UNL1        0.0978
      3 C          -7.9592  -16.5637   22.0554 C.3     1  UNL1        0.0224
      4 C          -8.7804  -15.7700   23.0278 C.3     1  UNL1        0.0065
      5 C          -9.5860  -16.4741   24.0791 C.3     1  UNL1        0.0277
      6 C          -9.5704  -17.9719   24.1579 C.ar    1  UNL1       -0.0073
      7 C         -10.3761  -18.6761   25.2092 C.ar    1  UNL1       -0.0015
      8 C         -10.3604  -20.1739   25.2880 C.ar    1  UNL1        0.0203
      9 C          -9.5392  -20.9676   24.3156 C.ar    1  UNL1        0.0985
     10 N          -8.7336  -20.2635   23.2644 N.ar    1  UNL1       -0.2471
     11 C          -8.7492  -18.7656   23.1855 C.ar    1  UNL1        0.0695
     12 C          -7.5753  -18.9983   19.7391 C.3     1  UNL1        0.0738
     13 C          -8.4703  -20.1367   19.3477 C.3     1  UNL1        0.0347
     14 C          -9.9293  -19.8926   19.0995 C.3     1  UNL1        0.0736
     15 C         -12.9988  -16.1745   22.6709 C.3     1  UNL1        0.0897
     16 N         -12.2314  -17.1040   21.7780 N.3     1  UNL1       -0.2691
     17 C         -11.5149  -16.5669   20.5747 C.3     1  UNL1        0.0897
     18 C         -10.7475  -17.4964   19.6818 C.3     1  UNL1        0.0897
     19 N         -10.6967  -18.9631   19.9923 N.3     1  UNL1       -0.2703
     20 C         -11.4132  -19.5002   21.1958 C.3     1  UNL1        0.0897
     21 C         -12.1806  -18.5707   22.0886 C.3     1  UNL1        0.0897
     22 C          -5.8481  -19.5059   21.6122 C.3     1  UNL1        0.0888
     23 C          -4.5401  -18.7918   21.4412 C.3     1  UNL1        0.0782
     24 C          -3.7447  -18.9745   20.1826 C.3     1  UNL1        0.0434
     25 C          -2.4367  -18.2604   20.0116 C.ar    1  UNL1       -0.0234
     26 C          -1.6414  -18.4431   18.7531 C.ar    1  UNL1       -0.0045
     27 C          -0.3334  -17.7289   18.5822 C.ar    1  UNL1       -0.0003
     28 C           0.1792  -16.8321   19.6698 C.ar    1  UNL1       -0.0003
     29 C          -0.6162  -16.6493   20.9284 C.ar    1  UNL1       -0.0032
     30 C          -1.9242  -17.3635   21.0993 C.ar    1  UNL1       -0.0101
     31 C          -2.7196  -17.1808   22.3578 C.3     1  UNL1        0.0989
     32 N          -4.0275  -17.8949   22.5288 N.3     1  UNL1       -0.2674
     33 C          -4.8229  -17.7122   23.7873 C.3     1  UNL1        0.0899
@<TRIPOS>BOND
     1    15    16    1
     2    16    17    1
     3    17    18    1
     4    18    19    1
     5    19    14    1
     6    14    13    1
     7    13    12    1
     8    12     1    1
     9     1    22    1
    10    23    22    1
    11    23    24    1
    12    24    25    1
    13    25    26   ar
    14    26    27   ar
    15    27    28   ar
    16    28    29   ar
    17    29    30   ar
    18    30    31    1
    19    31    32    1
    20    32    33    1
    21     2     1    1
    22     2     3    1
    23     3     4    1
    24     4     5    1
    25     5     6    1
    26     6     7   ar
    27     7     8   ar
    28     8     9   ar
    29     9    10   ar
    30    10    11   ar
    31    19    20    1
    32    20    21    1
    33    21    16    1
    34    32    23    1
    35    11     2    1
    36    30    25   ar
    37    11     6   ar
@<TRIPOS>MOLECULE
*****
 33 37 0 0 0
SMALL
GASTEIGER

@<TRIPOS>ATOM
      1 N          -7.2189  -17.3248   22.5225 N.3     1  UNL1       -0.2679
      2 C          -6.5681  -16.4758   23.5739 C.3     1  UNL1        0.0978
      3 C          -5.3110  -15.7214   23.2567 C.3     1  UNL1        0.0224
      4 C          -4.6602  -14.8724   24.3082 C.3     1  UNL1        0.0065
      5 C          -5.2664  -14.7777   25.6769 C.3     1  UNL1        0.0277
      6 C          -6.5235  -15.5321   25.9942 C.ar    1  UNL1       -0.0073
      7 C          -7.1298  -15.4375   27.3630 C.ar    1  UNL1       -0.0015
      8 C          -8.3868  -16.1919   27.6802 C.ar    1  UNL1        0.0203
      9 C          -9.0376  -17.0409   26.6287 C.ar    1  UNL1        0.0985
     10 N          -8.4314  -17.1355   25.2600 N.ar    1  UNL1       -0.2471
     11 C          -7.1743  -16.3811   24.9427 C.ar    1  UNL1        0.0695
     12 C          -6.7905  -18.7504   22.3385 C.3     1  UNL1        0.0738
     13 C          -6.6925  -19.3322   20.9593 C.3     1  UNL1        0.0347
     14 C          -5.5038  -20.1641   20.5790 C.3     1  UNL1        0.0736
     15 C          -0.0923  -17.6186   20.0931 C.3     1  UNL1        0.0897
     16 N          -1.4452  -18.2550   20.2146 N.3     1  UNL1       -0.2691
     17 C          -1.8013  -19.0302   21.4483 C.3     1  UNL1        0.0897
     18 C          -3.1542  -19.6666   21.5698 C.3     1  UNL1        0.0897
     19 N          -4.1510  -19.5278   20.4575 N.3     1  UNL1       -0.2703
     20 C          -3.7948  -18.7525   19.2237 C.3     1  UNL1        0.0897
     21 C          -2.4420  -18.1162   19.1023 C.3     1  UNL1        0.0897
     22 C          -8.2982  -16.7481   21.6549 C.3     1  UNL1        0.0888
     23 C          -9.7377  -16.9001   22.0480 C.3     1  UNL1        0.0782
     24 C         -10.1095  -17.7696   23.2125 C.3     1  UNL1        0.0434
     25 C         -11.5490  -17.9216   23.6056 C.ar    1  UNL1       -0.0234
     26 C         -11.9208  -18.7910   24.7700 C.ar    1  UNL1       -0.0045
     27 C         -13.3603  -18.9429   25.1631 C.ar    1  UNL1       -0.0003
     28 C         -14.4282  -18.2255   24.3917 C.ar    1  UNL1       -0.0003
     29 C         -14.0565  -17.3561   23.2273 C.ar    1  UNL1       -0.0032
     30 C         -12.6169  -17.2041   22.8342 C.ar    1  UNL1       -0.0101
     31 C         -12.2452  -16.3347   21.6698 C.3     1  UNL1        0.0989
     32 N         -10.8056  -16.1827   21.2767 N.3     1  UNL1       -0.2674
     33 C         -10.4338  -15.3133   20.1123 C.3     1  UNL1        0.0899
@<TRIPOS>BOND
     1    15    16    1
     2    16    17    1
     3    17    18    1
     4    18    19    1
     5    19    14    1
     6    14    13    1
     7    13    12    1
     8    12     1    1
     9     1    22    1
    10    23    22    1
    11    23    24    1
    12    24    25    1
    13    25    26   ar
    14    26    27   ar
    15    27    28   ar
    16    28    29   ar
    17    29    30   ar
    18    30    31    1
    19    31    32    1
    20    32    33    1
    21     2     1    1
    22     2     3    1
    23     3     4    1
    24     4     5    1
    25     5     6    1
    26     6     7   ar
    27     7     8   ar
    28     8     9   ar
    29     9    10   ar
    30    10    11   ar
    31    19    20    1
    32    20    21    1
    33    21    16    1
    34    32    23    1
    35    11     2    1
    36    30    25   ar
    37    11     6   ar
@<TRIPOS>MOLECULE
*****
 33 37 0 0 0
SMALL
GASTEIGER

@<TRIPOS>ATOM
      1 N          -6.6666  -19.1833   21.6053 N.3     1  UNL1       -0.2679
      2 C          -5.9577  -18.2580   22.5494 C.3     1  UNL1        0.0978
      3 C          -4.5250  -18.5119   22.9140 C.3     1  UNL1        0.0224
      4 C          -3.8161  -17.5866   23.8581 C.3     1  UNL1        0.0065
      5 C          -4.5398  -16.4076   24.4377 C.3     1  UNL1        0.0277
      6 C          -5.9725  -16.1537   24.0731 C.ar    1  UNL1       -0.0073
      7 C          -6.6963  -14.9746   24.6527 C.ar    1  UNL1       -0.0015
      8 C          -8.1290  -14.7208   24.2881 C.ar    1  UNL1        0.0203
      9 C          -8.8379  -15.6460   23.3440 C.ar    1  UNL1        0.0985
     10 N          -8.1142  -16.8251   22.7644 N.ar    1  UNL1       -0.2471
     11 C          -6.6814  -17.0790   23.1290 C.ar    1  UNL1        0.0695
     12 C          -6.2900  -19.2063   20.1536 C.3     1  UNL1        0.0738
     13 C          -5.6707  -20.4363   19.5588 C.3     1  UNL1        0.0347
     14 C          -4.2845  -20.8465   19.9589 C.3     1  UNL1        0.0736
     15 C           0.1372  -16.7917   20.0433 C.3     1  UNL1        0.0897
     16 N          -0.9683  -17.8054   20.0222 N.3     1  UNL1       -0.2691
     17 C          -1.1487  -18.7425   21.1795 C.3     1  UNL1        0.0897
     18 C          -2.2541  -19.7562   21.1584 C.3     1  UNL1        0.0897
     19 N          -3.1791  -19.8328   19.9800 N.3     1  UNL1       -0.2703
     20 C          -2.9987  -18.8957   18.8227 C.3     1  UNL1        0.0897
     21 C          -1.8933  -17.8820   18.8438 C.3     1  UNL1        0.0897
     22 C          -7.7521  -20.0855   22.1129 C.3     1  UNL1        0.0888
     23 C          -9.1636  -19.5855   22.1994 C.3     1  UNL1        0.0782
     24 C          -9.8400  -19.4755   23.5338 C.3     1  UNL1        0.0434
     25 C         -11.2516  -18.9755   23.6202 C.ar    1  UNL1       -0.0234
     26 C         -11.9279  -18.8656   24.9545 C.ar    1  UNL1       -0.0045
     27 C         -13.3395  -18.3656   25.0409 C.ar    1  UNL1       -0.0003
     28 C         -14.0747  -17.9755   23.7930 C.ar    1  UNL1       -0.0003
     29 C         -13.3983  -18.0854   22.4586 C.ar    1  UNL1       -0.0032
     30 C         -11.9868  -18.5854   22.3722 C.ar    1  UNL1       -0.0101
     31 C         -11.3104  -18.6954   21.0379 C.3     1  UNL1        0.0989
     32 N          -9.8988  -19.1954   20.9515 N.3     1  UNL1       -0.2674
     33 C          -9.2225  -19.3053   19.6172 C.3     1  UNL1        0.0899
@<TRIPOS>BOND
     1    15    16    1
     2    16    17    1
     3    17    18    1
     4    18    19    1
     5    19    14    1
     6    14    13    1
     7    13    12    1
     8    12     1    1
     9     1    22    1
    10    23    22    1
    11    23    24    1
    12    24    25    1
    13    25    26   ar
    14    26    27   ar
    15    27    28   ar
    16    28    29   ar
    17    29    30   ar
    18    30    31    1
    19    31    32    1
    20    32    33    1
    21     2     1    1
    22     2     3    1
    23     3     4    1
    24     4     5    1
    25     5     6    1
    26     6     7   ar
    27     7     8   ar
    28     8     9   ar
    29     9    10   ar
    30    10    11   ar
    31    19    20    1
    32    20    21    1
    33    21    16    1
    34    32    23    1
    35    11     2    1
    36    30    25   ar
    37    11     6   ar
@<TRIPOS>MOLECULE
*****
 33 37 0 0 0
SMALL
GASTEIGER

@<TRIPOS>ATOM
      1 N           6.6906   -3.4803   22.3493 N.3     1  UNL1       -0.2679
      2 C           6.9158   -3.9388   23.7597 C.3     1  UNL1        0.0978
      3 C           6.3972   -3.1219   24.9058 C.3     1  UNL1        0.0224
      4 C           6.6224   -3.5804   26.3161 C.3     1  UNL1        0.0065
      5 C           7.3663   -4.8558   26.5803 C.3     1  UNL1        0.0277
      6 C           7.8850   -5.6727   25.4342 C.ar    1  UNL1       -0.0073
      7 C           8.6290   -6.9482   25.6984 C.ar    1  UNL1       -0.0015
      8 C           9.1477   -7.7650   24.5523 C.ar    1  UNL1        0.0203
      9 C           8.9224   -7.3065   23.1420 C.ar    1  UNL1        0.0985
     10 N           8.1785   -6.0311   22.8778 N.ar    1  UNL1       -0.2471
     11 C           7.6598   -5.2142   24.0239 C.ar    1  UNL1        0.0695
     12 C           7.7425   -2.6756   21.6452 C.3     1  UNL1        0.0738
     13 C           7.9380   -2.8275   20.1658 C.3     1  UNL1        0.0347
     14 C           8.0885   -1.6116   19.3004 C.3     1  UNL1        0.0736
     15 C           3.3863    1.9905   18.3440 C.3     1  UNL1        0.0897
     16 N           4.5619    1.0900   18.5831 N.3     1  UNL1       -0.2691
     17 C           5.2332    1.0732   19.9243 C.3     1  UNL1        0.0897
     18 C           6.4088    0.1727   20.1635 C.3     1  UNL1        0.0897
     19 N           6.9130   -0.7111   19.0613 N.3     1  UNL1       -0.2703
     20 C           6.2415   -0.6943   17.7200 C.3     1  UNL1        0.0897
     21 C           5.0660    0.2062   17.4809 C.3     1  UNL1        0.0897
     22 C           5.4134   -3.8264   21.6431 C.3     1  UNL1        0.0888
     23 C           4.3533   -2.7820   21.4553 C.3     1  UNL1        0.0782
     24 C           3.9502   -1.9072   22.6053 C.3     1  UNL1        0.0434
     25 C           2.8902   -0.8627   22.4175 C.ar    1  UNL1       -0.0234
     26 C           2.4871    0.0121   23.5673 C.ar    1  UNL1       -0.0045
     27 C           1.4270    1.0566   23.3795 C.ar    1  UNL1       -0.0003
     28 C           0.7700    1.2263   22.0418 C.ar    1  UNL1       -0.0003
     29 C           1.1731    0.3515   20.8919 C.ar    1  UNL1       -0.0032
     30 C           2.2331   -0.6930   21.0797 C.ar    1  UNL1       -0.0101
     31 C           2.6362   -1.5677   19.9298 C.3     1  UNL1        0.0989
     32 N           3.6963   -2.6122   20.1176 N.3     1  UNL1       -0.2674
     33 C           4.0993   -3.4870   18.9677 C.3     1  UNL1        0.0899
@<TRIPOS>BOND
     1    15    16    1
     2    16    17    1
     3    17    18    1
     4    18    19    1
     5    19    14    1
     6    14    13    1
     7    13    12    1
     8    12     1    1
     9     1    22    1
    10    23    22    1
    11    23    24    1
    12    24    25    1
    13    25    26   ar
    14    26    27   ar
    15    27    28   ar
    16    28    29   ar
    17    29    30   ar
    18    30    31    1
    19    31    32    1
    20    32    33    1
    21     2     1    1
    22     2     3    1
    23     3     4    1
    24     4     5    1
    25     5     6    1
    26     6     7   ar
    27     7     8   ar
    28     8     9   ar
    29     9    10   ar
    30    10    11   ar
    31    19    20    1
    32    20    21    1
    33    21    16    1
    34    32    23    1
    35    11     2    1
    36    30    25   ar
    37    11     6   ar
@<TRIPOS>MOLECULE
*****
 33 37 0 0 0
SMALL
GASTEIGER

@<TRIPOS>ATOM
      1 N           5.6128   -1.6739   22.5350 N.3     1  UNL1       -0.2679
      2 C           4.9671   -2.2623   21.3157 C.3     1  UNL1        0.0978
      3 C           4.6369   -3.7249   21.2737 C.3     1  UNL1        0.0224
      4 C           3.9912   -4.3133   20.0543 C.3     1  UNL1        0.0065
      5 C           3.6755   -3.4391   18.8770 C.3     1  UNL1        0.0277
      6 C           4.0056   -1.9765   18.9191 C.ar    1  UNL1       -0.0073
      7 C           3.6900   -1.1022   17.7417 C.ar    1  UNL1       -0.0015
      8 C           4.0201    0.3604   17.7838 C.ar    1  UNL1        0.0203
      9 C           4.6659    0.9488   19.0031 C.ar    1  UNL1        0.0985
     10 N           4.9815    0.0746   20.1804 N.ar    1  UNL1       -0.2471
     11 C           4.6514   -1.3881   20.1384 C.ar    1  UNL1        0.0695
     12 C           4.8239   -0.7777   23.4430 C.3     1  UNL1        0.0738
     13 C           3.3445   -0.9757   23.5921 C.3     1  UNL1        0.0347
     14 C           2.4195    0.2031   23.5240 C.3     1  UNL1        0.0736
     15 C           0.6197    2.3004   18.1983 C.3     1  UNL1        0.0897
     16 N           1.0696    1.7761   19.5298 N.3     1  UNL1       -0.2691
     17 C           0.9152    0.3196   19.8533 C.3     1  UNL1        0.0897
     18 C           1.3651   -0.2048   21.1848 C.3     1  UNL1        0.0897
     19 N           1.9695    0.7274   22.1926 N.3     1  UNL1       -0.2703
     20 C           2.1240    2.1840   21.8690 C.3     1  UNL1        0.0897
     21 C           1.6740    2.7082   20.5376 C.3     1  UNL1        0.0897
     22 C           7.0475   -1.9818   22.8464 C.3     1  UNL1        0.0888
     23 C           7.4449   -3.3685   23.2575 C.3     1  UNL1        0.0782
     24 C           7.0248   -3.9039   24.5943 C.3     1  UNL1        0.0434
     25 C           7.4222   -5.2907   25.0053 C.ar    1  UNL1       -0.0234
     26 C           7.0021   -5.8261   26.3420 C.ar    1  UNL1       -0.0045
     27 C           7.3995   -7.2129   26.7531 C.ar    1  UNL1       -0.0003
     28 C           8.2170   -8.0642   25.8274 C.ar    1  UNL1       -0.0003
     29 C           8.6370   -7.5288   24.4906 C.ar    1  UNL1       -0.0032
     30 C           8.2396   -6.1421   24.0795 C.ar    1  UNL1       -0.0101
     31 C           8.6597   -5.6067   22.7428 C.3     1  UNL1        0.0989
     32 N           8.2623   -4.2199   22.3318 N.3     1  UNL1       -0.2674
     33 C           8.6823   -3.6845   20.9951 C.3     1  UNL1        0.0899
@<TRIPOS>BOND
     1    15    16    1
     2    16    17    1
     3    17    18    1
     4    18    19    1
     5    19    14    1
     6    14    13    1
     7    13    12    1
     8    12     1    1
     9     1    22    1
    10    23    22    1
    11    23    24    1
    12    24    25    1
    13    25    26   ar
    14    26    27   ar
    15    27    28   ar
    16    28    29   ar
    17    29    30   ar
    18    30    31    1
    19    31    32    1
    20    32    33    1
    21     2     1    1
    22     2     3    1
    23     3     4    1
    24     4     5    1
    25     5     6    1
    26     6     7   ar
    27     7     8   ar
    28     8     9   ar
    29     9    10   ar
    30    10    11   ar
    31    19    20    1
    32    20    21    1
    33    21    16    1
    34    32    23    1
    35    11     2    1
    36    30    25   ar
    37    11     6   ar
@<TRIPOS>MOLECULE
*****
 33 37 0 0 0
SMALL
GASTEIGER

@<TRIPOS>ATOM
      1 N           7.1029   -3.1238   21.7379 N.3     1  UNL1       -0.2679
      2 C           7.0066   -3.6011   23.1567 C.3     1  UNL1        0.0978
      3 C           6.3288   -2.7506   24.1897 C.3     1  UNL1        0.0224
      4 C           6.2326   -3.2278   25.6085 C.3     1  UNL1        0.0065
      5 C           6.8142   -4.5555   25.9943 C.3     1  UNL1        0.0277
      6 C           7.4920   -5.4060   24.9613 C.ar    1  UNL1       -0.0073
      7 C           8.0736   -6.7338   25.3470 C.ar    1  UNL1       -0.0015
      8 C           8.7514   -7.5843   24.3140 C.ar    1  UNL1        0.0203
      9 C           8.8476   -7.1071   22.8952 C.ar    1  UNL1        0.0985
     10 N           8.2661   -5.7794   22.5094 N.ar    1  UNL1       -0.2471
     11 C           7.5882   -4.9288   23.5425 C.ar    1  UNL1        0.0695
     12 C           8.1916   -2.1723   21.3389 C.3     1  UNL1        0.0738
     13 C           8.1101   -0.7289   21.7390 C.3     1  UNL1        0.0347
     14 C           7.4861    0.2721   20.8124 C.3     1  UNL1        0.0736
     15 C           2.1697    2.7036   22.1630 C.3     1  UNL1        0.0897
     16 N           3.4988    2.0957   21.8254 N.3     1  UNL1       -0.2691
     17 C           4.1166    1.0847   22.7453 C.3     1  UNL1        0.0897
     18 C           5.4457    0.4768   22.4076 C.3     1  UNL1        0.0897
     19 N           6.1570    0.8800   21.1501 N.3     1  UNL1       -0.2703
     20 C           5.5392    1.8910   20.2301 C.3     1  UNL1        0.0897
     21 C           4.2101    2.4988   20.5678 C.3     1  UNL1        0.0897
     22 C           6.1104   -3.5981   20.7181 C.3     1  UNL1        0.0888
     23 C           5.2037   -2.6143   20.0398 C.3     1  UNL1        0.0782
     24 C           3.8972   -2.2379   20.6735 C.3     1  UNL1        0.0434
     25 C           2.9906   -1.2542   19.9952 C.ar    1  UNL1       -0.0234
     26 C           1.6841   -0.8778   20.6288 C.ar    1  UNL1       -0.0045
     27 C           0.7775    0.1060   19.9505 C.ar    1  UNL1       -0.0003
     28 C           1.1772    0.7134   18.6385 C.ar    1  UNL1       -0.0003
     29 C           2.4837    0.3370   18.0048 C.ar    1  UNL1       -0.0032
     30 C           3.3904   -0.6468   18.6832 C.ar    1  UNL1       -0.0101
     31 C           4.6968   -1.0231   18.0495 C.3     1  UNL1        0.0989
     32 N           5.6035   -2.0069   18.7279 N.3     1  UNL1       -0.2674
     33 C           6.9099   -2.3833   18.0943 C.3     1  UNL1        0.0899
@<TRIPOS>BOND
     1    15    16    1
     2    16    17    1
     3    17    18    1
     4    18    19    1
     5    19    14    1
     6    14    13    1
     7    13    12    1
     8    12     1    1
     9     1    22    1
    10    23    22    1
    11    23    24    1
    12    24    25    1
    13    25    26   ar
    14    26    27   ar
    15    27    28   ar
    16    28    29   ar
    17    29    30   ar
    18    30    31    1
    19    31    32    1
    20    32    33    1
    21     2     1    1
    22     2     3    1
    23     3     4    1
    24     4     5    1
    25     5     6    1
    26     6     7   ar
    27     7     8   ar
    28     8     9   ar
    29     9    10   ar
    30    10    11   ar
    31    19    20    1
    32    20    21    1
    33    21    16    1
    34    32    23    1
    35    11     2    1
    36    30    25   ar
    37    11     6   ar
