@<TRIPOS>MOLECULE
*****
 30 33 0 0 0
SMALL
GASTEIGER

@<TRIPOS>ATOM
      1 C         -10.3519  -19.4047   22.6345 C.ar    1  UNL1        0.0340
      2 C          -9.4761  -20.1833   23.5708 C.ar    1  UNL1        0.0028
      3 C          -8.0521  -20.4731   23.1993 C.ar    1  UNL1       -0.0022
      4 C          -7.5038  -19.9842   21.8915 C.ar    1  UNL1        0.0034
      5 C          -8.3796  -19.2056   20.9552 C.ar    1  UNL1        0.0345
      6 C          -9.8037  -18.9159   21.3267 C.ar    1  UNL1        0.1382
      7 C         -12.1359  -18.8325   24.4345 C.2     1  UNL1        0.0152
      8 C         -11.7761  -19.1149   23.0060 C.2     1  UNL1        0.0042
      9 O         -14.0253  -18.7550   26.2161 O.co2   1  UNL1       -0.5446
     10 C         -13.5599  -18.5427   24.8060 C.2     1  UNL1        0.0729
     11 O         -14.5188  -18.0407   23.7674 O.co2   1  UNL1       -0.5446
     12 C          -6.0797  -20.2740   21.5200 C.3     1  UNL1        0.1344
     13 N          -5.0098  -19.2616   21.8033 N.ar    1  UNL1       -0.3036
     14 C          -3.6857  -19.1595   21.1059 C.ar    1  UNL1        0.0983
     15 C          -2.9337  -18.0083   21.7053 C.ar    1  UNL1        0.1193
     16 N          -3.7931  -17.3989   22.7731 N.ar    1  UNL1       -0.2223
     17 C          -5.0762  -18.1735   22.8336 C.ar    1  UNL1        0.1789
     18 O         -10.6795  -18.1372   20.3903 O.3     1  UNL1       -0.4751
     19 C         -10.8339  -16.6555   20.5653 C.3     1  UNL1        0.2101
     20 C         -10.9092  -16.0668   21.9429 C.3     1  UNL1        0.0736
     21 C          -9.6572  -15.8780   22.7473 C.ar    1  UNL1       -0.0184
     22 C          -8.3866  -15.4579   22.0697 C.ar    1  UNL1       -0.0041
     23 C          -7.1347  -15.2691   22.8740 C.ar    1  UNL1       -0.0003
     24 C          -7.1532  -15.5003   24.3560 C.ar    1  UNL1       -0.0000
     25 C          -5.9013  -15.3115   25.1602 C.ar    1  UNL1       -0.0000
     26 C          -5.9199  -15.5428   26.6422 C.ar    1  UNL1       -0.0000
     27 C          -7.1905  -15.9629   27.3198 C.ar    1  UNL1       -0.0000
     28 C          -8.4424  -16.1517   26.5155 C.ar    1  UNL1       -0.0000
     29 C          -8.4238  -15.9205   25.0336 C.ar    1  UNL1       -0.0003
     30 C          -9.6758  -16.1093   24.2292 C.ar    1  UNL1       -0.0041
@<TRIPOS>UNITY_ATOM_ATTR
9 1
charge -1
@<TRIPOS>BOND
     1     9    10   ar
     2    10    11   ar
     3    10     7    1
     4     7     8    2
     5     8     1    1
     6     1     2   ar
     7     2     3   ar
     8     3     4   ar
     9     4    12    1
    10    12    13    1
    11    13    14   ar
    12    14    15   ar
    13    15    16   ar
    14    16    17   ar
    15     4     5   ar
    16     5     6   ar
    17     6    18    1
    18    18    19    1
    19    19    20    1
    20    20    21    1
    21    21    22   ar
    22    22    23   ar
    23    23    24   ar
    24    24    25   ar
    25    25    26   ar
    26    26    27   ar
    27    27    28   ar
    28    28    29   ar
    29    29    30   ar
    30     6     1   ar
    31    30    21   ar
    32    17    13   ar
    33    29    24   ar
@<TRIPOS>MOLECULE
*****
 30 33 0 0 0
SMALL
GASTEIGER

@<TRIPOS>ATOM
      1 C          -4.8693  -19.3147   20.5160 C.ar    1  UNL1        0.0340
      2 C          -6.0036  -19.3292   19.5346 C.ar    1  UNL1        0.0028
      3 C          -7.4200  -19.2647   20.0243 C.ar    1  UNL1       -0.0022
      4 C          -7.7019  -19.1856   21.4954 C.ar    1  UNL1        0.0034
      5 C          -6.5676  -19.1710   22.4768 C.ar    1  UNL1        0.0345
      6 C          -5.1513  -19.2356   21.9871 C.ar    1  UNL1        0.1382
      7 C          -2.8018  -18.1565   19.4511 C.2     1  UNL1        0.0152
      8 C          -3.4530  -19.3793   20.0262 C.2     1  UNL1        0.0042
      9 O          -1.0671  -17.8689   17.5385 O.co2   1  UNL1       -0.5446
     10 C          -1.3855  -18.2211   18.9614 C.2     1  UNL1        0.0729
     11 O          -0.2875  -18.6380   19.8945 O.co2   1  UNL1       -0.5446
     12 C          -9.1183  -19.1210   21.9852 C.3     1  UNL1        0.1344
     13 N         -10.0978  -18.1947   21.3275 N.ar    1  UNL1       -0.3036
     14 C         -10.3613  -16.7700   21.7157 C.ar    1  UNL1        0.0983
     15 C         -11.4121  -16.2253   20.7943 C.ar    1  UNL1        0.1193
     16 N         -11.7981  -17.3133   19.8366 N.ar    1  UNL1       -0.2223
     17 C         -10.9858  -18.5305   20.1661 C.ar    1  UNL1        0.1789
     18 O          -4.0170  -19.2211   22.9684 O.3     1  UNL1       -0.4751
     19 C          -3.1102  -18.0290   23.0490 C.3     1  UNL1        0.2101
     20 C          -3.6719  -16.6472   22.8900 C.3     1  UNL1        0.0736
     21 C          -4.9249  -16.2587   23.6175 C.ar    1  UNL1       -0.0184
     22 C          -6.1550  -15.8841   22.8452 C.ar    1  UNL1       -0.0041
     23 C          -7.4080  -15.4956   23.5726 C.ar    1  UNL1       -0.0003
     24 C          -7.4308  -15.4817   25.0724 C.ar    1  UNL1       -0.0000
     25 C          -8.6838  -15.0932   25.7998 C.ar    1  UNL1       -0.0000
     26 C          -8.7066  -15.0793   27.2995 C.ar    1  UNL1       -0.0000
     27 C          -7.4765  -15.4539   28.0719 C.ar    1  UNL1       -0.0000
     28 C          -6.2236  -15.8424   27.3445 C.ar    1  UNL1       -0.0000
     29 C          -6.2007  -15.8563   25.8447 C.ar    1  UNL1       -0.0003
     30 C          -4.9477  -16.2448   25.1173 C.ar    1  UNL1       -0.0041
@<TRIPOS>UNITY_ATOM_ATTR
9 1
charge -1
@<TRIPOS>BOND
     1     9    10   ar
     2    10    11   ar
     3    10     7    1
     4     7     8    2
     5     8     1    1
     6     1     2   ar
     7     2     3   ar
     8     3     4   ar
     9     4    12    1
    10    12    13    1
    11    13    14   ar
    12    14    15   ar
    13    15    16   ar
    14    16    17   ar
    15     4     5   ar
    16     5     6   ar
    17     6    18    1
    18    18    19    1
    19    19    20    1
    20    20    21    1
    21    21    22   ar
    22    22    23   ar
    23    23    24   ar
    24    24    25   ar
    25    25    26   ar
    26    26    27   ar
    27    27    28   ar
    28    28    29   ar
    29    29    30   ar
    30     6     1   ar
    31    30    21   ar
    32    17    13   ar
    33    29    24   ar
@<TRIPOS>MOLECULE
*****
 30 33 0 0 0
SMALL
GASTEIGER

@<TRIPOS>ATOM
      1 C          -3.3766  -17.1789   22.2463 C.ar    1  UNL1        0.0340
      2 C          -3.2845  -15.6899   22.4021 C.ar    1  UNL1        0.0028
      3 C          -4.2607  -14.9660   23.2813 C.ar    1  UNL1       -0.0022
      4 C          -5.3289  -15.7312   24.0047 C.ar    1  UNL1        0.0034
      5 C          -5.4209  -17.2202   23.8490 C.ar    1  UNL1        0.0345
      6 C          -4.4447  -17.9441   22.9698 C.ar    1  UNL1        0.1382
      7 C          -1.9872  -17.3056   20.0546 C.2     1  UNL1        0.0152
      8 C          -2.4003  -17.9028   21.3671 C.2     1  UNL1        0.0042
      9 O           0.1147  -18.8092   19.7877 O.co2   1  UNL1       -0.5446
     10 C          -1.0110  -18.0295   19.1754 C.2     1  UNL1        0.0729
     11 O          -1.1604  -17.9736   17.6839 O.co2   1  UNL1       -0.5446
     12 C          -6.3052  -15.0073   24.8840 C.3     1  UNL1        0.1344
     13 N          -7.3060  -15.7814   25.6895 N.ar    1  UNL1       -0.3036
     14 C          -8.5008  -16.5088   25.1478 C.ar    1  UNL1        0.0983
     15 C          -9.2210  -17.1410   26.3017 C.ar    1  UNL1        0.1193
     16 N          -8.4714  -16.8044   27.5566 N.ar    1  UNL1       -0.2223
     17 C          -7.2879  -15.9641   27.1783 C.ar    1  UNL1        0.1789
     18 O          -4.5368  -19.4331   22.8140 O.3     1  UNL1       -0.4751
     19 C          -5.6420  -20.0350   21.9978 C.3     1  UNL1        0.2101
     20 C          -6.6598  -19.1482   21.3439 C.3     1  UNL1        0.0736
     21 C          -8.0272  -19.0064   21.9441 C.ar    1  UNL1       -0.0184
     22 C          -8.5217  -20.0214   22.9317 C.ar    1  UNL1       -0.0041
     23 C          -9.8890  -19.8796   23.5320 C.ar    1  UNL1       -0.0003
     24 C         -10.7618  -18.7227   23.1447 C.ar    1  UNL1       -0.0000
     25 C         -12.1291  -18.5809   23.7450 C.ar    1  UNL1       -0.0000
     26 C         -13.0019  -17.4241   23.3577 C.ar    1  UNL1       -0.0000
     27 C         -12.5074  -16.4091   22.3702 C.ar    1  UNL1       -0.0000
     28 C         -11.1401  -16.5509   21.7699 C.ar    1  UNL1       -0.0000
     29 C         -10.2673  -17.7077   22.1572 C.ar    1  UNL1       -0.0003
     30 C          -8.9000  -17.8496   21.5569 C.ar    1  UNL1       -0.0041
@<TRIPOS>UNITY_ATOM_ATTR
9 1
charge -1
@<TRIPOS>BOND
     1     9    10   ar
     2    10    11   ar
     3    10     7    1
     4     7     8    2
     5     8     1    1
     6     1     2   ar
     7     2     3   ar
     8     3     4   ar
     9     4    12    1
    10    12    13    1
    11    13    14   ar
    12    14    15   ar
    13    15    16   ar
    14    16    17   ar
    15     4     5   ar
    16     5     6   ar
    17     6    18    1
    18    18    19    1
    19    19    20    1
    20    20    21    1
    21    21    22   ar
    22    22    23   ar
    23    23    24   ar
    24    24    25   ar
    25    25    26   ar
    26    26    27   ar
    27    27    28   ar
    28    28    29   ar
    29    29    30   ar
    30     6     1   ar
    31    30    21   ar
    32    17    13   ar
    33    29    24   ar
@<TRIPOS>MOLECULE
*****
 30 33 0 0 0
SMALL
GASTEIGER

@<TRIPOS>ATOM
      1 C          -4.2645  -19.2771   21.0528 C.ar    1  UNL1        0.0340
      2 C          -4.9127  -20.3427   20.2195 C.ar    1  UNL1        0.0028
      3 C          -6.3994  -20.5345   20.2711 C.ar    1  UNL1       -0.0022
      4 C          -7.2380  -19.6606   21.1560 C.ar    1  UNL1        0.0034
      5 C          -6.5899  -18.5950   21.9893 C.ar    1  UNL1        0.0345
      6 C          -5.1031  -18.4033   21.9377 C.ar    1  UNL1        0.1382
      7 C          -2.1850  -18.0612   20.0794 C.2     1  UNL1        0.0152
      8 C          -2.7776  -19.0854   21.0012 C.2     1  UNL1        0.0042
      9 O          -0.1098  -16.5067   20.2434 O.co2   1  UNL1       -0.5446
     10 C          -0.6983  -17.8695   20.0279 C.2     1  UNL1        0.0729
     11 O           0.2001  -19.0407   19.7607 O.co2   1  UNL1       -0.5446
     12 C          -8.7249  -19.8523   21.2076 C.3     1  UNL1        0.1344
     13 N          -9.4152  -20.0112   22.5298 N.ar    1  UNL1       -0.3036
     14 C         -10.8829  -19.8357   22.7848 C.ar    1  UNL1        0.0983
     15 C         -11.1338  -20.0895   24.2417 C.ar    1  UNL1        0.1193
     16 N          -9.8211  -20.4217   24.8872 N.ar    1  UNL1       -0.2223
     17 C          -8.7590  -20.3733   23.8291 C.ar    1  UNL1        0.1789
     18 O          -4.4549  -17.3377   22.7710 O.3     1  UNL1       -0.4751
     19 C          -5.2245  -16.6788   23.8771 C.3     1  UNL1        0.2101
     20 C          -6.1730  -15.5588   23.5672 C.3     1  UNL1        0.0736
     21 C          -7.6324  -15.8447   23.3705 C.ar    1  UNL1       -0.0184
     22 C          -8.4691  -16.3044   24.5274 C.ar    1  UNL1       -0.0041
     23 C          -9.9284  -16.5903   24.3308 C.ar    1  UNL1       -0.0003
     24 C         -10.5511  -16.4163   22.9772 C.ar    1  UNL1       -0.0000
     25 C         -12.0103  -16.7022   22.7806 C.ar    1  UNL1       -0.0000
     26 C         -12.6329  -16.5282   21.4271 C.ar    1  UNL1       -0.0000
     27 C         -11.7962  -16.0684   20.2702 C.ar    1  UNL1       -0.0000
     28 C         -10.3369  -15.7826   20.4668 C.ar    1  UNL1       -0.0000
     29 C          -9.7143  -15.9566   21.8203 C.ar    1  UNL1       -0.0003
     30 C          -8.2549  -15.6707   22.0170 C.ar    1  UNL1       -0.0041
@<TRIPOS>UNITY_ATOM_ATTR
9 1
charge -1
@<TRIPOS>BOND
     1     9    10   ar
     2    10    11   ar
     3    10     7    1
     4     7     8    2
     5     8     1    1
     6     1     2   ar
     7     2     3   ar
     8     3     4   ar
     9     4    12    1
    10    12    13    1
    11    13    14   ar
    12    14    15   ar
    13    15    16   ar
    14    16    17   ar
    15     4     5   ar
    16     5     6   ar
    17     6    18    1
    18    18    19    1
    19    19    20    1
    20    20    21    1
    21    21    22   ar
    22    22    23   ar
    23    23    24   ar
    24    24    25   ar
    25    25    26   ar
    26    26    27   ar
    27    27    28   ar
    28    28    29   ar
    29    29    30   ar
    30     6     1   ar
    31    30    21   ar
    32    17    13   ar
    33    29    24   ar
@<TRIPOS>MOLECULE
*****
 30 33 0 0 0
SMALL
GASTEIGER

@<TRIPOS>ATOM
      1 C          -3.5415  -17.6518   22.3078 C.ar    1  UNL1        0.0340
      2 C          -3.5463  -16.3409   23.0369 C.ar    1  UNL1        0.0028
      3 C          -4.8242  -15.8084   23.6142 C.ar    1  UNL1       -0.0022
      4 C          -6.0974  -16.5868   23.4623 C.ar    1  UNL1        0.0034
      5 C          -6.0926  -17.8976   22.7332 C.ar    1  UNL1        0.0345
      6 C          -4.8147  -18.4301   22.1559 C.ar    1  UNL1        0.1382
      7 C          -1.4940  -17.3694   20.7336 C.2     1  UNL1        0.0152
      8 C          -2.2635  -18.1843   21.7305 C.2     1  UNL1        0.0042
      9 O          -0.1351  -19.3296   19.7037 O.co2   1  UNL1       -0.5446
     10 C          -0.2160  -17.9019   20.1564 C.2     1  UNL1        0.0729
     11 O           0.9811  -17.0066   20.0319 O.co2   1  UNL1       -0.5446
     12 C          -7.3754  -16.0543   24.0396 C.3     1  UNL1        0.1344
     13 N          -7.4450  -15.6822   25.4910 N.ar    1  UNL1       -0.3036
     14 C          -8.6982  -15.4669   26.2869 C.ar    1  UNL1        0.0983
     15 C          -8.3014  -15.1117   27.6891 C.ar    1  UNL1        0.1193
     16 N          -6.8030  -15.1075   27.7600 N.ar    1  UNL1       -0.2223
     17 C          -6.2738  -15.4600   26.4015 C.ar    1  UNL1        0.1789
     18 O          -4.8100  -19.7410   21.4268 O.3     1  UNL1       -0.4751
     19 C          -6.0836  -20.5183   21.2730 C.3     1  UNL1        0.2101
     20 C          -7.0415  -20.1778   20.1702 C.3     1  UNL1        0.0736
     21 C          -8.4001  -19.6330   20.4984 C.ar    1  UNL1       -0.0184
     22 C          -9.3135  -19.1823   19.3972 C.ar    1  UNL1       -0.0041
     23 C         -10.6720  -18.6375   19.7253 C.ar    1  UNL1       -0.0003
     24 C         -11.1171  -18.5435   21.1547 C.ar    1  UNL1       -0.0000
     25 C         -12.4756  -17.9987   21.4828 C.ar    1  UNL1       -0.0000
     26 C         -12.9207  -17.9047   22.9122 C.ar    1  UNL1       -0.0000
     27 C         -12.0074  -18.3555   24.0133 C.ar    1  UNL1       -0.0000
     28 C         -10.6489  -18.9002   23.6852 C.ar    1  UNL1       -0.0000
     29 C         -10.2038  -18.9942   22.2559 C.ar    1  UNL1       -0.0003
     30 C          -8.8452  -19.5390   21.9277 C.ar    1  UNL1       -0.0041
@<TRIPOS>UNITY_ATOM_ATTR
9 1
charge -1
@<TRIPOS>BOND
     1     9    10   ar
     2    10    11   ar
     3    10     7    1
     4     7     8    2
     5     8     1    1
     6     1     2   ar
     7     2     3   ar
     8     3     4   ar
     9     4    12    1
    10    12    13    1
    11    13    14   ar
    12    14    15   ar
    13    15    16   ar
    14    16    17   ar
    15     4     5   ar
    16     5     6   ar
    17     6    18    1
    18    18    19    1
    19    19    20    1
    20    20    21    1
    21    21    22   ar
    22    22    23   ar
    23    23    24   ar
    24    24    25   ar
    25    25    26   ar
    26    26    27   ar
    27    27    28   ar
    28    28    29   ar
    29    29    30   ar
    30     6     1   ar
    31    30    21   ar
    32    17    13   ar
    33    29    24   ar
@<TRIPOS>MOLECULE
*****
 30 33 0 0 0
SMALL
GASTEIGER

@<TRIPOS>ATOM
      1 C          -8.7228  -16.5506   22.7160 C.ar    1  UNL1        0.0340
      2 C          -9.7964  -15.9166   23.5500 C.ar    1  UNL1        0.0028
      3 C         -11.2203  -16.3660   23.4074 C.ar    1  UNL1       -0.0022
      4 C         -11.5707  -17.4492   22.4308 C.ar    1  UNL1        0.0034
      5 C         -10.4971  -18.0831   21.5969 C.ar    1  UNL1        0.0345
      6 C          -9.0731  -17.6338   21.7395 C.ar    1  UNL1        0.1382
      7 C          -6.8413  -15.4509   24.1306 C.2     1  UNL1        0.0152
      8 C          -7.2987  -16.1012   22.8587 C.2     1  UNL1        0.0042
      9 O          -4.8313  -14.7880   25.6374 O.co2   1  UNL1       -0.5446
     10 C          -5.4174  -15.0016   24.2732 C.2     1  UNL1        0.0729
     11 O          -4.5794  -14.7658   23.0516 O.co2   1  UNL1       -0.5446
     12 C         -12.9947  -17.8986   22.2882 C.3     1  UNL1        0.1344
     13 N         -13.8080  -18.2124   23.5088 N.ar    1  UNL1       -0.3036
     14 C         -13.2967  -18.2710   24.9178 C.ar    1  UNL1        0.0983
     15 C         -14.4481  -18.6175   25.8146 C.ar    1  UNL1        0.1193
     16 N         -15.6710  -18.7731   24.9599 N.ar    1  UNL1       -0.2223
     17 C         -15.2753  -18.5227   23.5349 C.ar    1  UNL1        0.1789
     18 O          -7.9995  -18.2678   20.9055 O.3     1  UNL1       -0.4751
     19 C          -7.7389  -19.7411   21.0120 C.3     1  UNL1        0.2101
     20 C          -6.5049  -20.2362   21.7063 C.3     1  UNL1        0.0736
     21 C          -5.2339  -19.4429   21.6333 C.ar    1  UNL1       -0.0184
     22 C          -4.7540  -18.6831   22.8344 C.ar    1  UNL1       -0.0041
     23 C          -3.4830  -17.8899   22.7614 C.ar    1  UNL1       -0.0003
     24 C          -2.6919  -17.8564   21.4874 C.ar    1  UNL1       -0.0000
     25 C          -1.4209  -17.0631   21.4144 C.ar    1  UNL1       -0.0000
     26 C          -0.6298  -17.0296   20.1405 C.ar    1  UNL1       -0.0000
     27 C          -1.1097  -17.7894   18.9394 C.ar    1  UNL1       -0.0000
     28 C          -2.3807  -18.5827   19.0124 C.ar    1  UNL1       -0.0000
     29 C          -3.1718  -18.6161   20.2864 C.ar    1  UNL1       -0.0003
     30 C          -4.4428  -19.4094   20.3594 C.ar    1  UNL1       -0.0041
@<TRIPOS>UNITY_ATOM_ATTR
9 1
charge -1
@<TRIPOS>BOND
     1     9    10   ar
     2    10    11   ar
     3    10     7    1
     4     7     8    2
     5     8     1    1
     6     1     2   ar
     7     2     3   ar
     8     3     4   ar
     9     4    12    1
    10    12    13    1
    11    13    14   ar
    12    14    15   ar
    13    15    16   ar
    14    16    17   ar
    15     4     5   ar
    16     5     6   ar
    17     6    18    1
    18    18    19    1
    19    19    20    1
    20    20    21    1
    21    21    22   ar
    22    22    23   ar
    23    23    24   ar
    24    24    25   ar
    25    25    26   ar
    26    26    27   ar
    27    27    28   ar
    28    28    29   ar
    29    29    30   ar
    30     6     1   ar
    31    30    21   ar
    32    17    13   ar
    33    29    24   ar
@<TRIPOS>MOLECULE
*****
 30 33 0 0 0
SMALL
GASTEIGER

@<TRIPOS>ATOM
      1 C           2.5194   -0.8643   21.5953 C.ar    1  UNL1        0.0340
      2 C           3.1764   -0.7762   22.9409 C.ar    1  UNL1        0.0028
      3 C           2.7818    0.3087   23.8986 C.ar    1  UNL1       -0.0022
      4 C           1.7302    1.3055   23.5107 C.ar    1  UNL1        0.0034
      5 C           1.0733    1.2174   22.1651 C.ar    1  UNL1        0.0345
      6 C           1.4679    0.1325   21.2074 C.ar    1  UNL1        0.1382
      7 C           4.0360   -2.8830   20.9830 C.2     1  UNL1        0.0152
      8 C           2.9141   -1.9493   20.6376 C.2     1  UNL1        0.0042
      9 O           5.7833   -4.6074   20.1324 O.co2   1  UNL1       -0.5446
     10 C           4.4307   -3.9679   20.0253 C.2     1  UNL1        0.0729
     11 O           3.4726   -4.4134   18.9605 O.co2   1  UNL1       -0.5446
     12 C           1.3355    2.3904   24.4684 C.3     1  UNL1        0.1344
     13 N           0.6412    2.0421   25.7516 N.ar    1  UNL1       -0.3036
     14 C           1.3004    1.5462   27.0043 C.ar    1  UNL1        0.0983
     15 C           0.2323    1.3261   28.0343 C.ar    1  UNL1        0.1193
     16 N          -1.0871    1.6861   27.4180 N.ar    1  UNL1       -0.2223
     17 C          -0.8344    2.1286   26.0073 C.ar    1  UNL1        0.1789
     18 O           0.8109    0.0444   19.8618 O.3     1  UNL1       -0.4751
     19 C           0.9327    1.1821   18.8918 C.3     1  UNL1        0.2101
     20 C           2.2871    1.7071   18.5178 C.3     1  UNL1        0.0736
     21 C           3.4504    0.7670   18.4029 C.ar    1  UNL1       -0.0184
     22 C           3.4136   -0.3534   17.4063 C.ar    1  UNL1       -0.0041
     23 C           4.5768   -1.2935   17.2914 C.ar    1  UNL1       -0.0003
     24 C           5.7769   -1.1131   18.1732 C.ar    1  UNL1       -0.0000
     25 C           6.9401   -2.0531   18.0583 C.ar    1  UNL1       -0.0000
     26 C           8.1401   -1.8727   18.9399 C.ar    1  UNL1       -0.0000
     27 C           8.1769   -0.7522   19.9365 C.ar    1  UNL1       -0.0000
     28 C           7.0137    0.1878   20.0514 C.ar    1  UNL1       -0.0000
     29 C           5.8137    0.0074   19.1698 C.ar    1  UNL1       -0.0003
     30 C           4.6504    0.9474   19.2846 C.ar    1  UNL1       -0.0041
@<TRIPOS>UNITY_ATOM_ATTR
9 1
charge -1
@<TRIPOS>BOND
     1     9    10   ar
     2    10    11   ar
     3    10     7    1
     4     7     8    2
     5     8     1    1
     6     1     2   ar
     7     2     3   ar
     8     3     4   ar
     9     4    12    1
    10    12    13    1
    11    13    14   ar
    12    14    15   ar
    13    15    16   ar
    14    16    17   ar
    15     4     5   ar
    16     5     6   ar
    17     6    18    1
    18    18    19    1
    19    19    20    1
    20    20    21    1
    21    21    22   ar
    22    22    23   ar
    23    23    24   ar
    24    24    25   ar
    25    25    26   ar
    26    26    27   ar
    27    27    28   ar
    28    28    29   ar
    29    29    30   ar
    30     6     1   ar
    31    30    21   ar
    32    17    13   ar
    33    29    24   ar
@<TRIPOS>MOLECULE
*****
 30 33 0 0 0
SMALL
GASTEIGER

@<TRIPOS>ATOM
      1 C           2.5910    1.7863   22.8855 C.ar    1  UNL1        0.0340
      2 C           3.0477    1.0767   24.1256 C.ar    1  UNL1        0.0028
      3 C           2.0900    0.8547   25.2585 C.ar    1  UNL1       -0.0022
      4 C           0.6756    1.3424   25.1513 C.ar    1  UNL1        0.0034
      5 C           0.2189    2.0520   23.9113 C.ar    1  UNL1        0.0345
      6 C           1.1765    2.2740   22.7784 C.ar    1  UNL1        0.1382
      7 C           4.6292    1.0051   21.4764 C.2     1  UNL1        0.0152
      8 C           3.5487    2.0082   21.7526 C.2     1  UNL1        0.0042
      9 O           6.7647    0.3151   20.1675 O.co2   1  UNL1       -0.5446
     10 C           5.5869    1.2271   20.3436 C.2     1  UNL1        0.0729
     11 O           5.3668    2.3611   19.3867 O.co2   1  UNL1       -0.5446
     12 C          -0.2822    1.1204   26.2843 C.3     1  UNL1        0.1344
     13 N           0.2096    1.1599   27.7008 N.ar    1  UNL1       -0.3036
     14 C           0.8670    2.3282   28.3736 C.ar    1  UNL1        0.0983
     15 C           1.1941    1.9283   29.7818 C.ar    1  UNL1        0.1193
     16 N           0.7387    0.5128   29.9794 N.ar    1  UNL1       -0.2223
     17 C           0.1303    0.0379   28.6932 C.ar    1  UNL1        0.1789
     18 O           0.7198    2.9836   21.5383 O.3     1  UNL1       -0.4751
     19 C          -0.0274    2.2325   20.4765 C.3     1  UNL1        0.2101
     20 C           0.1011    0.7410   20.3816 C.3     1  UNL1        0.0736
     21 C           1.2946    0.1325   19.7068 C.ar    1  UNL1       -0.0184
     22 C           1.8636    0.7680   18.4729 C.ar    1  UNL1       -0.0041
     23 C           3.0571    0.1596   17.7982 C.ar    1  UNL1       -0.0003
     24 C           3.6816   -1.0844   18.3573 C.ar    1  UNL1       -0.0000
     25 C           4.8751   -1.6929   17.6825 C.ar    1  UNL1       -0.0000
     26 C           5.4996   -2.9368   18.2416 C.ar    1  UNL1       -0.0000
     27 C           4.9306   -3.5723   19.4754 C.ar    1  UNL1       -0.0000
     28 C           3.7371   -2.9638   20.1502 C.ar    1  UNL1       -0.0000
     29 C           3.1126   -1.7199   19.5911 C.ar    1  UNL1       -0.0003
     30 C           1.9191   -1.1114   20.2659 C.ar    1  UNL1       -0.0041
@<TRIPOS>UNITY_ATOM_ATTR
9 1
charge -1
@<TRIPOS>BOND
     1     9    10   ar
     2    10    11   ar
     3    10     7    1
     4     7     8    2
     5     8     1    1
     6     1     2   ar
     7     2     3   ar
     8     3     4   ar
     9     4    12    1
    10    12    13    1
    11    13    14   ar
    12    14    15   ar
    13    15    16   ar
    14    16    17   ar
    15     4     5   ar
    16     5     6   ar
    17     6    18    1
    18    18    19    1
    19    19    20    1
    20    20    21    1
    21    21    22   ar
    22    22    23   ar
    23    23    24   ar
    24    24    25   ar
    25    25    26   ar
    26    26    27   ar
    27    27    28   ar
    28    28    29   ar
    29    29    30   ar
    30     6     1   ar
    31    30    21   ar
    32    17    13   ar
    33    29    24   ar
@<TRIPOS>MOLECULE
*****
 30 33 0 0 0
SMALL
GASTEIGER

@<TRIPOS>ATOM
      1 C           2.4223   -0.1894   22.7419 C.ar    1  UNL1        0.0340
      2 C           3.3057   -0.3225   23.9468 C.ar    1  UNL1        0.0028
      3 C           2.9280    0.3525   25.2320 C.ar    1  UNL1       -0.0022
      4 C           1.6669    1.1605   25.3122 C.ar    1  UNL1        0.0034
      5 C           0.7834    1.2936   24.1073 C.ar    1  UNL1        0.0345
      6 C           1.1612    0.6186   22.8221 C.ar    1  UNL1        0.1382
      7 C           3.8821   -1.9032   21.4450 C.2     1  UNL1        0.0152
      8 C           2.8001   -0.8645   21.4567 C.2     1  UNL1        0.0042
      9 O           3.1936   -3.1329   19.2624 O.co2   1  UNL1       -0.5446
     10 C           4.2598   -2.5782   20.1598 C.2     1  UNL1        0.0729
     11 O           5.7039   -2.6985   19.7720 O.co2   1  UNL1       -0.5446
     12 C           1.2891    1.8356   26.5974 C.3     1  UNL1        0.1344
     13 N           0.4582    1.1066   27.6115 N.ar    1  UNL1       -0.3036
     14 C          -1.0264    1.2290   27.7871 C.ar    1  UNL1        0.0983
     15 C          -1.4361    0.3253   28.9121 C.ar    1  UNL1        0.1193
     16 N          -0.2046   -0.3556   29.4317 N.ar    1  UNL1       -0.2223
     17 C           0.9661    0.1273   28.6278 C.ar    1  UNL1        0.1789
     18 O           0.2777    0.7517   21.6172 O.3     1  UNL1       -0.4751
     19 C          -0.0516    2.1110   21.0751 C.3     1  UNL1        0.2101
     20 C           0.9003    2.7964   20.1402 C.3     1  UNL1        0.0736
     21 C           1.9448    1.9995   19.4161 C.ar    1  UNL1       -0.0184
     22 C           1.5351    0.9007   18.4808 C.ar    1  UNL1       -0.0041
     23 C           2.5795    0.1038   17.7567 C.ar    1  UNL1       -0.0003
     24 C           4.0336    0.4058   17.9680 C.ar    1  UNL1       -0.0000
     25 C           5.0779   -0.3911   17.2439 C.ar    1  UNL1       -0.0000
     26 C           6.5319   -0.0891   17.4551 C.ar    1  UNL1       -0.0000
     27 C           6.9416    1.0097   18.3905 C.ar    1  UNL1       -0.0000
     28 C           5.8972    1.8065   19.1145 C.ar    1  UNL1       -0.0000
     29 C           4.4432    1.5046   18.9033 C.ar    1  UNL1       -0.0003
     30 C           3.3988    2.3015   19.6274 C.ar    1  UNL1       -0.0041
@<TRIPOS>UNITY_ATOM_ATTR
9 1
charge -1
@<TRIPOS>BOND
     1     9    10   ar
     2    10    11   ar
     3    10     7    1
     4     7     8    2
     5     8     1    1
     6     1     2   ar
     7     2     3   ar
     8     3     4   ar
     9     4    12    1
    10    12    13    1
    11    13    14   ar
    12    14    15   ar
    13    15    16   ar
    14    16    17   ar
    15     4     5   ar
    16     5     6   ar
    17     6    18    1
    18    18    19    1
    19    19    20    1
    20    20    21    1
    21    21    22   ar
    22    22    23   ar
    23    23    24   ar
    24    24    25   ar
    25    25    26   ar
    26    26    27   ar
    27    27    28   ar
    28    28    29   ar
    29    29    30   ar
    30     6     1   ar
    31    30    21   ar
    32    17    13   ar
    33    29    24   ar
