@<TRIPOS>MOLECULE
*****
 30 33 0 0 0
SMALL
GASTEIGER

@<TRIPOS>ATOM
      1 C           6.3312   -2.8408   32.0419 C.ar    1  UNL1        0.1105
      2 C           7.2199   -1.7073   32.4605 C.ar    1  UNL1        0.0200
      3 C           6.7700   -0.7571   33.5304 C.ar    1  UNL1        0.0160
      4 C           5.4313   -0.9404   34.1817 C.ar    1  UNL1        0.0504
      5 C           4.5425   -2.0739   33.7631 C.ar    1  UNL1        0.0160
      6 C           4.9925   -3.0241   32.6933 C.ar    1  UNL1        0.0200
      7 N           4.9813    0.0098   35.2516 N.am    1  UNL1       -0.2839
      8 C           5.8573    0.2689   36.4414 C.2     1  UNL1        0.2260
      9 O           7.1832   -0.4222   36.5613 O.2     1  UNL1       -0.2748
     10 H           4.1111    0.4634   35.1729 H       1  UNL1        0.1549
     11 C           5.4073    1.2192   37.5113 C.3     1  UNL1        0.0812
     12 C           5.7292    2.2493   38.5530 C.3     1  UNL1        0.0143
     13 C           4.3061    1.8349   38.3227 C.3     1  UNL1        0.0330
     14 C           2.8488    1.9510   38.6581 C.ar    1  UNL1       -0.0029
     15 C           2.1901    0.9081   39.5115 C.ar    1  UNL1       -0.0011
     16 C           0.7328    1.0243   39.8469 C.ar    1  UNL1        0.0204
     17 C          -0.0660    2.1835   39.3290 C.ar    1  UNL1        0.0989
     18 N           0.5927    3.2265   38.4755 N.ar    1  UNL1       -0.2426
     19 C           2.0501    3.1102   38.1401 C.ar    1  UNL1        0.0946
     20 S           6.7811   -3.7910   30.9720 S.O2    1  UNL1        0.0305
     21 O           6.7685   -4.9151   31.9650 O.2     1  UNL1       -0.1641
     22 O           6.7937   -2.6669   29.9790 O.2     1  UNL1       -0.1641
     23 N           7.3277   -6.0171   27.8398 N.ar    1  UNL1       -0.2481
     24 C           6.5316   -4.9984   28.6003 C.ar    1  UNL1        0.1154
     25 C           7.2310   -4.7412   29.9021 C.ar    1  UNL1        0.1497
     26 C           8.4594   -5.6009   29.9462 C.ar    1  UNL1        0.1404
     27 N           8.5191   -6.3895   28.6716 N.ar    1  UNL1       -0.1662
     28 C           6.9914   -6.5670   26.4853 C.3     1  UNL1        0.1276
     29 C           8.3519   -7.6717   24.5673 C.3     1  UNL1        0.0021
     30 C           7.7536   -7.7387   25.9412 C.3     1  UNL1        0.0264
@<TRIPOS>BOND
     1    29    30    1
     2    30    28    1
     3    28    23    1
     4    23    24   ar
     5    24    25   ar
     6    25    20    1
     7    20    21    2
     8    20    22    2
     9    20     1    1
    10     1     2   ar
    11     2     3   ar
    12     3     4   ar
    13     4     7    1
    14     7     8   am
    15     8     9    2
    16    11     8    1
    17    11    12    1
    18    12    13    1
    19    13    14    1
    20    14    15   ar
    21    15    16   ar
    22    16    17   ar
    23    17    18   ar
    24    18    19   ar
    25     4     5   ar
    26     5     6   ar
    27    25    26   ar
    28    26    27   ar
    29    27    23   ar
    30     6     1   ar
    31    13    11    1
    32    19    14   ar
    33     7    10    1
@<TRIPOS>MOLECULE
*****
 30 33 0 0 0
SMALL
GASTEIGER

@<TRIPOS>ATOM
      1 C           5.3514   -0.7057   34.4926 C.ar    1  UNL1        0.1105
      2 C           4.3827   -1.5783   33.7509 C.ar    1  UNL1        0.0200
      3 C           4.8449   -2.3734   32.5660 C.ar    1  UNL1        0.0160
      4 C           6.2758   -2.2958   32.1226 C.ar    1  UNL1        0.0504
      5 C           7.2445   -1.4232   32.8643 C.ar    1  UNL1        0.0160
      6 C           6.7823   -0.6282   34.0493 C.ar    1  UNL1        0.0200
      7 N           6.7380   -3.0909   30.9376 N.am    1  UNL1       -0.2839
      8 C           6.8866   -4.5796   31.0450 C.2     1  UNL1        0.2260
      9 O           6.5731   -5.2733   32.3375 O.2     1  UNL1       -0.2748
     10 H           6.9437   -2.6357   30.0893 H       1  UNL1        0.1549
     11 C           7.3488   -5.3748   29.8600 C.3     1  UNL1        0.0812
     12 C           8.0200   -6.5905   29.2932 C.3     1  UNL1        0.0143
     13 C           7.4780   -5.5361   28.3743 C.3     1  UNL1        0.0330
     14 C           7.2397   -5.0205   26.9860 C.ar    1  UNL1       -0.0029
     15 C           7.6329   -5.8503   25.7999 C.ar    1  UNL1       -0.0011
     16 C           7.3946   -5.3346   24.4117 C.ar    1  UNL1        0.0204
     17 C           6.7630   -3.9891   24.2095 C.ar    1  UNL1        0.0989
     18 N           6.3698   -3.1593   25.3956 N.ar    1  UNL1       -0.2426
     19 C           6.6081   -3.6750   26.7839 C.ar    1  UNL1        0.0946
     20 S           4.8893    0.0894   35.6777 S.O2    1  UNL1        0.0305
     21 O           3.9149    0.8237   34.8051 O.2     1  UNL1       -0.1641
     22 O           5.8636   -0.6449   36.5502 O.2     1  UNL1       -0.1641
     23 N           3.0069    2.0490   38.4493 N.ar    1  UNL1       -0.2481
     24 C           3.0082    1.2565   37.1757 C.ar    1  UNL1        0.1154
     25 C           4.4272    0.8844   36.8627 C.ar    1  UNL1        0.1497
     26 C           5.3029    1.4469   37.9428 C.ar    1  UNL1        0.1404
     27 N           4.4252    2.1667   38.9233 N.ar    1  UNL1       -0.1662
     28 C           1.7995    2.6231   39.1293 C.3     1  UNL1        0.1276
     29 C           1.0312    0.2407   39.8250 C.3     1  UNL1        0.0021
     30 C           0.7559    1.7100   39.7014 C.3     1  UNL1        0.0264
@<TRIPOS>BOND
     1    29    30    1
     2    30    28    1
     3    28    23    1
     4    23    24   ar
     5    24    25   ar
     6    25    20    1
     7    20    21    2
     8    20    22    2
     9    20     1    1
    10     1     2   ar
    11     2     3   ar
    12     3     4   ar
    13     4     7    1
    14     7     8   am
    15     8     9    2
    16    11     8    1
    17    11    12    1
    18    12    13    1
    19    13    14    1
    20    14    15   ar
    21    15    16   ar
    22    16    17   ar
    23    17    18   ar
    24    18    19   ar
    25     4     5   ar
    26     5     6   ar
    27    25    26   ar
    28    26    27   ar
    29    27    23   ar
    30     6     1   ar
    31    13    11    1
    32    19    14   ar
    33     7    10    1
@<TRIPOS>MOLECULE
*****
 30 33 0 0 0
SMALL
GASTEIGER

@<TRIPOS>ATOM
      1 C           3.2533    0.0478   30.3672 C.ar    1  UNL1        0.1105
      2 C           2.0528   -0.0937   29.4791 C.ar    1  UNL1        0.0200
      3 C           2.1943   -0.7116   28.1196 C.ar    1  UNL1        0.0160
      4 C           3.5363   -1.1879   27.6482 C.ar    1  UNL1        0.0504
      5 C           4.7368   -1.0463   28.5363 C.ar    1  UNL1        0.0160
      6 C           4.5953   -0.4285   29.8958 C.ar    1  UNL1        0.0200
      7 N           3.6778   -1.8057   26.2887 N.am    1  UNL1       -0.2839
      8 C           3.7967   -0.9310   25.0760 C.2     1  UNL1        0.2260
      9 O           3.7742    0.5617   25.2228 O.2     1  UNL1       -0.2748
     10 H           3.6926   -2.7854   26.1923 H       1  UNL1        0.1549
     11 C           3.9382   -1.5488   23.7164 C.3     1  UNL1        0.0812
     12 C           4.4086   -2.6744   22.8437 C.3     1  UNL1        0.0143
     13 C           3.7128   -1.4934   22.2345 C.3     1  UNL1        0.0330
     14 C           3.1810   -0.7796   21.0272 C.ar    1  UNL1       -0.0029
     15 C           1.7012   -0.6986   20.7951 C.ar    1  UNL1       -0.0011
     16 C           1.1694    0.0152   19.5879 C.ar    1  UNL1        0.0204
     17 C           2.1173    0.6482   18.6127 C.ar    1  UNL1        0.0989
     18 N           3.5970    0.5673   18.8448 N.ar    1  UNL1       -0.2426
     19 C           4.1288   -0.1466   20.0521 C.ar    1  UNL1        0.0946
     20 S           3.1118    0.6657   31.7267 S.O2    1  UNL1        0.0305
     21 O           1.6594    0.9259   31.4574 O.2     1  UNL1       -0.1641
     22 O           4.5643    0.4054   31.9961 O.2     1  UNL1       -0.1641
     23 N           3.3515    1.8496   35.4154 N.ar    1  UNL1       -0.2481
     24 C           3.8559    1.0243   34.2689 C.ar    1  UNL1        0.1154
     25 C           2.9704    1.2835   33.0862 C.ar    1  UNL1        0.1497
     26 C           1.9187    2.2690   33.5017 C.ar    1  UNL1        0.1404
     27 N           2.1542    2.6189   34.9412 N.ar    1  UNL1       -0.1662
     28 C           3.9407    1.8973   36.7939 C.3     1  UNL1        0.1276
     29 C           2.2470    1.1770   38.6277 C.3     1  UNL1        0.0021
     30 C           3.4933    0.9147   37.8353 C.3     1  UNL1        0.0264
@<TRIPOS>BOND
     1    29    30    1
     2    30    28    1
     3    28    23    1
     4    23    24   ar
     5    24    25   ar
     6    25    20    1
     7    20    21    2
     8    20    22    2
     9    20     1    1
    10     1     2   ar
    11     2     3   ar
    12     3     4   ar
    13     4     7    1
    14     7     8   am
    15     8     9    2
    16    11     8    1
    17    11    12    1
    18    12    13    1
    19    13    14    1
    20    14    15   ar
    21    15    16   ar
    22    16    17   ar
    23    17    18   ar
    24    18    19   ar
    25     4     5   ar
    26     5     6   ar
    27    25    26   ar
    28    26    27   ar
    29    27    23   ar
    30     6     1   ar
    31    13    11    1
    32    19    14   ar
    33     7    10    1
@<TRIPOS>MOLECULE
*****
 30 33 0 0 0
SMALL
GASTEIGER

@<TRIPOS>ATOM
      1 C           3.4371    0.1808   30.6860 C.ar    1  UNL1        0.1105
      2 C           2.2447   -0.5472   30.1399 C.ar    1  UNL1        0.0200
      3 C           1.9447   -0.4990   28.6710 C.ar    1  UNL1        0.0160
      4 C           2.8371    0.2770   27.7483 C.ar    1  UNL1        0.0504
      5 C           4.0295    1.0050   28.2944 C.ar    1  UNL1        0.0160
      6 C           4.3295    0.9568   29.7633 C.ar    1  UNL1        0.0200
      7 N           2.5370    0.3252   26.2793 N.am    1  UNL1       -0.2839
      8 C           3.3103   -0.5383   25.3272 C.2     1  UNL1        0.2260
      9 O           4.3836   -1.4498   25.8440 O.2     1  UNL1       -0.2748
     10 H           1.8325    0.9234   25.9402 H       1  UNL1        0.1549
     11 C           3.0102   -0.4901   23.8583 C.3     1  UNL1        0.0812
     12 C           2.3546    0.1805   22.6877 C.3     1  UNL1        0.0143
     13 C           3.1460   -1.0775   22.4847 C.3     1  UNL1        0.0330
     14 C           3.6813   -2.1428   21.5746 C.ar    1  UNL1       -0.0029
     15 C           3.3765   -2.0979   20.1066 C.ar    1  UNL1       -0.0011
     16 C           3.9118   -3.1632   19.1965 C.ar    1  UNL1        0.0204
     17 C           4.7520   -4.2737   19.7544 C.ar    1  UNL1        0.0989
     18 N           5.0568   -4.3186   21.2224 N.ar    1  UNL1       -0.2426
     19 C           4.5214   -3.2532   22.1325 C.ar    1  UNL1        0.0946
     20 S           3.7372    0.1327   32.1550 S.O2    1  UNL1        0.0305
     21 O           4.0568    1.5981   32.1377 O.2     1  UNL1       -0.1641
     22 O           3.4176   -1.3328   32.1722 O.2     1  UNL1       -0.1641
     23 N           4.2660    0.7198   35.9551 N.ar    1  UNL1       -0.2481
     24 C           3.8367    1.2040   34.6019 C.ar    1  UNL1        0.1154
     25 C           4.0372    0.0845   33.6238 C.ar    1  UNL1        0.1497
     26 C           4.5906   -1.0916   34.3726 C.ar    1  UNL1        0.1404
     27 N           4.7320   -0.6990   35.8134 N.ar    1  UNL1       -0.1662
     28 C           4.2349    1.5147   37.2267 C.3     1  UNL1        0.1276
     29 C           1.9871    1.3536   38.5195 C.3     1  UNL1        0.0021
     30 C           3.4446    1.0196   38.4016 C.3     1  UNL1        0.0264
@<TRIPOS>BOND
     1    29    30    1
     2    30    28    1
     3    28    23    1
     4    23    24   ar
     5    24    25   ar
     6    25    20    1
     7    20    21    2
     8    20    22    2
     9    20     1    1
    10     1     2   ar
    11     2     3   ar
    12     3     4   ar
    13     4     7    1
    14     7     8   am
    15     8     9    2
    16    11     8    1
    17    11    12    1
    18    12    13    1
    19    13    14    1
    20    14    15   ar
    21    15    16   ar
    22    16    17   ar
    23    17    18   ar
    24    18    19   ar
    25     4     5   ar
    26     5     6   ar
    27    25    26   ar
    28    26    27   ar
    29    27    23   ar
    30     6     1   ar
    31    13    11    1
    32    19    14   ar
    33     7    10    1
@<TRIPOS>MOLECULE
*****
 30 33 0 0 0
SMALL
GASTEIGER

@<TRIPOS>ATOM
      1 C           4.0264   -1.6310   20.1191 C.ar    1  UNL1        0.1105
      2 C           4.3225   -0.9204   18.8318 C.ar    1  UNL1        0.0200
      3 C           3.2905   -0.0230   18.2159 C.ar    1  UNL1        0.0160
      4 C           1.9622    0.1638   18.8873 C.ar    1  UNL1        0.0504
      5 C           1.6660   -0.5469   20.1746 C.ar    1  UNL1        0.0160
      6 C           2.6981   -1.4443   20.7905 C.ar    1  UNL1        0.0200
      7 N           0.9301    1.0613   18.2714 N.am    1  UNL1       -0.2839
      8 C           0.8030    2.4837   18.7303 C.2     1  UNL1        0.2260
      9 O           1.7080    3.0086   19.8052 O.2     1  UNL1       -0.2748
     10 H           0.3361    0.7167   17.5659 H       1  UNL1        0.1549
     11 C          -0.2291    3.3811   18.1143 C.3     1  UNL1        0.0812
     12 C          -0.5999    4.4497   17.1291 C.3     1  UNL1        0.0143
     13 C          -1.6459    3.8671   18.0327 C.3     1  UNL1        0.0330
     14 C          -3.0677    3.8112   18.5073 C.ar    1  UNL1       -0.0029
     15 C          -4.1917    4.0059   17.5333 C.ar    1  UNL1       -0.0011
     16 C          -5.6135    3.9501   18.0078 C.ar    1  UNL1        0.0204
     17 C          -5.9114    3.6995   19.4565 C.ar    1  UNL1        0.0989
     18 N          -4.7874    3.5048   20.4305 N.ar    1  UNL1       -0.2426
     19 C          -3.3655    3.5607   19.9559 C.ar    1  UNL1        0.0946
     20 S           5.0585   -2.5285   20.7351 S.O2    1  UNL1        0.0305
     21 O           4.2190   -2.6445   21.9728 O.2     1  UNL1       -0.1641
     22 O           5.8979   -2.4126   19.4974 O.2     1  UNL1       -0.1641
     23 N           7.3457   -4.7318   22.9666 N.ar    1  UNL1       -0.2481
     24 C           6.1583   -3.8318   22.7935 C.ar    1  UNL1        0.1154
     25 C           6.0906   -3.4260   21.3510 C.ar    1  UNL1        0.1497
     26 C           7.2361   -4.0751   20.6326 C.ar    1  UNL1        0.1404
     27 N           8.0119   -4.8822   21.6310 N.ar    1  UNL1       -0.1662
     28 C           7.7891   -5.3695   24.2498 C.3     1  UNL1        0.1276
     29 C           9.2201   -7.4967   23.8285 C.3     1  UNL1        0.0021
     30 C           7.9584   -6.8578   24.3284 C.3     1  UNL1        0.0264
@<TRIPOS>BOND
     1    29    30    1
     2    30    28    1
     3    28    23    1
     4    23    24   ar
     5    24    25   ar
     6    25    20    1
     7    20    21    2
     8    20    22    2
     9    20     1    1
    10     1     2   ar
    11     2     3   ar
    12     3     4   ar
    13     4     7    1
    14     7     8   am
    15     8     9    2
    16    11     8    1
    17    11    12    1
    18    12    13    1
    19    13    14    1
    20    14    15   ar
    21    15    16   ar
    22    16    17   ar
    23    17    18   ar
    24    18    19   ar
    25     4     5   ar
    26     5     6   ar
    27    25    26   ar
    28    26    27   ar
    29    27    23   ar
    30     6     1   ar
    31    13    11    1
    32    19    14   ar
    33     7    10    1
@<TRIPOS>MOLECULE
*****
 30 33 0 0 0
SMALL
GASTEIGER

@<TRIPOS>ATOM
      1 C           3.3816   -1.5996   21.3508 C.ar    1  UNL1        0.1105
      2 C           2.6610   -1.6761   20.0375 C.ar    1  UNL1        0.0200
      3 C           1.4632   -0.8086   19.7877 C.ar    1  UNL1        0.0160
      4 C           0.9859    0.1355   20.8512 C.ar    1  UNL1        0.0504
      5 C           1.7065    0.2121   22.1645 C.ar    1  UNL1        0.0160
      6 C           2.9044   -0.6555   22.4143 C.ar    1  UNL1        0.0200
      7 N          -0.2120    1.0031   20.6012 N.am    1  UNL1       -0.2839
      8 C          -0.0293    2.4427   20.2218 C.2     1  UNL1        0.2260
      9 O           1.3512    3.0149   20.0922 O.2     1  UNL1       -0.2748
     10 H          -1.1181    0.6276   20.6863 H       1  UNL1        0.1549
     11 C          -1.2272    3.3103   19.9718 C.3     1  UNL1        0.0812
     12 C          -1.9576    4.3009   19.1143 C.3     1  UNL1        0.0143
     13 C          -2.5716    3.8224   20.3965 C.3     1  UNL1        0.0330
     14 C          -3.7023    3.8418   21.3819 C.ar    1  UNL1       -0.0029
     15 C          -3.4432    3.5341   22.8270 C.ar    1  UNL1       -0.0011
     16 C          -4.5739    3.5535   23.8124 C.ar    1  UNL1        0.0204
     17 C          -5.9638    3.8806   23.3528 C.ar    1  UNL1        0.0989
     18 N          -6.2229    4.1884   21.9078 N.ar    1  UNL1       -0.2426
     19 C          -5.0922    4.1690   20.9223 C.ar    1  UNL1        0.0946
     20 S           4.5795   -2.4672   21.6008 S.O2    1  UNL1        0.0305
     21 O           5.0062   -2.2891   20.1738 O.2     1  UNL1       -0.1641
     22 O           4.1528   -2.6453   23.0277 O.2     1  UNL1       -0.1641
     23 N           7.4513   -4.6933   22.9656 N.ar    1  UNL1       -0.2481
     24 C           6.2074   -3.8827   23.1792 C.ar    1  UNL1        0.1154
     25 C           5.7773   -3.3347   21.8507 C.ar    1  UNL1        0.1497
     26 C           6.7554   -3.8067   20.8160 C.ar    1  UNL1        0.1404
     27 N           7.7900   -4.6463   21.5050 N.ar    1  UNL1       -0.1662
     28 C           8.2213   -5.4227   24.0262 C.3     1  UNL1        0.1276
     29 C           9.4689   -7.7014   24.0585 C.3     1  UNL1        0.0021
     30 C           8.1879   -6.9214   24.0805 C.3     1  UNL1        0.0264
@<TRIPOS>BOND
     1    29    30    1
     2    30    28    1
     3    28    23    1
     4    23    24   ar
     5    24    25   ar
     6    25    20    1
     7    20    21    2
     8    20    22    2
     9    20     1    1
    10     1     2   ar
    11     2     3   ar
    12     3     4   ar
    13     4     7    1
    14     7     8   am
    15     8     9    2
    16    11     8    1
    17    11    12    1
    18    12    13    1
    19    13    14    1
    20    14    15   ar
    21    15    16   ar
    22    16    17   ar
    23    17    18   ar
    24    18    19   ar
    25     4     5   ar
    26     5     6   ar
    27    25    26   ar
    28    26    27   ar
    29    27    23   ar
    30     6     1   ar
    31    13    11    1
    32    19    14   ar
    33     7    10    1
@<TRIPOS>MOLECULE
*****
 30 33 0 0 0
SMALL
GASTEIGER

@<TRIPOS>ATOM
      1 C           1.9491    0.1068   20.7788 C.ar    1  UNL1        0.1105
      2 C           2.5028    0.0263   22.1706 C.ar    1  UNL1        0.0200
      3 C           3.4911   -1.0454   22.5237 C.ar    1  UNL1        0.0160
      4 C           3.9257   -2.0366   21.4850 C.ar    1  UNL1        0.0504
      5 C           3.3721   -1.9560   20.0933 C.ar    1  UNL1        0.0160
      6 C           2.3838   -0.8843   19.7402 C.ar    1  UNL1        0.0200
      7 N           4.9141   -3.1083   21.8382 N.am    1  UNL1       -0.2839
      8 C           6.3826   -2.8643   21.6545 C.2     1  UNL1        0.2260
      9 O           6.8629   -1.5486   21.1176 O.2     1  UNL1       -0.2748
     10 H           4.5989   -3.9718   22.1906 H       1  UNL1        0.1549
     11 C           7.3709   -3.9360   22.0076 C.3     1  UNL1        0.0812
     12 C           8.5898   -4.7419   21.6686 C.3     1  UNL1        0.0143
     13 C           7.8639   -4.9863   22.9583 C.3     1  UNL1        0.0330
     14 C           7.7295   -5.7338   24.2518 C.ar    1  UNL1       -0.0029
     15 C           8.2185   -7.1481   24.3551 C.ar    1  UNL1       -0.0011
     16 C           8.0841   -7.8956   25.6486 C.ar    1  UNL1        0.0204
     17 C           7.4605   -7.2288   26.8389 C.ar    1  UNL1        0.0989
     18 N           6.9715   -5.8145   26.7356 N.ar    1  UNL1       -0.2426
     19 C           7.1060   -5.0670   25.4420 C.ar    1  UNL1        0.0946
     20 S           0.9608    1.1785   20.4257 S.O2    1  UNL1        0.0305
     21 O          -0.1653    0.2121   20.6442 O.2     1  UNL1       -0.1641
     22 O           2.0869    2.1450   20.2071 O.2     1  UNL1       -0.1641
     23 N          -1.9957    3.6703   20.0856 N.ar    1  UNL1       -0.2481
     24 C          -1.3324    2.5093   20.7654 C.ar    1  UNL1        0.1154
     25 C          -0.0275    2.2502   20.0725 C.ar    1  UNL1        0.1497
     26 C           0.1156    3.2510   18.9644 C.ar    1  UNL1        0.1404
     27 N          -1.1008    4.1286   18.9725 N.ar    1  UNL1       -0.1662
     28 C          -3.3212    4.2679   20.4542 C.3     1  UNL1        0.1276
     29 C          -4.8142    3.0534   22.1995 C.3     1  UNL1        0.0021
     30 C          -4.4840    3.3752   20.7721 C.3     1  UNL1        0.0264
@<TRIPOS>BOND
     1    29    30    1
     2    30    28    1
     3    28    23    1
     4    23    24   ar
     5    24    25   ar
     6    25    20    1
     7    20    21    2
     8    20    22    2
     9    20     1    1
    10     1     2   ar
    11     2     3   ar
    12     3     4   ar
    13     4     7    1
    14     7     8   am
    15     8     9    2
    16    11     8    1
    17    11    12    1
    18    12    13    1
    19    13    14    1
    20    14    15   ar
    21    15    16   ar
    22    16    17   ar
    23    17    18   ar
    24    18    19   ar
    25     4     5   ar
    26     5     6   ar
    27    25    26   ar
    28    26    27   ar
    29    27    23   ar
    30     6     1   ar
    31    13    11    1
    32    19    14   ar
    33     7    10    1
@<TRIPOS>MOLECULE
*****
 30 33 0 0 0
SMALL
GASTEIGER

@<TRIPOS>ATOM
      1 C           6.8628   -2.7368   31.6718 C.ar    1  UNL1        0.1105
      2 C           5.4609   -2.7744   32.2037 C.ar    1  UNL1        0.0200
      3 C           5.0474   -1.8326   33.2955 C.ar    1  UNL1        0.0160
      4 C           6.0360   -0.8531   33.8553 C.ar    1  UNL1        0.0504
      5 C           7.4380   -0.8155   33.3234 C.ar    1  UNL1        0.0160
      6 C           7.8514   -1.7574   32.2316 C.ar    1  UNL1        0.0200
      7 N           5.6225    0.0888   34.9471 N.am    1  UNL1       -0.2839
      8 C           4.8873    1.3519   34.6094 C.2     1  UNL1        0.2260
      9 O           4.5656    1.6732   33.1800 O.2     1  UNL1       -0.2748
     10 H           5.8336   -0.1221   35.8853 H       1  UNL1        0.1549
     11 C           4.4738    2.2938   35.7012 C.3     1  UNL1        0.0812
     12 C           4.5612    3.6394   36.3582 C.3     1  UNL1        0.0143
     13 C           3.6703    2.5795   36.9352 C.3     1  UNL1        0.0330
     14 C           2.6921    2.1326   37.9808 C.ar    1  UNL1       -0.0029
     15 C           1.4705    2.9551   38.2655 C.ar    1  UNL1       -0.0011
     16 C           0.4923    2.5082   39.3110 C.ar    1  UNL1        0.0204
     17 C           0.7356    1.2385   40.0720 C.ar    1  UNL1        0.0989
     18 N           1.9572    0.4160   39.7873 N.ar    1  UNL1       -0.2426
     19 C           2.9355    0.8630   38.7416 C.ar    1  UNL1        0.0946
     20 S           7.2763   -3.6787   30.5800 S.O2    1  UNL1        0.0305
     21 O           7.7937   -2.5217   29.7778 O.2     1  UNL1       -0.1641
     22 O           6.7589   -4.8357   31.3823 O.2     1  UNL1       -0.1641
     23 N           7.6052   -6.1939   27.6422 N.ar    1  UNL1       -0.2481
     24 C           6.7665   -5.3746   28.5778 C.ar    1  UNL1        0.1154
     25 C           7.6898   -4.6206   29.4883 C.ar    1  UNL1        0.1497
     26 C           9.0991   -4.9738   29.1154 C.ar    1  UNL1        0.1404
     27 N           9.0469   -5.9461   27.9744 N.ar    1  UNL1       -0.1662
     28 C           7.0924   -7.1015   26.5637 C.3     1  UNL1        0.1276
     29 C           8.3771   -7.3943   24.3245 C.3     1  UNL1        0.0021
     30 C           8.0562   -7.8712   25.7100 C.3     1  UNL1        0.0264
@<TRIPOS>BOND
     1    29    30    1
     2    30    28    1
     3    28    23    1
     4    23    24   ar
     5    24    25   ar
     6    25    20    1
     7    20    21    2
     8    20    22    2
     9    20     1    1
    10     1     2   ar
    11     2     3   ar
    12     3     4   ar
    13     4     7    1
    14     7     8   am
    15     8     9    2
    16    11     8    1
    17    11    12    1
    18    12    13    1
    19    13    14    1
    20    14    15   ar
    21    15    16   ar
    22    16    17   ar
    23    17    18   ar
    24    18    19   ar
    25     4     5   ar
    26     5     6   ar
    27    25    26   ar
    28    26    27   ar
    29    27    23   ar
    30     6     1   ar
    31    13    11    1
    32    19    14   ar
    33     7    10    1
@<TRIPOS>MOLECULE
*****
 30 33 0 0 0
SMALL
GASTEIGER

@<TRIPOS>ATOM
      1 C           7.9811   -4.7101   25.5708 C.ar    1  UNL1        0.1105
      2 C           7.2466   -4.9481   26.8569 C.ar    1  UNL1        0.0200
      3 C           6.8669   -6.3431   27.2565 C.ar    1  UNL1        0.0160
      4 C           7.2216   -7.5000   26.3702 C.ar    1  UNL1        0.0504
      5 C           7.9561   -7.2620   25.0842 C.ar    1  UNL1        0.0160
      6 C           8.3358   -5.8670   24.6845 C.ar    1  UNL1        0.0200
      7 N           6.8418   -8.8951   26.7700 N.am    1  UNL1       -0.2839
      8 C           7.7852   -9.7230   27.5912 C.2     1  UNL1        0.2260
      9 O           9.1084   -9.1560   28.0127 O.2     1  UNL1       -0.2748
     10 H           5.9734   -9.2672   26.4933 H       1  UNL1        0.1549
     11 C           7.4055  -11.1181   27.9909 C.3     1  UNL1        0.0812
     12 C           7.7961  -12.4805   28.4818 C.3     1  UNL1        0.0143
     13 C           6.3571  -12.1718   28.1924 C.3     1  UNL1        0.0330
     14 C           4.9210  -12.6018   28.1415 C.ar    1  UNL1       -0.0029
     15 C           3.9802  -12.2061   29.2408 C.ar    1  UNL1       -0.0011
     16 C           2.5441  -12.6362   29.1899 C.ar    1  UNL1        0.0204
     17 C           2.0487  -13.4620   28.0398 C.ar    1  UNL1        0.0989
     18 N           2.9895  -13.8578   26.9406 N.ar    1  UNL1       -0.2426
     19 C           4.4257  -13.4277   26.9915 C.ar    1  UNL1        0.0946
     20 S           8.3608   -3.3150   25.1711 S.O2    1  UNL1        0.0305
     21 O           9.2787   -3.8659   24.1204 O.2     1  UNL1       -0.1641
     22 O           7.4429   -2.7641   26.2217 O.2     1  UNL1       -0.1641
     23 N           9.1966    0.0556   23.4374 N.ar    1  UNL1       -0.2481
     24 C           8.7562   -1.3768   23.3733 C.ar    1  UNL1        0.1154
     25 C           8.7405   -1.9200   24.7714 C.ar    1  UNL1        0.1497
     26 C           9.1713   -0.8233   25.6996 C.ar    1  UNL1        0.1404
     27 N           9.4532    0.3977   24.8752 N.ar    1  UNL1       -0.1662
     28 C           9.3530    0.9831   22.2690 C.3     1  UNL1        0.1276
     29 C           7.4649    1.1670   20.4938 C.3     1  UNL1        0.0021
     30 C           8.7858    0.6075   20.9321 C.3     1  UNL1        0.0264
@<TRIPOS>BOND
     1    29    30    1
     2    30    28    1
     3    28    23    1
     4    23    24   ar
     5    24    25   ar
     6    25    20    1
     7    20    21    2
     8    20    22    2
     9    20     1    1
    10     1     2   ar
    11     2     3   ar
    12     3     4   ar
    13     4     7    1
    14     7     8   am
    15     8     9    2
    16    11     8    1
    17    11    12    1
    18    12    13    1
    19    13    14    1
    20    14    15   ar
    21    15    16   ar
    22    16    17   ar
    23    17    18   ar
    24    18    19   ar
    25     4     5   ar
    26     5     6   ar
    27    25    26   ar
    28    26    27   ar
    29    27    23   ar
    30     6     1   ar
    31    13    11    1
    32    19    14   ar
    33     7    10    1
