@<TRIPOS>MOLECULE
*****
 36 39 0 0 0
SMALL
GASTEIGER

@<TRIPOS>ATOM
      1 C          -7.1781  -19.7661   20.8856 C.ar    1  UNL1        0.1534
      2 C          -8.5078  -19.5060   20.2422 C.ar    1  UNL1        0.0351
      3 C          -9.7666  -19.6176   21.0503 C.ar    1  UNL1        0.0722
      4 CL        -11.0965  -19.3575   20.4069 Cl      1  UNL1       -0.0809
      5 C          -9.6956  -19.9894   22.5017 C.ar    1  UNL1        0.0577
      6 C          -8.3658  -20.2496   23.1451 C.ar    1  UNL1        0.0462
      7 C          -7.1071  -20.1379   22.3371 C.ar    1  UNL1        0.1602
      8 F          -5.7772  -20.3981   22.9804 F       1  UNL1       -0.2027
      9 O          -6.0438  -18.1597   20.0901 O.2     1  UNL1       -0.1498
     10 S          -5.9192  -19.6545   20.0775 S.O2    1  UNL1        0.0772
     11 O          -5.7947  -21.1492   20.0650 O.2     1  UNL1       -0.1498
     12 N          -4.6605  -19.5428   19.2695 N.pl3   1  UNL1       -0.1936
     13 H          -4.6706  -19.7617   18.3097 H       1  UNL1        0.1758
     14 C          -3.3862  -19.0975   19.9238 C.ar    1  UNL1        0.1794
     15 N          -2.2283  -18.4342   19.2388 N.ar    1  UNL1       -0.2114
     16 C          -1.1726  -18.1642   20.2697 C.ar    1  UNL1        0.1468
     17 CL          0.1553  -17.5122   20.0219 Cl      1  UNL1       -0.0607
     18 C          -1.6781  -18.6606   21.5919 C.ar    1  UNL1        0.0689
     19 S          -3.0462  -19.2375   21.3781 S.2     1  UNL1       -0.0488
     20 N         -10.9544  -20.1011   23.3098 N.pl3   1  UNL1       -0.3306
     21 H         -11.4903  -20.9263   23.2748 H       1  UNL1        0.1469
     22 C         -11.3968  -18.9556   24.1712 C.3     1  UNL1        0.1075
     23 C         -10.3795  -18.0247   24.7618 C.3     1  UNL1        0.0963
     24 N          -9.7610  -18.3364   26.0923 N.3     1  UNL1       -0.2935
     25 C          -8.7438  -17.4056   26.6829 C.3     1  UNL1        0.0735
     26 C          -8.3451  -16.1632   25.9431 C.3     1  UNL1        0.0428
     27 C          -8.9637  -15.8515   24.6126 C.2     1  UNL1       -0.0276
     28 C          -9.9809  -16.7823   24.0220 C.2     1  UNL1       -0.0106
     29 H          -9.3095  -19.2465   26.0012 H       1  UNL1        0.1236
     30 C         -10.5996  -16.4706   22.6915 C.ar    1  UNL1       -0.0028
     31 C         -12.0838  -16.5873   22.5087 C.ar    1  UNL1        0.0020
     32 C         -12.7025  -16.2756   21.1783 C.ar    1  UNL1        0.0296
     33 C         -11.8369  -15.8473   20.0305 C.ar    1  UNL1        0.1401
     34 F         -12.4555  -15.5357   18.7001 F       1  UNL1       -0.2042
     35 C         -10.3526  -15.7307   20.2132 C.ar    1  UNL1        0.0296
     36 C          -9.7340  -16.0424   21.5438 C.ar    1  UNL1        0.0020
@<TRIPOS>BOND
     1     9    10    2
     2    10    11    2
     3    10    12    1
     4    12    14    1
     5    14    15   ar
     6    15    16   ar
     7    16    17    1
     8    16    18   ar
     9    18    19   ar
    10    10     1    1
    11     1     2   ar
    12     2     3   ar
    13     3     4    1
    14     3     5   ar
    15     5    20    1
    16    20    22    1
    17    23    22    1
    18    23    24    1
    19    24    25    1
    20    25    26    1
    21    26    27    1
    22    27    28    2
    23    28    30    1
    24    30    31   ar
    25    31    32   ar
    26    32    33   ar
    27    33    34    1
    28    33    35   ar
    29    35    36   ar
    30     5     6   ar
    31     6     7   ar
    32     7     8    1
    33    19    14   ar
    34     7     1   ar
    35    28    23    1
    36    36    30   ar
    37    12    13    1
    38    20    21    1
    39    24    29    1
@<TRIPOS>MOLECULE
*****
 36 39 0 0 0
SMALL
GASTEIGER

@<TRIPOS>ATOM
      1 C          -7.2038  -19.8885   20.8678 C.ar    1  UNL1        0.1534
      2 C          -7.4384  -19.9445   22.3482 C.ar    1  UNL1        0.0351
      3 C          -8.8139  -19.7107   22.8990 C.ar    1  UNL1        0.0722
      4 CL         -9.0485  -19.7667   24.3795 Cl      1  UNL1       -0.0809
      5 C          -9.9548  -19.4208   21.9693 C.ar    1  UNL1        0.0577
      6 C          -9.7202  -19.3647   20.4889 C.ar    1  UNL1        0.0462
      7 C          -8.3447  -19.5986   19.9381 C.ar    1  UNL1        0.1602
      8 F          -8.1101  -19.5426   18.4576 F       1  UNL1       -0.2027
      9 O          -5.6659  -18.6476   20.0966 O.2     1  UNL1       -0.1498
     10 S          -5.8283  -20.1224   20.3169 S.O2    1  UNL1        0.0772
     11 O          -5.9908  -21.5971   20.5372 O.2     1  UNL1       -0.1498
     12 N          -4.4529  -20.3561   19.7661 N.pl3   1  UNL1       -0.1936
     13 H          -4.3156  -21.0159   19.0484 H       1  UNL1        0.1758
     14 C          -3.2865  -19.5847   20.3088 C.ar    1  UNL1        0.1794
     15 N          -2.3087  -18.7818   19.5030 N.ar    1  UNL1       -0.2114
     16 C          -1.3110  -18.1816   20.4488 C.ar    1  UNL1        0.1468
     17 CL         -0.1552  -17.3037   20.0707 Cl      1  UNL1       -0.0607
     18 C          -1.6723  -18.6136   21.8392 C.ar    1  UNL1        0.0689
     19 S          -2.8932  -19.4808   21.7526 S.2     1  UNL1       -0.0488
     20 N         -11.3303  -19.1869   22.5202 N.pl3   1  UNL1       -0.3306
     21 H         -11.8559  -19.9428   22.8690 H       1  UNL1        0.1469
     22 C         -11.9049  -17.8015   22.5395 C.3     1  UNL1        0.1075
     23 C         -11.6468  -16.8665   21.3953 C.3     1  UNL1        0.0963
     24 N         -12.6052  -16.8090   20.2428 N.3     1  UNL1       -0.2935
     25 C         -12.3471  -15.8740   19.0987 C.3     1  UNL1        0.0735
     26 C         -11.1306  -14.9964   19.1070 C.3     1  UNL1        0.0428
     27 C         -10.1722  -15.0539   20.2595 C.2     1  UNL1       -0.0276
     28 C         -10.4303  -15.9889   21.4036 C.2     1  UNL1       -0.0106
     29 H         -13.5152  -16.5577   20.6289 H       1  UNL1        0.1236
     30 C          -9.4719  -16.0465   22.5561 C.ar    1  UNL1       -0.0028
     31 C          -8.0044  -16.2267   22.3029 C.ar    1  UNL1        0.0020
     32 C          -7.0461  -16.2842   23.4554 C.ar    1  UNL1        0.0296
     33 C          -7.5551  -16.1615   24.8610 C.ar    1  UNL1        0.1401
     34 F          -6.5967  -16.2190   26.0135 F       1  UNL1       -0.2042
     35 C          -9.0226  -15.9813   25.1142 C.ar    1  UNL1        0.0296
     36 C          -9.9810  -15.9238   23.9617 C.ar    1  UNL1        0.0020
@<TRIPOS>BOND
     1     9    10    2
     2    10    11    2
     3    10    12    1
     4    12    14    1
     5    14    15   ar
     6    15    16   ar
     7    16    17    1
     8    16    18   ar
     9    18    19   ar
    10    10     1    1
    11     1     2   ar
    12     2     3   ar
    13     3     4    1
    14     3     5   ar
    15     5    20    1
    16    20    22    1
    17    23    22    1
    18    23    24    1
    19    24    25    1
    20    25    26    1
    21    26    27    1
    22    27    28    2
    23    28    30    1
    24    30    31   ar
    25    31    32   ar
    26    32    33   ar
    27    33    34    1
    28    33    35   ar
    29    35    36   ar
    30     5     6   ar
    31     6     7   ar
    32     7     8    1
    33    19    14   ar
    34     7     1   ar
    35    28    23    1
    36    36    30   ar
    37    12    13    1
    38    20    21    1
    39    24    29    1
@<TRIPOS>MOLECULE
*****
 36 39 0 0 0
SMALL
GASTEIGER

@<TRIPOS>ATOM
      1 C          -8.0977  -19.1535   20.7626 C.ar    1  UNL1        0.1534
      2 C          -6.9649  -18.8336   19.8330 C.ar    1  UNL1        0.0351
      3 C          -5.5780  -19.3096   20.1491 C.ar    1  UNL1        0.0722
      4 CL         -4.4451  -18.9896   19.2194 Cl      1  UNL1       -0.0809
      5 C          -5.3239  -20.1056   21.3948 C.ar    1  UNL1        0.0577
      6 C          -6.4568  -20.4255   22.3245 C.ar    1  UNL1        0.0462
      7 C          -7.8436  -19.9495   22.0084 C.ar    1  UNL1        0.1602
      8 F          -8.9765  -20.2695   22.9381 F       1  UNL1       -0.2027
      9 O          -9.2075  -17.3916   21.1673 O.2     1  UNL1       -0.1498
     10 S          -9.4846  -18.6775   20.4466 S.O2    1  UNL1        0.0772
     11 O          -9.7618  -19.9634   19.7258 O.2     1  UNL1       -0.1498
     12 N         -10.8715  -18.2015   20.1306 N.pl3   1  UNL1       -0.1936
     13 H         -11.1956  -18.2117   19.2010 H       1  UNL1        0.1758
     14 C         -11.7647  -17.7098   21.2309 C.ar    1  UNL1        0.1794
     15 N         -12.3637  -18.5479   22.3211 N.ar    1  UNL1       -0.2114
     16 C         -13.1848  -17.6498   23.1981 C.ar    1  UNL1        0.1468
     17 CL        -13.9612  -18.0709   24.4104 Cl      1  UNL1       -0.0607
     18 C         -13.0932  -16.2565   22.6499 C.ar    1  UNL1        0.0689
     19 S         -12.2155  -16.2936   21.4340 S.2     1  UNL1       -0.0488
     20 N          -3.9370  -20.5816   21.7109 N.pl3   1  UNL1       -0.3306
     21 H          -3.6439  -21.4742   21.4167 H       1  UNL1        0.1469
     22 C          -2.9966  -19.6976   22.4752 C.3     1  UNL1        0.1075
     23 C          -2.2193  -18.6330   21.7593 C.3     1  UNL1        0.0963
     24 N          -1.2464  -19.0109   20.6820 N.3     1  UNL1       -0.2935
     25 C          -0.4692  -17.9463   19.9662 C.3     1  UNL1        0.0735
     26 C          -0.6648  -16.5037   20.3278 C.3     1  UNL1        0.0428
     27 C          -1.6376  -16.1257   21.4051 C.2     1  UNL1       -0.0276
     28 C          -2.4148  -17.1904   22.1209 C.2     1  UNL1       -0.0106
     29 H          -1.7755  -19.5170   19.9718 H       1  UNL1        0.1236
     30 C          -3.3877  -16.8125   23.1983 C.ar    1  UNL1       -0.0028
     31 C          -4.3837  -15.7167   22.9588 C.ar    1  UNL1        0.0020
     32 C          -5.3566  -15.3388   24.0361 C.ar    1  UNL1        0.0296
     33 C          -5.3335  -16.0567   25.3530 C.ar    1  UNL1        0.1401
     34 F          -6.3064  -15.6787   26.4304 F       1  UNL1       -0.2042
     35 C          -4.3375  -17.1524   25.5926 C.ar    1  UNL1        0.0296
     36 C          -3.3646  -17.5303   24.5152 C.ar    1  UNL1        0.0020
@<TRIPOS>BOND
     1     9    10    2
     2    10    11    2
     3    10    12    1
     4    12    14    1
     5    14    15   ar
     6    15    16   ar
     7    16    17    1
     8    16    18   ar
     9    18    19   ar
    10    10     1    1
    11     1     2   ar
    12     2     3   ar
    13     3     4    1
    14     3     5   ar
    15     5    20    1
    16    20    22    1
    17    23    22    1
    18    23    24    1
    19    24    25    1
    20    25    26    1
    21    26    27    1
    22    27    28    2
    23    28    30    1
    24    30    31   ar
    25    31    32   ar
    26    32    33   ar
    27    33    34    1
    28    33    35   ar
    29    35    36   ar
    30     5     6   ar
    31     6     7   ar
    32     7     8    1
    33    19    14   ar
    34     7     1   ar
    35    28    23    1
    36    36    30   ar
    37    12    13    1
    38    20    21    1
    39    24    29    1
@<TRIPOS>MOLECULE
*****
 36 39 0 0 0
SMALL
GASTEIGER

@<TRIPOS>ATOM
      1 C           7.1570   -2.6266   22.0257 C.ar    1  UNL1        0.1534
      2 C           6.2355   -1.8127   22.8850 C.ar    1  UNL1        0.0351
      3 C           5.7398   -0.4819   22.4021 C.ar    1  UNL1        0.0722
      4 CL          4.8183    0.3320   23.2614 Cl      1  UNL1       -0.0809
      5 C           6.1656    0.0350   21.0599 C.ar    1  UNL1        0.0577
      6 C           7.0871   -0.7789   20.2006 C.ar    1  UNL1        0.0462
      7 C           7.5828   -2.1097   20.6835 C.ar    1  UNL1        0.1602
      8 F           8.5044   -2.9236   19.8243 F       1  UNL1       -0.2027
      9 O           6.3751   -4.5983   22.0540 O.2     1  UNL1       -0.1498
     10 S           7.6527   -3.9575   22.5087 S.O2    1  UNL1        0.0772
     11 O           8.9304   -3.3166   22.9633 O.2     1  UNL1       -0.1498
     12 N           8.1484   -5.2883   22.9915 N.pl3   1  UNL1       -0.1936
     13 H           8.7274   -5.8369   22.4144 H       1  UNL1        0.1758
     14 C           7.7620   -5.7833   24.3538 C.ar    1  UNL1        0.1794
     15 N           7.0103   -5.0065   25.3937 N.ar    1  UNL1       -0.2114
     16 C           6.8432   -5.8851   26.5979 C.ar    1  UNL1        0.1468
     17 CL          6.1495   -5.5098   27.8737 Cl      1  UNL1       -0.0607
     18 C           7.4917   -7.2050   26.3022 C.ar    1  UNL1        0.0689
     19 S           8.0595   -7.1421   24.9152 S.2     1  UNL1       -0.0488
     20 N           5.6699    1.3658   20.5770 N.pl3   1  UNL1       -0.3306
     21 H           5.6692    2.1408   21.1843 H       1  UNL1        0.1469
     22 C           5.1752    1.5160   19.1690 C.3     1  UNL1        0.1075
     23 C           3.7068    1.6665   18.9019 C.3     1  UNL1        0.0963
     24 N           3.1017    3.0342   18.7869 N.3     1  UNL1       -0.2935
     25 C           1.6334    3.1846   18.5199 C.3     1  UNL1        0.0735
     26 C           0.7701    1.9673   18.3679 C.3     1  UNL1        0.0428
     27 C           1.3752    0.5996   18.4829 C.2     1  UNL1       -0.0276
     28 C           2.8435    0.4492   18.7499 C.2     1  UNL1       -0.0106
     29 H           3.5893    3.5089   18.0272 H       1  UNL1        0.1236
     30 C           3.4487   -0.9185   18.8649 C.ar    1  UNL1       -0.0028
     31 C           3.1319   -1.7816   20.0501 C.ar    1  UNL1        0.0020
     32 C           3.7370   -3.1492   20.1652 C.ar    1  UNL1        0.0296
     33 C           4.6590   -3.6539   19.0949 C.ar    1  UNL1        0.1401
     34 F           5.2641   -5.0216   19.2100 F       1  UNL1       -0.2042
     35 C           4.9758   -2.7909   17.9097 C.ar    1  UNL1        0.0296
     36 C           4.3706   -1.4231   17.7947 C.ar    1  UNL1        0.0020
@<TRIPOS>BOND
     1     9    10    2
     2    10    11    2
     3    10    12    1
     4    12    14    1
     5    14    15   ar
     6    15    16   ar
     7    16    17    1
     8    16    18   ar
     9    18    19   ar
    10    10     1    1
    11     1     2   ar
    12     2     3   ar
    13     3     4    1
    14     3     5   ar
    15     5    20    1
    16    20    22    1
    17    23    22    1
    18    23    24    1
    19    24    25    1
    20    25    26    1
    21    26    27    1
    22    27    28    2
    23    28    30    1
    24    30    31   ar
    25    31    32   ar
    26    32    33   ar
    27    33    34    1
    28    33    35   ar
    29    35    36   ar
    30     5     6   ar
    31     6     7   ar
    32     7     8    1
    33    19    14   ar
    34     7     1   ar
    35    28    23    1
    36    36    30   ar
    37    12    13    1
    38    20    21    1
    39    24    29    1
@<TRIPOS>MOLECULE
*****
 36 39 0 0 0
SMALL
GASTEIGER

@<TRIPOS>ATOM
      1 C          -8.0697  -16.5940   22.8713 C.ar    1  UNL1        0.1534
      2 C          -7.0638  -15.6494   23.4593 C.ar    1  UNL1        0.0351
      3 C          -5.6495  -16.0996   23.6761 C.ar    1  UNL1        0.0722
      4 CL         -4.6435  -15.1550   24.2642 Cl      1  UNL1       -0.0809
      5 C          -5.2412  -17.4944   23.3049 C.ar    1  UNL1        0.0577
      6 C          -6.2471  -18.4390   22.7169 C.ar    1  UNL1        0.0462
      7 C          -7.6614  -17.9888   22.5001 C.ar    1  UNL1        0.1602
      8 F          -8.6674  -18.9334   21.9120 F       1  UNL1       -0.2027
      9 O          -9.1709  -15.8524   21.2167 O.2     1  UNL1       -0.1498
     10 S          -9.4841  -16.1438   22.6544 S.O2    1  UNL1        0.0772
     11 O          -9.7973  -16.4352   24.0921 O.2     1  UNL1       -0.1498
     12 N         -10.8984  -15.6936   22.4375 N.pl3   1  UNL1       -0.1936
     13 H         -11.0864  -14.7552   22.2069 H       1  UNL1        0.1758
     14 C         -12.0263  -16.6734   22.5719 C.ar    1  UNL1        0.1794
     15 N         -12.8488  -16.9073   23.8043 N.ar    1  UNL1       -0.2114
     16 C         -13.8606  -17.9696   23.4915 C.ar    1  UNL1        0.1468
     17 CL        -14.8889  -18.5138   24.4382 Cl      1  UNL1       -0.0607
     18 C         -13.6634  -18.3923   22.0658 C.ar    1  UNL1        0.0689
     19 S         -12.5297  -17.5911   21.4975 S.2     1  UNL1       -0.0488
     20 N          -3.8268  -17.9446   23.5218 N.pl3   1  UNL1       -0.3306
     21 H          -3.2829  -17.5337   24.2322 H       1  UNL1        0.1469
     22 C          -3.2412  -19.0207   22.6564 C.3     1  UNL1        0.1075
     23 C          -2.4353  -18.6538   21.4455 C.3     1  UNL1        0.0963
     24 N          -1.0619  -18.0725   21.6066 N.3     1  UNL1       -0.2935
     25 C          -0.2561  -17.7057   20.3958 C.3     1  UNL1        0.0735
     26 C          -0.8237  -17.9201   19.0240 C.3     1  UNL1        0.0428
     27 C          -2.1970  -18.5013   18.8629 C.2     1  UNL1       -0.0276
     28 C          -3.0028  -18.8682   20.0737 C.2     1  UNL1       -0.0106
     29 H          -0.5130  -18.7546   22.1300 H       1  UNL1        0.1236
     30 C          -4.3763  -19.4495   19.9127 C.ar    1  UNL1       -0.0028
     31 C          -4.6207  -20.8951   20.2295 C.ar    1  UNL1        0.0020
     32 C          -5.9940  -21.4764   20.0685 C.ar    1  UNL1        0.0296
     33 C          -7.1231  -20.6120   19.5908 C.ar    1  UNL1        0.1401
     34 F          -8.4964  -21.1933   19.4298 F       1  UNL1       -0.2042
     35 C          -6.8787  -19.1664   19.2740 C.ar    1  UNL1        0.0296
     36 C          -5.5052  -18.5851   19.4350 C.ar    1  UNL1        0.0020
@<TRIPOS>BOND
     1     9    10    2
     2    10    11    2
     3    10    12    1
     4    12    14    1
     5    14    15   ar
     6    15    16   ar
     7    16    17    1
     8    16    18   ar
     9    18    19   ar
    10    10     1    1
    11     1     2   ar
    12     2     3   ar
    13     3     4    1
    14     3     5   ar
    15     5    20    1
    16    20    22    1
    17    23    22    1
    18    23    24    1
    19    24    25    1
    20    25    26    1
    21    26    27    1
    22    27    28    2
    23    28    30    1
    24    30    31   ar
    25    31    32   ar
    26    32    33   ar
    27    33    34    1
    28    33    35   ar
    29    35    36   ar
    30     5     6   ar
    31     6     7   ar
    32     7     8    1
    33    19    14   ar
    34     7     1   ar
    35    28    23    1
    36    36    30   ar
    37    12    13    1
    38    20    21    1
    39    24    29    1
@<TRIPOS>MOLECULE
*****
 36 39 0 0 0
SMALL
GASTEIGER

@<TRIPOS>ATOM
      1 C           1.5484    0.6113   20.7945 C.ar    1  UNL1        0.1534
      2 C           2.0579    0.3469   22.1803 C.ar    1  UNL1        0.0351
      3 C           2.9751   -0.8126   22.4336 C.ar    1  UNL1        0.0722
      4 CL          3.4847   -1.0771   23.8195 Cl      1  UNL1       -0.0809
      5 C           3.3829   -1.7077   21.3011 C.ar    1  UNL1        0.0577
      6 C           2.8734   -1.4433   19.9153 C.ar    1  UNL1        0.0462
      7 C           1.9561   -0.2838   19.6620 C.ar    1  UNL1        0.1602
      8 F           1.4466   -0.0194   18.2762 F       1  UNL1       -0.2027
      9 O          -0.5433    0.8379   20.5237 O.2     1  UNL1       -0.1498
     10 S           0.6311    1.7708   20.5412 S.O2    1  UNL1        0.0772
     11 O           1.8055    2.7037   20.5586 O.2     1  UNL1       -0.1498
     12 N          -0.2862    2.9302   20.2878 N.pl3   1  UNL1       -0.1936
     13 H          -0.1381    3.5140   19.5090 H       1  UNL1        0.1758
     14 C          -1.4292    3.2002   21.2211 C.ar    1  UNL1        0.1794
     15 N          -2.8837    2.9982   20.9153 N.ar    1  UNL1       -0.2114
     16 C          -3.6716    3.3928   22.1292 C.ar    1  UNL1        0.1468
     17 CL         -5.1649    3.3491   22.2635 Cl      1  UNL1       -0.0607
     18 C          -2.7041    3.8387   23.1852 C.ar    1  UNL1        0.0689
     19 S          -1.3181    3.7197   22.6239 S.2     1  UNL1       -0.0488
     20 N           4.3002   -2.8673   21.5545 N.pl3   1  UNL1       -0.3306
     21 H           4.4205   -3.2088   22.4700 H       1  UNL1        0.1469
     22 C           5.0340   -3.5064   20.4130 C.3     1  UNL1        0.1075
     23 C           6.5339   -3.5107   20.3941 C.3     1  UNL1        0.0963
     24 N           7.2872   -4.6962   20.9207 N.3     1  UNL1       -0.2935
     25 C           8.7870   -4.7005   20.9018 C.3     1  UNL1        0.0735
     26 C           9.5336   -3.5193   20.3563 C.3     1  UNL1        0.0428
     27 C           8.7803   -2.3339   19.8298 C.2     1  UNL1       -0.0276
     28 C           7.2805   -2.3296   19.8487 C.2     1  UNL1       -0.0106
     29 H           6.9835   -5.5035   20.3763 H       1  UNL1        0.1236
     30 C           6.5272   -1.1441   19.3221 C.ar    1  UNL1       -0.0028
     31 C           6.2701    0.0364   20.2112 C.ar    1  UNL1        0.0020
     32 C           5.5168    1.2218   19.6847 C.ar    1  UNL1        0.0296
     33 C           5.0205    1.2268   18.2691 C.ar    1  UNL1        0.1401
     34 F           4.2672    2.4123   17.7426 F       1  UNL1       -0.2042
     35 C           5.2777    0.0464   17.3801 C.ar    1  UNL1        0.0296
     36 C           6.0310   -1.1391   17.9066 C.ar    1  UNL1        0.0020
@<TRIPOS>BOND
     1     9    10    2
     2    10    11    2
     3    10    12    1
     4    12    14    1
     5    14    15   ar
     6    15    16   ar
     7    16    17    1
     8    16    18   ar
     9    18    19   ar
    10    10     1    1
    11     1     2   ar
    12     2     3   ar
    13     3     4    1
    14     3     5   ar
    15     5    20    1
    16    20    22    1
    17    23    22    1
    18    23    24    1
    19    24    25    1
    20    25    26    1
    21    26    27    1
    22    27    28    2
    23    28    30    1
    24    30    31   ar
    25    31    32   ar
    26    32    33   ar
    27    33    34    1
    28    33    35   ar
    29    35    36   ar
    30     5     6   ar
    31     6     7   ar
    32     7     8    1
    33    19    14   ar
    34     7     1   ar
    35    28    23    1
    36    36    30   ar
    37    12    13    1
    38    20    21    1
    39    24    29    1
@<TRIPOS>MOLECULE
*****
 36 39 0 0 0
SMALL
GASTEIGER

@<TRIPOS>ATOM
      1 C           1.5730    1.1579   19.2118 C.ar    1  UNL1        0.1534
      2 C           2.7277    1.0100   18.2659 C.ar    1  UNL1        0.0351
      3 C           3.5187   -0.2642   18.2416 C.ar    1  UNL1        0.0722
      4 CL          4.6734   -0.4123   17.2956 Cl      1  UNL1       -0.0809
      5 C           3.1551   -1.3905   19.1632 C.ar    1  UNL1        0.0577
      6 C           2.0004   -1.2425   20.1091 C.ar    1  UNL1        0.0462
      7 C           1.2094    0.0317   20.1334 C.ar    1  UNL1        0.1602
      8 F           0.0547    0.1797   21.0794 F       1  UNL1       -0.2027
      9 O           0.0814    2.0213   17.9752 O.2     1  UNL1       -0.1498
     10 S           0.7820    2.4322   19.2362 S.O2    1  UNL1        0.0772
     11 O           1.4826    2.8431   20.4973 O.2     1  UNL1       -0.1498
     12 N          -0.0091    3.7064   19.2605 N.pl3   1  UNL1       -0.1936
     13 H           0.4400    4.5677   19.1004 H       1  UNL1        0.1758
     14 C          -1.4845    3.6683   19.5289 C.ar    1  UNL1        0.1794
     15 N          -2.1495    3.0258   20.7099 N.ar    1  UNL1       -0.2114
     16 C          -3.6298    3.2263   20.5742 C.ar    1  UNL1        0.1468
     17 CL         -4.6764    2.7450   21.5348 Cl      1  UNL1       -0.0607
     18 C          -3.8797    3.9929   19.3093 C.ar    1  UNL1        0.0689
     19 S          -2.5537    4.2660   18.6632 S.2     1  UNL1       -0.0488
     20 N           3.9461   -2.6647   19.1388 N.pl3   1  UNL1       -0.3306
     21 H           4.2773   -3.0223   18.2834 H       1  UNL1        0.1469
     22 C           4.2326   -3.3942   20.4177 C.3     1  UNL1        0.1075
     23 C           5.6162   -3.3777   20.9969 C.3     1  UNL1        0.0963
     24 N           6.6037   -4.4387   20.6107 N.3     1  UNL1       -0.2935
     25 C           7.9872   -4.4222   21.1899 C.3     1  UNL1        0.0735
     26 C           8.3833   -3.3446   22.1552 C.3     1  UNL1        0.0428
     27 C           7.3959   -2.2836   22.5415 C.2     1  UNL1       -0.0276
     28 C           6.0124   -2.3002   21.9623 C.2     1  UNL1       -0.0106
     29 H           6.7081   -4.3889   19.5973 H       1  UNL1        0.1236
     30 C           5.0248   -1.2391   22.3485 C.ar    1  UNL1       -0.0028
     31 C           3.9458   -1.5456   23.3444 C.ar    1  UNL1        0.0020
     32 C           2.9583   -0.4847   23.7306 C.ar    1  UNL1        0.0296
     33 C           3.0498    0.8828   23.1210 C.ar    1  UNL1        0.1401
     34 F           2.0624    1.9438   23.5072 F       1  UNL1       -0.2042
     35 C           4.1289    1.1893   22.1251 C.ar    1  UNL1        0.0296
     36 C           5.1164    0.1283   21.7389 C.ar    1  UNL1        0.0020
@<TRIPOS>BOND
     1     9    10    2
     2    10    11    2
     3    10    12    1
     4    12    14    1
     5    14    15   ar
     6    15    16   ar
     7    16    17    1
     8    16    18   ar
     9    18    19   ar
    10    10     1    1
    11     1     2   ar
    12     2     3   ar
    13     3     4    1
    14     3     5   ar
    15     5    20    1
    16    20    22    1
    17    23    22    1
    18    23    24    1
    19    24    25    1
    20    25    26    1
    21    26    27    1
    22    27    28    2
    23    28    30    1
    24    30    31   ar
    25    31    32   ar
    26    32    33   ar
    27    33    34    1
    28    33    35   ar
    29    35    36   ar
    30     5     6   ar
    31     6     7   ar
    32     7     8    1
    33    19    14   ar
    34     7     1   ar
    35    28    23    1
    36    36    30   ar
    37    12    13    1
    38    20    21    1
    39    24    29    1
@<TRIPOS>MOLECULE
*****
 36 39 0 0 0
SMALL
GASTEIGER

@<TRIPOS>ATOM
      1 C           5.8668   -1.3920   22.8353 C.ar    1  UNL1        0.1534
      2 C           6.7638   -1.5383   21.6421 C.ar    1  UNL1        0.0351
      3 C           6.7825   -0.4760   20.5832 C.ar    1  UNL1        0.0722
      4 CL          7.6796   -0.6223   19.3899 Cl      1  UNL1       -0.0809
      5 C           5.9042    0.7325   20.7176 C.ar    1  UNL1        0.0577
      6 C           5.0072    0.8788   21.9108 C.ar    1  UNL1        0.0462
      7 C           4.9885   -0.1835   22.9697 C.ar    1  UNL1        0.1602
      8 F           4.0914   -0.0372   24.1630 F       1  UNL1       -0.2027
      9 O           4.6080   -3.0389   23.2858 O.2     1  UNL1       -0.1498
     10 S           5.8480   -2.4543   23.8943 S.O2    1  UNL1        0.0772
     11 O           7.0881   -1.8696   24.5028 O.2     1  UNL1       -0.1498
     12 N           5.8292   -3.5165   24.9532 N.pl3   1  UNL1       -0.1936
     13 H           5.2133   -3.4390   25.7173 H       1  UNL1        0.1758
     14 C           6.7490   -4.6968   24.8479 C.ar    1  UNL1        0.1794
     15 N           7.2886   -5.2835   23.5772 N.ar    1  UNL1       -0.2114
     16 C           8.1636   -6.4469   23.9388 C.ar    1  UNL1        0.1468
     17 CL          8.9069   -7.3240   22.9755 Cl      1  UNL1       -0.0607
     18 C           8.1647   -6.5793   25.4330 C.ar    1  UNL1        0.0689
     19 S           7.2904   -5.4976   25.9949 S.2     1  UNL1       -0.0488
     20 N           5.9230    1.7948   19.6586 N.pl3   1  UNL1       -0.3306
     21 H           6.4517    2.6143   19.7929 H       1  UNL1        0.1469
     22 C           5.1362    1.6083   18.3953 C.3     1  UNL1        0.1075
     23 C           3.6418    1.7368   18.4165 C.3     1  UNL1        0.0963
     24 N           3.0025    3.0839   18.2538 N.3     1  UNL1       -0.2935
     25 C           1.5081    3.2123   18.2750 C.3     1  UNL1        0.0735
     26 C           0.6532    1.9936   18.4589 C.3     1  UNL1        0.0428
     27 C           1.2925    0.6465   18.6216 C.2     1  UNL1       -0.0276
     28 C           2.7868    0.5181   18.6004 C.2     1  UNL1       -0.0106
     29 H           3.3170    3.4526   17.3563 H       1  UNL1        0.1236
     30 C           3.4262   -0.8290   18.7631 C.ar    1  UNL1       -0.0028
     31 C           4.4313   -1.3085   17.7582 C.ar    1  UNL1        0.0020
     32 C           5.0707   -2.6555   17.9208 C.ar    1  UNL1        0.0296
     33 C           4.7050   -3.5233   19.0885 C.ar    1  UNL1        0.1401
     34 F           5.3444   -4.8704   19.2511 F       1  UNL1       -0.2042
     35 C           3.6999   -3.0439   20.0935 C.ar    1  UNL1        0.0296
     36 C           3.0605   -1.6967   19.9307 C.ar    1  UNL1        0.0020
@<TRIPOS>BOND
     1     9    10    2
     2    10    11    2
     3    10    12    1
     4    12    14    1
     5    14    15   ar
     6    15    16   ar
     7    16    17    1
     8    16    18   ar
     9    18    19   ar
    10    10     1    1
    11     1     2   ar
    12     2     3   ar
    13     3     4    1
    14     3     5   ar
    15     5    20    1
    16    20    22    1
    17    23    22    1
    18    23    24    1
    19    24    25    1
    20    25    26    1
    21    26    27    1
    22    27    28    2
    23    28    30    1
    24    30    31   ar
    25    31    32   ar
    26    32    33   ar
    27    33    34    1
    28    33    35   ar
    29    35    36   ar
    30     5     6   ar
    31     6     7   ar
    32     7     8    1
    33    19    14   ar
    34     7     1   ar
    35    28    23    1
    36    36    30   ar
    37    12    13    1
    38    20    21    1
    39    24    29    1
@<TRIPOS>MOLECULE
*****
 36 39 0 0 0
SMALL
GASTEIGER

@<TRIPOS>ATOM
      1 C           3.5958   -1.4242   19.4780 C.ar    1  UNL1        0.1534
      2 C           3.5379   -2.8450   19.0005 C.ar    1  UNL1        0.0351
      3 C           4.7233   -3.7459   19.1816 C.ar    1  UNL1        0.0722
      4 CL          4.6655   -5.1668   18.7041 Cl      1  UNL1       -0.0809
      5 C           5.9667   -3.2262   19.8403 C.ar    1  UNL1        0.0577
      6 C           6.0246   -1.8054   20.3179 C.ar    1  UNL1        0.0462
      7 C           4.8391   -0.9045   20.1367 C.ar    1  UNL1        0.1602
      8 F           4.8970    0.5164   20.6143 F       1  UNL1       -0.2027
      9 O           1.7846   -1.0978   20.5331 O.2     1  UNL1       -0.1498
     10 S           2.4102   -0.5232   19.2969 S.O2    1  UNL1        0.0772
     11 O           3.0358    0.0515   18.0606 O.2     1  UNL1       -0.1498
     12 N           1.2248    0.3778   19.1158 N.pl3   1  UNL1       -0.1936
     13 H           0.6399    0.2701   18.3312 H       1  UNL1        0.1758
     14 C           0.9304    1.4430   20.1301 C.ar    1  UNL1        0.1794
     15 N          -0.3324    1.5751   20.9288 N.ar    1  UNL1       -0.2114
     16 C          -0.1961    2.7768   21.8161 C.ar    1  UNL1        0.1468
     17 CL         -1.2260    3.2795   22.7838 Cl      1  UNL1       -0.0607
     18 C           1.1509    3.3875   21.5657 C.ar    1  UNL1        0.0689
     19 S           1.8472    2.5631   20.5237 S.2     1  UNL1       -0.0488
     20 N           7.1522   -4.1272   20.0215 N.pl3   1  UNL1       -0.3306
     21 H           7.3252   -4.8491   19.3748 H       1  UNL1        0.1469
     22 C           8.0741   -3.9284   21.1879 C.3     1  UNL1        0.1075
     23 C           8.1261   -4.9497   22.2854 C.3     1  UNL1        0.0963
     24 N           8.9050   -6.2172   22.0940 N.3     1  UNL1       -0.2935
     25 C           8.9570   -7.2384   23.1915 C.3     1  UNL1        0.0735
     26 C           8.2301   -6.9921   24.4802 C.3     1  UNL1        0.0428
     27 C           7.4511   -5.7246   24.6716 C.2     1  UNL1       -0.0276
     28 C           7.3992   -4.7034   23.5741 C.2     1  UNL1       -0.0106
     29 H           9.8684   -5.9443   21.8999 H       1  UNL1        0.1236
     30 C           6.6202   -3.4358   23.7654 C.ar    1  UNL1       -0.0028
     31 C           5.1530   -3.4031   23.4553 C.ar    1  UNL1        0.0020
     32 C           4.3741   -2.1356   23.6466 C.ar    1  UNL1        0.0296
     33 C           5.0623   -0.9007   24.1480 C.ar    1  UNL1        0.1401
     34 F           4.2834    0.3668   24.3393 F       1  UNL1       -0.2042
     35 C           6.5295   -0.9334   24.4582 C.ar    1  UNL1        0.0296
     36 C           7.3085   -2.2010   24.2669 C.ar    1  UNL1        0.0020
@<TRIPOS>BOND
     1     9    10    2
     2    10    11    2
     3    10    12    1
     4    12    14    1
     5    14    15   ar
     6    15    16   ar
     7    16    17    1
     8    16    18   ar
     9    18    19   ar
    10    10     1    1
    11     1     2   ar
    12     2     3   ar
    13     3     4    1
    14     3     5   ar
    15     5    20    1
    16    20    22    1
    17    23    22    1
    18    23    24    1
    19    24    25    1
    20    25    26    1
    21    26    27    1
    22    27    28    2
    23    28    30    1
    24    30    31   ar
    25    31    32   ar
    26    32    33   ar
    27    33    34    1
    28    33    35   ar
    29    35    36   ar
    30     5     6   ar
    31     6     7   ar
    32     7     8    1
    33    19    14   ar
    34     7     1   ar
    35    28    23    1
    36    36    30   ar
    37    12    13    1
    38    20    21    1
    39    24    29    1
