@<TRIPOS>MOLECULE
*****
 32 35 0 0 0
SMALL
GASTEIGER

@<TRIPOS>ATOM
      1 C          -8.9278  -19.1133   20.5429 C.3     1  UNL1        0.0112
      2 C          -9.4102  -18.3352   21.7311 C.3     1  UNL1        0.0638
      3 C         -10.3975  -18.9001   20.7533 C.2     1  UNL1       -0.0171
      4 C         -11.8673  -18.6868   20.9637 C.2     1  UNL1        0.0378
      5 C         -12.3497  -17.9087   22.1518 C.2     1  UNL1        0.1948
      6 O         -13.8196  -17.6954   22.3621 O.2     1  UNL1       -0.2866
      7 C         -11.3625  -17.3438   23.1296 C.2     1  UNL1        0.0339
      8 C          -9.8927  -17.5570   22.9192 C.2     1  UNL1       -0.0354
      9 C          -8.9053  -16.9921   23.8970 C.3     1  UNL1        0.0226
     10 C          -7.4356  -17.2053   23.6866 C.3     1  UNL1        0.0071
     11 C          -6.9531  -17.9835   22.4985 C.3     1  UNL1        0.0335
     12 C          -5.4833  -18.1967   22.2882 C.3     1  UNL1        0.0079
     13 C          -4.2832  -17.7631   23.0767 C.3     1  UNL1        0.0323
     14 C          -3.0591  -18.2733   22.3759 C.3     1  UNL1        0.1416
     15 O          -1.6404  -18.0703   22.8190 O.3     1  UNL1       -0.3816
     16 C          -3.5026  -19.0222   21.1543 C.3     1  UNL1        0.1657
     17 O          -3.4559  -19.8257   19.8885 O.3     1  UNL1       -0.3773
     18 C          -5.0008  -18.9749   21.1000 C.3     1  UNL1        0.0339
     19 C          -4.5432  -19.7565   19.9043 C.3     1  UNL1        0.0029
     20 C          -5.9881  -19.5398   20.1222 C.3     1  UNL1        0.0347
     21 C          -7.4579  -19.3265   20.3326 C.3     1  UNL1        0.1409
     22 O          -8.4453  -19.8915   19.3548 O.3     1  UNL1       -0.3817
     23 C          -7.9404  -18.5484   21.5207 C.3     1  UNL1        0.1644
     24 F          -8.4229  -17.7702   22.7089 F       1  UNL1       -0.2369
     25 H          -1.6288  -17.5521   23.6389 H       1  UNL1        0.2105
     26 H          -2.5327  -20.0192   19.6622 H       1  UNL1        0.2109
     27 H          -9.3453  -19.6643   19.6363 H       1  UNL1        0.2104
     28 C          -2.0327  -19.2354   20.9439 C.2     1  UNL1        0.2061
     29 O          -1.3572  -20.4375   21.5344 O.2     1  UNL1       -0.2909
     30 C          -1.2385  -18.2465   20.1431 C.3     1  UNL1        0.2045
     31 O           0.2037  -17.9997   20.4735 O.3     1  UNL1       -0.3749
     32 H           0.2689  -17.5887   21.3497 H       1  UNL1        0.2110
@<TRIPOS>BOND
     1     2     1    1
     2     2     3    1
     3     3     4    2
     4     4     5    1
     5     5     6    2
     6     5     7    1
     7     7     8    2
     8     8     9    1
     9     9    10    1
    10    11    10    1
    11    11    12    1
    12    12    13    1
    13    13    14    1
    14    14    15    1
    15    14    16    1
    16    16    17    1
    17    16    28    1
    18    28    29    2
    19    28    30    1
    20    30    31    1
    21    16    18    1
    22    18    19    1
    23    18    20    1
    24    20    21    1
    25    21    22    1
    26    21    23    1
    27    23    24    1
    28     8     2    1
    29    23    11    1
    30    23     2    1
    31    18    12    1
    32    15    25    1
    33    17    26    1
    34    31    32    1
    35    22    27    1
@<TRIPOS>MOLECULE
*****
 32 35 0 0 0
SMALL
GASTEIGER

@<TRIPOS>ATOM
      1 C         -15.2849   -9.1159   18.0928 C.3     1  UNL1        0.0112
      2 C         -16.4795   -8.3871   18.6331 C.3     1  UNL1        0.0638
      3 C         -16.6129   -9.8086   18.1733 C.2     1  UNL1       -0.0171
      4 C         -17.9409  -10.5013   18.2538 C.2     1  UNL1        0.0378
      5 C         -19.1355   -9.7725   18.7940 C.2     1  UNL1        0.1948
      6 O         -20.4635  -10.4653   18.8745 O.2     1  UNL1       -0.2866
      7 C         -19.0020   -8.3510   19.2538 C.2     1  UNL1        0.0339
      8 C         -17.6740   -7.6583   19.1733 C.2     1  UNL1       -0.0354
      9 C         -17.5405   -6.2367   19.6331 C.3     1  UNL1        0.0226
     10 C         -16.2125   -5.5440   19.5527 C.3     1  UNL1        0.0071
     11 C         -15.0179   -6.2728   19.0124 C.3     1  UNL1        0.0335
     12 C         -13.6899   -5.5801   18.9319 C.3     1  UNL1        0.0079
     13 C         -13.2565   -4.1940   19.3071 C.3     1  UNL1        0.0323
     14 C         -11.7942   -4.0661   18.9988 C.3     1  UNL1        0.1416
     15 O         -10.9503   -2.8454   19.2178 O.3     1  UNL1       -0.3816
     16 C         -11.3238   -5.3732   18.4330 C.3     1  UNL1        0.1657
     17 O         -10.4280   -6.4271   17.8523 O.3     1  UNL1       -0.3773
     18 C         -12.4953   -6.3089   18.3917 C.3     1  UNL1        0.0339
     19 C         -11.3157   -7.0590   17.8476 C.3     1  UNL1        0.0029
     20 C         -12.6288   -7.7305   17.9319 C.3     1  UNL1        0.0347
     21 C         -13.9569   -8.4231   18.0123 C.3     1  UNL1        0.1409
     22 O         -14.0904   -9.8447   17.5525 O.3     1  UNL1       -0.3817
     23 C         -15.1514   -7.6943   18.5526 C.3     1  UNL1        0.1644
     24 F         -16.3459   -6.9655   19.0929 F       1  UNL1       -0.2369
     25 H         -11.4968   -2.1380   19.5944 H       1  UNL1        0.2105
     26 H          -9.5301   -6.0724   17.7585 H       1  UNL1        0.2109
     27 H         -15.0071  -10.1384   17.6719 H       1  UNL1        0.2104
     28 C          -9.9957   -4.6804   18.3525 C.2     1  UNL1        0.2061
     29 O          -9.1283   -4.5777   19.5719 O.2     1  UNL1       -0.2909
     30 C          -9.5351   -4.0904   17.0526 C.3     1  UNL1        0.2045
     31 O          -9.4823   -2.6011   16.8819 O.3     1  UNL1       -0.3749
     32 H         -10.3819   -2.2398   16.9144 H       1  UNL1        0.2110
@<TRIPOS>BOND
     1     2     1    1
     2     2     3    1
     3     3     4    2
     4     4     5    1
     5     5     6    2
     6     5     7    1
     7     7     8    2
     8     8     9    1
     9     9    10    1
    10    11    10    1
    11    11    12    1
    12    12    13    1
    13    13    14    1
    14    14    15    1
    15    14    16    1
    16    16    17    1
    17    16    28    1
    18    28    29    2
    19    28    30    1
    20    30    31    1
    21    16    18    1
    22    18    19    1
    23    18    20    1
    24    20    21    1
    25    21    22    1
    26    21    23    1
    27    23    24    1
    28     8     2    1
    29    23    11    1
    30    23     2    1
    31    18    12    1
    32    15    25    1
    33    17    26    1
    34    31    32    1
    35    22    27    1
@<TRIPOS>MOLECULE
*****
 32 35 0 0 0
SMALL
GASTEIGER

@<TRIPOS>ATOM
      1 C         -10.7709   -3.0801   17.8559 C.3     1  UNL1        0.0112
      2 C         -11.4204   -4.2850   18.4693 C.3     1  UNL1        0.0638
      3 C         -10.0703   -4.4062   17.8271 C.2     1  UNL1       -0.0171
      4 C          -9.3698   -5.7322   17.7983 C.2     1  UNL1        0.0378
      5 C         -10.0194   -6.9371   18.4118 C.2     1  UNL1        0.1948
      6 O          -9.3188   -8.2631   18.3829 O.2     1  UNL1       -0.2866
      7 C         -11.3695   -6.8159   19.0540 C.2     1  UNL1        0.0339
      8 C         -12.0700   -5.4899   19.0828 C.2     1  UNL1       -0.0354
      9 C         -13.4202   -5.3686   19.7251 C.3     1  UNL1        0.0226
     10 C         -14.1207   -4.0426   19.7538 C.3     1  UNL1        0.0071
     11 C         -13.4711   -2.8377   19.1404 C.3     1  UNL1        0.0335
     12 C         -14.1717   -1.5117   19.1692 C.3     1  UNL1        0.0079
     13 C         -15.4984   -1.0893   19.7272 C.3     1  UNL1        0.0323
     14 C         -15.6688    0.3765   19.4586 C.3     1  UNL1        0.1416
     15 O         -16.8527    1.2121   19.8461 O.3     1  UNL1       -0.3816
     16 C         -14.4473    0.8601   18.7346 C.3     1  UNL1        0.1657
     17 O         -13.4800    1.7681   18.0347 O.3     1  UNL1       -0.3773
     18 C         -13.5221   -0.3068   18.5557 C.3     1  UNL1        0.0339
     19 C         -12.8519    0.8833   17.9356 C.3     1  UNL1        0.0029
     20 C         -12.1719   -0.4280   17.9135 C.3     1  UNL1        0.0347
     21 C         -11.4714   -1.7540   17.8847 C.3     1  UNL1        0.1409
     22 O         -10.1213   -1.8753   17.2424 O.3     1  UNL1       -0.3817
     23 C         -12.1210   -2.9589   18.4981 C.3     1  UNL1        0.1644
     24 F         -12.7706   -4.1638   19.1116 F       1  UNL1       -0.2369
     25 H         -17.5040    0.6576   20.3036 H       1  UNL1        0.2105
     26 H         -13.8460    2.6658   18.0004 H       1  UNL1        0.2109
     27 H          -9.8123   -2.7923   17.3098 H       1  UNL1        0.2104
     28 C         -15.1479    2.1862   18.7634 C.2     1  UNL1        0.2061
     29 O         -14.9701    3.1031   19.9372 O.2     1  UNL1       -0.2909
     30 C         -16.0263    2.5954   17.6184 C.3     1  UNL1        0.2045
     31 O         -15.7879    2.0283   16.2504 O.3     1  UNL1       -0.3749
     32 H         -14.9315    2.3382   15.9167 H       1  UNL1        0.2110
@<TRIPOS>BOND
     1     2     1    1
     2     2     3    1
     3     3     4    2
     4     4     5    1
     5     5     6    2
     6     5     7    1
     7     7     8    2
     8     8     9    1
     9     9    10    1
    10    11    10    1
    11    11    12    1
    12    12    13    1
    13    13    14    1
    14    14    15    1
    15    14    16    1
    16    16    17    1
    17    16    28    1
    18    28    29    2
    19    28    30    1
    20    30    31    1
    21    16    18    1
    22    18    19    1
    23    18    20    1
    24    20    21    1
    25    21    22    1
    26    21    23    1
    27    23    24    1
    28     8     2    1
    29    23    11    1
    30    23     2    1
    31    18    12    1
    32    15    25    1
    33    17    26    1
    34    31    32    1
    35    22    27    1
@<TRIPOS>MOLECULE
*****
 32 35 0 0 0
SMALL
GASTEIGER

@<TRIPOS>ATOM
      1 C         -15.4156   -1.9652   19.9812 C.3     1  UNL1        0.0112
      2 C         -14.9588   -0.6606   19.3985 C.3     1  UNL1        0.0638
      3 C         -16.2737   -0.7422   20.1158 C.2     1  UNL1       -0.0171
      4 C         -17.1317    0.4807   20.2504 C.2     1  UNL1        0.0378
      5 C         -16.6749    1.7852   19.6677 C.2     1  UNL1        0.1948
      6 O         -17.5330    3.0082   19.8023 O.2     1  UNL1       -0.2866
      7 C         -15.3601    1.8669   18.9504 C.2     1  UNL1        0.0339
      8 C         -14.5021    0.6439   18.8158 C.2     1  UNL1       -0.0354
      9 C         -13.1872    0.7255   18.0985 C.3     1  UNL1        0.0226
     10 C         -12.3291   -0.4974   17.9639 C.3     1  UNL1        0.0071
     11 C         -12.7859   -1.8020   18.5465 C.3     1  UNL1        0.0335
     12 C         -11.9278   -3.0250   18.4119 C.3     1  UNL1        0.0079
     13 C         -10.5936   -3.2485   17.7641 C.3     1  UNL1        0.0323
     14 C         -10.2257   -4.6913   17.9464 C.3     1  UNL1        0.1416
     15 O          -8.9712   -5.3502   17.4545 O.3     1  UNL1       -0.3816
     16 C         -11.3327   -5.3593   18.7069 C.3     1  UNL1        0.1657
     17 O         -12.1363   -6.4142   19.4079 O.3     1  UNL1       -0.3773
     18 C         -12.3846   -4.3295   18.9946 C.3     1  UNL1        0.0339
     19 C         -12.8633   -5.6223   19.5858 C.3     1  UNL1        0.0029
     20 C         -13.6995   -4.4111   19.7119 C.3     1  UNL1        0.0347
     21 C         -14.5575   -3.1881   19.8465 C.3     1  UNL1        0.1409
     22 O         -15.8724   -3.2697   20.5638 O.3     1  UNL1       -0.3817
     23 C         -14.1007   -1.8836   19.2638 C.3     1  UNL1        0.1644
     24 F         -13.6439   -0.5791   18.6812 F       1  UNL1       -0.2369
     25 H          -8.4223   -4.6969   16.9933 H       1  UNL1        0.2105
     26 H         -11.6594   -7.2583   19.3761 H       1  UNL1        0.2109
     27 H         -16.2971   -2.3976   20.5607 H       1  UNL1        0.2104
     28 C         -10.4746   -6.5823   18.5722 C.2     1  UNL1        0.2061
     29 O          -9.2983   -6.7770   19.4824 O.2     1  UNL1       -0.2909
     30 C         -10.7928   -7.6104   17.5274 C.3     1  UNL1        0.2045
     31 O          -9.9575   -8.8514   17.4175 O.3     1  UNL1       -0.3749
     32 H          -9.0586   -8.6128   17.1419 H       1  UNL1        0.2110
@<TRIPOS>BOND
     1     2     1    1
     2     2     3    1
     3     3     4    2
     4     4     5    1
     5     5     6    2
     6     5     7    1
     7     7     8    2
     8     8     9    1
     9     9    10    1
    10    11    10    1
    11    11    12    1
    12    12    13    1
    13    13    14    1
    14    14    15    1
    15    14    16    1
    16    16    17    1
    17    16    28    1
    18    28    29    2
    19    28    30    1
    20    30    31    1
    21    16    18    1
    22    18    19    1
    23    18    20    1
    24    20    21    1
    25    21    22    1
    26    21    23    1
    27    23    24    1
    28     8     2    1
    29    23    11    1
    30    23     2    1
    31    18    12    1
    32    15    25    1
    33    17    26    1
    34    31    32    1
    35    22    27    1
@<TRIPOS>MOLECULE
*****
 32 35 0 0 0
SMALL
GASTEIGER

@<TRIPOS>ATOM
      1 C         -12.1708   -3.4832   17.9839 C.3     1  UNL1        0.0112
      2 C         -13.1294   -2.3315   18.0521 C.3     1  UNL1        0.0638
      3 C         -11.6822   -2.0854   17.7442 C.2     1  UNL1       -0.0171
      4 C         -11.1935   -0.6877   17.5045 C.2     1  UNL1        0.0378
      5 C         -12.1522    0.4640   17.5727 C.2     1  UNL1        0.1948
      6 O         -11.6635    1.8618   17.3330 O.2     1  UNL1       -0.2866
      7 C         -13.5994    0.2179   17.8805 C.2     1  UNL1        0.0339
      8 C         -14.0881   -1.1798   18.1202 C.2     1  UNL1       -0.0354
      9 C         -15.5354   -1.4259   18.4281 C.3     1  UNL1        0.0226
     10 C         -16.0240   -2.8237   18.6678 C.3     1  UNL1        0.0071
     11 C         -15.0654   -3.9754   18.5996 C.3     1  UNL1        0.0335
     12 C         -15.5541   -5.3732   18.8394 C.3     1  UNL1        0.0079
     13 C         -16.9133   -5.9199   19.1611 C.3     1  UNL1        0.0323
     14 C         -16.7947   -7.4095   19.2918 C.3     1  UNL1        0.1416
     15 O         -17.9124   -8.3585   19.6079 O.3     1  UNL1       -0.3816
     16 C         -15.3622   -7.7833   19.0508 C.3     1  UNL1        0.1657
     17 O         -14.1186   -8.6072   18.8932 O.3     1  UNL1       -0.3773
     18 C         -14.5954   -6.5248   18.7712 C.3     1  UNL1        0.0339
     19 C         -13.6173   -7.6597   18.6975 C.3     1  UNL1        0.0029
     20 C         -13.1481   -6.2787   18.4633 C.3     1  UNL1        0.0347
     21 C         -12.6595   -4.8810   18.2236 C.3     1  UNL1        0.1409
     22 O         -11.2121   -4.6348   17.9158 O.3     1  UNL1       -0.3817
     23 C         -13.6181   -3.7293   18.2918 C.3     1  UNL1        0.1644
     24 F         -14.5768   -2.5776   18.3600 F       1  UNL1       -0.2369
     25 H         -18.7378   -7.8610   19.7176 H       1  UNL1        0.2105
     26 H         -14.3314   -9.5435   19.0314 H       1  UNL1        0.2109
     27 H         -11.0656   -3.6844   17.7890 H       1  UNL1        0.2104
     28 C         -15.8509   -9.1811   19.2905 C.2     1  UNL1        0.2061
     29 O         -16.1428   -9.6444   20.6869 O.2     1  UNL1       -0.2909
     30 C         -16.0476  -10.1155   18.1337 C.3     1  UNL1        0.2045
     31 O         -15.1421  -11.2991   17.9632 O.3     1  UNL1       -0.3749
     32 H         -14.2417  -10.9925   17.7729 H       1  UNL1        0.2110
@<TRIPOS>BOND
     1     2     1    1
     2     2     3    1
     3     3     4    2
     4     4     5    1
     5     5     6    2
     6     5     7    1
     7     7     8    2
     8     8     9    1
     9     9    10    1
    10    11    10    1
    11    11    12    1
    12    12    13    1
    13    13    14    1
    14    14    15    1
    15    14    16    1
    16    16    17    1
    17    16    28    1
    18    28    29    2
    19    28    30    1
    20    30    31    1
    21    16    18    1
    22    18    19    1
    23    18    20    1
    24    20    21    1
    25    21    22    1
    26    21    23    1
    27    23    24    1
    28     8     2    1
    29    23    11    1
    30    23     2    1
    31    18    12    1
    32    15    25    1
    33    17    26    1
    34    31    32    1
    35    22    27    1
@<TRIPOS>MOLECULE
*****
 32 35 0 0 0
SMALL
GASTEIGER

@<TRIPOS>ATOM
      1 C           7.6748   -6.3403   27.6735 C.3     1  UNL1        0.0112
      2 C           7.5246   -5.5509   26.4069 C.3     1  UNL1        0.0638
      3 C           8.0301   -6.9622   26.3555 C.2     1  UNL1       -0.0171
      4 C           8.3853   -7.5840   25.0376 C.2     1  UNL1        0.0378
      5 C           8.2351   -6.7946   23.7710 C.2     1  UNL1        0.1948
      6 O           8.5904   -7.4166   22.4530 O.2     1  UNL1       -0.2866
      7 C           7.7296   -5.3833   23.8223 C.2     1  UNL1        0.0339
      8 C           7.3744   -4.7615   25.1403 C.2     1  UNL1       -0.0354
      9 C           6.8689   -3.3501   25.1917 C.3     1  UNL1        0.0226
     10 C           6.5136   -2.7282   26.5096 C.3     1  UNL1        0.0071
     11 C           6.6639   -3.5176   27.7762 C.3     1  UNL1        0.0335
     12 C           6.3086   -2.8957   29.0942 C.3     1  UNL1        0.0079
     13 C           5.7896   -1.5354   29.4547 C.3     1  UNL1        0.0323
     14 C           5.6190   -1.4840   30.9441 C.3     1  UNL1        0.1416
     15 O           5.1220   -0.3101   31.7346 O.3     1  UNL1       -0.3816
     16 C           6.0326   -2.8126   31.5040 C.3     1  UNL1        0.1657
     17 O           6.3216   -3.9108   32.4842 O.3     1  UNL1       -0.3773
     18 C           6.4588   -3.6851   30.3608 C.3     1  UNL1        0.0339
     19 C           6.6177   -4.4950   31.6134 C.3     1  UNL1        0.0029
     20 C           6.9643   -5.0965   30.3094 C.3     1  UNL1        0.0347
     21 C           7.3196   -5.7183   28.9915 C.3     1  UNL1        0.1409
     22 O           7.8251   -7.1297   28.9400 O.3     1  UNL1       -0.3817
     23 C           7.1693   -4.9289   27.7249 C.3     1  UNL1        0.1644
     24 F           7.0191   -4.1395   26.4583 F       1  UNL1       -0.2369
     25 H           4.9233    0.4242   31.1328 H       1  UNL1        0.2105
     26 H           6.1209   -3.6037   33.3822 H       1  UNL1        0.2109
     27 H           8.0062   -7.3749   28.0192 H       1  UNL1        0.2104
     28 C           5.6774   -2.1907   32.8220 C.2     1  UNL1        0.2061
     29 O           6.7080   -1.4147   33.5872 O.2     1  UNL1       -0.2909
     30 C           4.2914   -2.3448   33.3747 C.3     1  UNL1        0.2045
     31 O           3.7428   -3.7127   33.6532 O.3     1  UNL1       -0.3749
     32 H           3.6393   -4.1957   32.8183 H       1  UNL1        0.2110
@<TRIPOS>BOND
     1     2     1    1
     2     2     3    1
     3     3     4    2
     4     4     5    1
     5     5     6    2
     6     5     7    1
     7     7     8    2
     8     8     9    1
     9     9    10    1
    10    11    10    1
    11    11    12    1
    12    12    13    1
    13    13    14    1
    14    14    15    1
    15    14    16    1
    16    16    17    1
    17    16    28    1
    18    28    29    2
    19    28    30    1
    20    30    31    1
    21    16    18    1
    22    18    19    1
    23    18    20    1
    24    20    21    1
    25    21    22    1
    26    21    23    1
    27    23    24    1
    28     8     2    1
    29    23    11    1
    30    23     2    1
    31    18    12    1
    32    15    25    1
    33    17    26    1
    34    31    32    1
    35    22    27    1
@<TRIPOS>MOLECULE
*****
 32 35 0 0 0
SMALL
GASTEIGER

@<TRIPOS>ATOM
      1 C           2.4642    2.7940   35.0526 C.3     1  UNL1        0.0112
      2 C           3.4490    1.7978   35.5889 C.3     1  UNL1        0.0638
      3 C           2.9992    2.9438   36.4459 C.2     1  UNL1       -0.0171
      4 C           3.5342    3.0935   37.8392 C.2     1  UNL1        0.0378
      5 C           4.5191    2.0973   38.3755 C.2     1  UNL1        0.1948
      6 O           5.0542    2.2471   39.7688 O.2     1  UNL1       -0.2866
      7 C           4.9689    0.9514   37.5185 C.2     1  UNL1        0.0339
      8 C           4.4339    0.8016   36.1252 C.2     1  UNL1       -0.0354
      9 C           4.8837   -0.3443   35.2682 C.3     1  UNL1        0.0226
     10 C           4.3487   -0.4941   33.8749 C.3     1  UNL1        0.0071
     11 C           3.3638    0.5021   33.3386 C.3     1  UNL1        0.0335
     12 C           2.8288    0.3523   31.9452 C.3     1  UNL1        0.0079
     13 C           3.0863   -0.6669   30.8754 C.3     1  UNL1        0.0323
     14 C           2.2606   -0.3007   29.6779 C.3     1  UNL1        0.1416
     15 O           2.2114   -1.0488   28.3786 O.3     1  UNL1       -0.3816
     16 C           1.4928    0.9449   30.0077 C.3     1  UNL1        0.1657
     17 O           0.5653    2.1163   29.8746 O.3     1  UNL1       -0.3773
     18 C           1.8439    1.3485   31.4089 C.3     1  UNL1        0.0339
     19 C           0.8600    2.3577   30.8955 C.3     1  UNL1        0.0029
     20 C           1.3941    2.4945   32.2660 C.3     1  UNL1        0.0347
     21 C           1.9291    2.6442   33.6593 C.3     1  UNL1        0.1409
     22 O           1.4793    3.7902   34.5163 O.3     1  UNL1       -0.3817
     23 C           2.9140    1.6480   34.1956 C.3     1  UNL1        0.1644
     24 F           3.8988    0.6518   34.7319 F       1  UNL1       -0.2369
     25 H           2.8013   -1.8174   28.4256 H       1  UNL1        0.2105
     26 H           0.1611    2.1102   28.9928 H       1  UNL1        0.2109
     27 H           1.9173    3.7393   35.3803 H       1  UNL1        0.2104
     28 C           0.9577    0.7951   28.6143 C.2     1  UNL1        0.2061
     29 O           1.7214    1.3591   27.4530 O.2     1  UNL1       -0.2909
     30 C          -0.3411    0.0814   28.3824 C.3     1  UNL1        0.2045
     31 O          -1.2184   -0.2762   29.5452 O.3     1  UNL1       -0.3749
     32 H          -0.7689   -0.9333   30.0994 H       1  UNL1        0.2110
@<TRIPOS>BOND
     1     2     1    1
     2     2     3    1
     3     3     4    2
     4     4     5    1
     5     5     6    2
     6     5     7    1
     7     7     8    2
     8     8     9    1
     9     9    10    1
    10    11    10    1
    11    11    12    1
    12    12    13    1
    13    13    14    1
    14    14    15    1
    15    14    16    1
    16    16    17    1
    17    16    28    1
    18    28    29    2
    19    28    30    1
    20    30    31    1
    21    16    18    1
    22    18    19    1
    23    18    20    1
    24    20    21    1
    25    21    22    1
    26    21    23    1
    27    23    24    1
    28     8     2    1
    29    23    11    1
    30    23     2    1
    31    18    12    1
    32    15    25    1
    33    17    26    1
    34    31    32    1
    35    22    27    1
@<TRIPOS>MOLECULE
*****
 32 35 0 0 0
SMALL
GASTEIGER

@<TRIPOS>ATOM
      1 C           1.5433    0.5709   23.8670 C.3     1  UNL1        0.0112
      2 C           0.6500    1.5291   23.1364 C.3     1  UNL1        0.0638
      3 C           0.6213    1.4709   24.6349 C.2     1  UNL1       -0.0171
      4 C          -0.3007    2.3710   25.4028 C.2     1  UNL1        0.0378
      5 C          -1.1940    3.3292   24.6722 C.2     1  UNL1        0.1948
      6 O          -2.1161    4.2292   25.4402 O.2     1  UNL1       -0.2866
      7 C          -1.1653    3.3873   23.1736 C.2     1  UNL1        0.0339
      8 C          -0.2433    2.4873   22.4057 C.2     1  UNL1       -0.0354
      9 C          -0.2145    2.5454   20.9071 C.3     1  UNL1        0.0226
     10 C           0.7075    1.6454   20.1391 C.3     1  UNL1        0.0071
     11 C           1.6008    0.6871   20.8698 C.3     1  UNL1        0.0335
     12 C           2.5228   -0.2129   20.1018 C.3     1  UNL1        0.0079
     13 C           2.7688   -0.3791   18.6315 C.3     1  UNL1        0.0323
     14 C           3.8142   -1.4400   18.4534 C.3     1  UNL1        0.1416
     15 O           4.3631   -1.9261   17.1448 O.3     1  UNL1       -0.3816
     16 C           4.2142   -1.9295   19.8137 C.3     1  UNL1        0.1657
     17 O           4.9080   -2.7037   20.8950 O.3     1  UNL1       -0.3773
     18 C           3.4162   -1.1711   20.8324 C.3     1  UNL1        0.0339
     19 C           4.2997   -2.1207   21.5859 C.3     1  UNL1        0.0029
     20 C           3.3874   -1.2293   22.3311 C.3     1  UNL1        0.0347
     21 C           2.4654   -0.3292   23.0990 C.3     1  UNL1        0.1409
     22 O           2.4366   -0.3873   24.5976 O.3     1  UNL1       -0.3817
     23 C           1.5721    0.6290   22.3683 C.3     1  UNL1        0.1644
     24 F           0.6788    1.5872   21.6377 F       1  UNL1       -0.2369
     25 H           3.9368   -1.4467   16.4173 H       1  UNL1        0.2105
     26 H           5.5369   -3.3248   20.4953 H       1  UNL1        0.2109
     27 H           1.7914    0.2542   24.9338 H       1  UNL1        0.2104
     28 C           5.1363   -2.8296   19.0457 C.2     1  UNL1        0.2061
     29 O           4.6457   -4.1564   18.5469 O.2     1  UNL1       -0.2909
     30 C           6.5488   -2.4027   18.7766 C.3     1  UNL1        0.2045
     31 O           7.0377   -2.2753   17.3643 O.3     1  UNL1       -0.3749
     32 H           7.0501   -3.1505   16.9462 H       1  UNL1        0.2110
@<TRIPOS>BOND
     1     2     1    1
     2     2     3    1
     3     3     4    2
     4     4     5    1
     5     5     6    2
     6     5     7    1
     7     7     8    2
     8     8     9    1
     9     9    10    1
    10    11    10    1
    11    11    12    1
    12    12    13    1
    13    13    14    1
    14    14    15    1
    15    14    16    1
    16    16    17    1
    17    16    28    1
    18    28    29    2
    19    28    30    1
    20    30    31    1
    21    16    18    1
    22    18    19    1
    23    18    20    1
    24    20    21    1
    25    21    22    1
    26    21    23    1
    27    23    24    1
    28     8     2    1
    29    23    11    1
    30    23     2    1
    31    18    12    1
    32    15    25    1
    33    17    26    1
    34    31    32    1
    35    22    27    1
@<TRIPOS>MOLECULE
*****
 32 35 0 0 0
SMALL
GASTEIGER

@<TRIPOS>ATOM
      1 C           3.9763   -1.2668   25.6880 C.3     1  UNL1        0.0112
      2 C           2.9952   -0.1410   25.5471 C.3     1  UNL1        0.0638
      3 C           3.5297   -0.5050   26.9005 C.2     1  UNL1       -0.0171
      4 C           3.0831    0.2567   28.1130 C.2     1  UNL1        0.0378
      5 C           2.1020    1.3826   27.9721 C.2     1  UNL1        0.1948
      6 O           1.6554    2.1444   29.1847 O.2     1  UNL1       -0.2866
      7 C           1.5674    1.7466   26.6188 C.2     1  UNL1        0.0339
      8 C           2.0140    0.9849   25.4063 C.2     1  UNL1       -0.0354
      9 C           1.4795    1.3489   24.0528 C.3     1  UNL1        0.0226
     10 C           1.9261    0.5871   22.8403 C.3     1  UNL1        0.0071
     11 C           2.9072   -0.5387   22.9812 C.3     1  UNL1        0.0335
     12 C           3.3538   -1.3005   21.7686 C.3     1  UNL1        0.0079
     13 C           3.0023   -1.1710   20.3162 C.3     1  UNL1        0.0323
     14 C           3.7662   -2.2168   19.5594 C.3     1  UNL1        0.1416
     15 O           3.7154   -2.4464   18.0779 O.3     1  UNL1       -0.3816
     16 C           4.5898   -2.9926   20.5441 C.3     1  UNL1        0.1657
     17 O           5.5429   -4.0022   21.1119 O.3     1  UNL1       -0.3773
     18 C           4.3349   -2.4264   21.9095 C.3     1  UNL1        0.0339
     19 C           5.3168   -3.5480   22.0763 C.3     1  UNL1        0.0029
     20 C           4.8695   -2.7904   23.2629 C.3     1  UNL1        0.0347
     21 C           4.4229   -2.0286   24.4754 C.3     1  UNL1        0.1409
     22 O           4.9574   -2.3927   25.8289 O.3     1  UNL1       -0.3817
     23 C           3.4417   -0.9028   24.3346 C.3     1  UNL1        0.1644
     24 F           2.4606    0.2231   24.1937 F       1  UNL1       -0.2369
     25 H           3.1063   -1.8095   17.6727 H       1  UNL1        0.2105
     26 H           5.8936   -4.5543   20.3957 H       1  UNL1        0.2109
     27 H           4.5701   -1.8067   26.4978 H       1  UNL1        0.2104
     28 C           5.0364   -3.7544   19.3315 C.2     1  UNL1        0.2061
     29 O           6.1528   -3.2240   18.4817 O.2     1  UNL1       -0.2909
     30 C           4.3665   -5.0466   18.9688 C.3     1  UNL1        0.2045
     31 O           3.5291   -5.7677   19.9830 O.3     1  UNL1       -0.3749
     32 H           4.0942   -6.0760   20.7087 H       1  UNL1        0.2110
@<TRIPOS>BOND
     1     2     1    1
     2     2     3    1
     3     3     4    2
     4     4     5    1
     5     5     6    2
     6     5     7    1
     7     7     8    2
     8     8     9    1
     9     9    10    1
    10    11    10    1
    11    11    12    1
    12    12    13    1
    13    13    14    1
    14    14    15    1
    15    14    16    1
    16    16    17    1
    17    16    28    1
    18    28    29    2
    19    28    30    1
    20    30    31    1
    21    16    18    1
    22    18    19    1
    23    18    20    1
    24    20    21    1
    25    21    22    1
    26    21    23    1
    27    23    24    1
    28     8     2    1
    29    23    11    1
    30    23     2    1
    31    18    12    1
    32    15    25    1
    33    17    26    1
    34    31    32    1
    35    22    27    1
