@<TRIPOS>MOLECULE
*****
 34 37 0 0 0
SMALL
GASTEIGER

@<TRIPOS>ATOM
      1 C          -7.0205  -20.0188   20.2652 C.3     1  UNL1        0.0071
      2 C          -8.0281  -20.4210   19.2294 C.3     1  UNL1        0.0177
      3 C          -9.3283  -19.6810   19.1210 C.3     1  UNL1        0.0721
      4 N          -9.6209  -18.5389   20.0482 N.3     1  UNL1       -0.2724
      5 C          -8.6133  -18.1367   21.0840 C.3     1  UNL1        0.0721
      6 C          -7.3131  -18.8766   21.1925 C.3     1  UNL1        0.0177
      7 C          -5.7201  -20.7587   20.3738 C.3     1  UNL1        0.0265
      8 C          -2.4254  -18.8559   21.5023 C.ar    1  UNL1        0.1445
      9 C          -3.7229  -19.6055   21.5700 C.ar    1  UNL1        0.0331
     10 C          -4.4227  -20.0091   20.3061 C.ar    1  UNL1       -0.0191
     11 C          -3.8251  -19.6630   18.9745 C.ar    1  UNL1       -0.0036
     12 C          -2.5276  -18.9133   18.9068 C.ar    1  UNL1        0.0094
     13 C          -1.8277  -18.5098   20.1707 C.ar    1  UNL1        0.0684
     14 BR         -0.5303  -17.7601   20.1030 Br      1  UNL1       -0.0458
     15 O          -1.7256  -18.4523   22.7661 O.3     1  UNL1       -0.4723
     16 C          -2.3958  -17.5175   23.7289 C.3     1  UNL1        0.2373
     17 C          -3.8819  -17.5795   23.9231 C.3     1  UNL1        0.1894
     18 C          -5.1523  -15.3133   23.9146 C.3     1  UNL1        0.1743
     19 O          -4.7710  -16.5913   23.2282 O.3     1  UNL1       -0.3471
     20 C         -10.9212  -17.7989   19.9397 C.3     1  UNL1        0.0768
     21 C         -11.7516  -17.5580   21.1654 C.3     1  UNL1        0.0437
     22 C         -11.1357  -17.6910   22.5267 C.ar    1  UNL1       -0.0205
     23 C         -11.4258  -18.8997   23.3662 C.ar    1  UNL1       -0.0011
     24 C         -10.8100  -19.0327   24.7275 C.ar    1  UNL1        0.0373
     25 C          -9.9040  -17.9570   25.2491 C.ar    1  UNL1        0.1487
     26 O          -9.2881  -18.0901   26.6104 O.2     1  UNL1       -0.4470
     27 C          -8.3821  -17.0144   27.1321 C.ar    1  UNL1        0.2192
     28 C          -8.0920  -15.8057   26.2924 C.ar    1  UNL1        0.2113
     29 O          -7.1860  -14.7300   26.8141 O.3     1  UNL1       -0.5007
     30 C          -8.7079  -15.6727   24.9312 C.ar    1  UNL1        0.2351
     31 O          -8.4178  -14.4640   24.0916 O.2     1  UNL1       -0.2831
     32 C          -9.6139  -16.7484   24.4096 C.ar    1  UNL1        0.0763
     33 C         -10.2298  -16.6154   23.0483 C.ar    1  UNL1        0.0021
     34 H          -6.8013  -14.8131   27.6644 H       1  UNL1        0.2924
@<TRIPOS>BOND
     1    18    19    1
     2    19    17    1
     3    17    16    1
     4    16    15    1
     5    15     8    1
     6     8     9   ar
     7     9    10   ar
     8    10     7    1
     9     7     1    1
    10     1     2    1
    11     2     3    1
    12     3     4    1
    13     4    20    1
    14    20    21    1
    15    21    22    1
    16    22    23   ar
    17    23    24   ar
    18    24    25   ar
    19    25    26   ar
    20    26    27   ar
    21    27    28   ar
    22    28    29    1
    23    28    30   ar
    24    30    31    2
    25    30    32   ar
    26    32    33   ar
    27     4     5    1
    28     5     6    1
    29    10    11   ar
    30    11    12   ar
    31    12    13   ar
    32    13    14    1
    33    13     8   ar
    34     6     1    1
    35    33    22   ar
    36    32    25   ar
    37    29    34    1
@<TRIPOS>MOLECULE
*****
 34 37 0 0 0
SMALL
GASTEIGER

@<TRIPOS>ATOM
      1 C          -6.9574  -19.6916   20.2389 C.3     1  UNL1        0.0071
      2 C          -5.9552  -18.9543   19.4011 C.3     1  UNL1        0.0177
      3 C          -4.5326  -18.8386   19.8621 C.3     1  UNL1        0.0721
      4 N          -4.1121  -19.4602   21.1608 N.3     1  UNL1       -0.2724
      5 C          -5.1142  -20.1976   21.9986 C.3     1  UNL1        0.0721
      6 C          -6.5369  -20.3133   21.5376 C.3     1  UNL1        0.0177
      7 C          -8.3802  -19.8073   19.7779 C.3     1  UNL1        0.0265
      8 C         -10.2775  -17.4067   22.3051 C.ar    1  UNL1        0.1445
      9 C          -9.2235  -18.2968   21.7162 C.ar    1  UNL1        0.0331
     10 C          -9.4341  -18.9173   20.3669 C.ar    1  UNL1       -0.0191
     11 C         -10.6987  -18.6478   19.6066 C.ar    1  UNL1       -0.0036
     12 C         -11.7528  -17.7577   20.1955 C.ar    1  UNL1        0.0094
     13 C         -11.5421  -17.1372   21.5448 C.ar    1  UNL1        0.0684
     14 BR        -12.5961  -16.2471   22.1338 Br      1  UNL1       -0.0458
     15 O         -10.0668  -16.7862   23.6544 O.3     1  UNL1       -0.4723
     16 C          -9.7330  -17.6509   24.8338 C.3     1  UNL1        0.2373
     17 C         -10.5436  -18.8813   25.1150 C.3     1  UNL1        0.1894
     18 C          -9.2815  -20.9327   24.1409 C.3     1  UNL1        0.1743
     19 O          -9.8590  -20.2007   25.3159 O.3     1  UNL1       -0.3471
     20 C          -2.6893  -19.3445   21.6218 C.3     1  UNL1        0.0768
     21 C          -2.2591  -18.1617   22.4378 C.3     1  UNL1        0.0437
     22 C          -3.1399  -17.6499   23.5390 C.ar    1  UNL1       -0.0205
     23 C          -2.7765  -17.9080   24.9712 C.ar    1  UNL1       -0.0011
     24 C          -3.6572  -17.3963   26.0723 C.ar    1  UNL1        0.0373
     25 C          -4.9013  -16.6265   25.7411 C.ar    1  UNL1        0.1487
     26 O          -5.7820  -16.1147   26.8423 O.2     1  UNL1       -0.4470
     27 C          -7.0261  -15.3449   26.5112 C.ar    1  UNL1        0.2192
     28 C          -7.3894  -15.0868   25.0789 C.ar    1  UNL1        0.2113
     29 O          -8.6335  -14.3170   24.7477 O.3     1  UNL1       -0.5007
     30 C          -6.5087  -15.5986   23.9778 C.ar    1  UNL1        0.2351
     31 O          -6.8721  -15.3405   22.5456 O.2     1  UNL1       -0.2831
     32 C          -5.2647  -16.3684   24.3089 C.ar    1  UNL1        0.0763
     33 C          -4.3840  -16.8801   23.2078 C.ar    1  UNL1        0.0021
     34 H          -9.1837  -13.9974   25.4356 H       1  UNL1        0.2924
@<TRIPOS>BOND
     1    18    19    1
     2    19    17    1
     3    17    16    1
     4    16    15    1
     5    15     8    1
     6     8     9   ar
     7     9    10   ar
     8    10     7    1
     9     7     1    1
    10     1     2    1
    11     2     3    1
    12     3     4    1
    13     4    20    1
    14    20    21    1
    15    21    22    1
    16    22    23   ar
    17    23    24   ar
    18    24    25   ar
    19    25    26   ar
    20    26    27   ar
    21    27    28   ar
    22    28    29    1
    23    28    30   ar
    24    30    31    2
    25    30    32   ar
    26    32    33   ar
    27     4     5    1
    28     5     6    1
    29    10    11   ar
    30    11    12   ar
    31    12    13   ar
    32    13    14    1
    33    13     8   ar
    34     6     1    1
    35    33    22   ar
    36    32    25   ar
    37    29    34    1
@<TRIPOS>MOLECULE
*****
 34 37 0 0 0
SMALL
GASTEIGER

@<TRIPOS>ATOM
      1 C           7.0019   -3.9614   23.3840 C.3     1  UNL1        0.0071
      2 C           7.7938   -4.0804   22.1157 C.3     1  UNL1        0.0177
      3 C           7.0931   -4.0631   20.7896 C.3     1  UNL1        0.0721
      4 N           5.6004   -3.9267   20.7318 N.3     1  UNL1       -0.2724
      5 C           4.8085   -3.8076   22.0002 C.3     1  UNL1        0.0721
      6 C           5.5092   -3.8250   23.3263 C.3     1  UNL1        0.0177
      7 C           7.7026   -3.9787   24.7102 C.3     1  UNL1        0.0265
      8 C           7.9935   -6.5784   27.6946 C.ar    1  UNL1        0.1445
      9 C           7.8253   -5.2861   26.9520 C.ar    1  UNL1        0.0331
     10 C           7.8708   -5.2711   25.4528 C.ar    1  UNL1       -0.0191
     11 C           8.0844   -6.5485   24.6961 C.ar    1  UNL1       -0.0036
     12 C           8.2525   -7.8410   25.4387 C.ar    1  UNL1        0.0094
     13 C           8.2071   -7.8559   26.9379 C.ar    1  UNL1        0.0684
     14 BR          8.3752   -9.1483   27.6805 Br      1  UNL1       -0.0458
     15 O           7.9480   -6.5934   29.1938 O.3     1  UNL1       -0.4723
     16 C           6.9680   -5.7231   29.9232 C.3     1  UNL1        0.2373
     17 C           7.4557   -4.7306   30.9366 C.3     1  UNL1        0.1894
     18 C           6.0054   -3.1042   32.3512 C.3     1  UNL1        0.1743
     19 O           6.6407   -4.4500   32.1642 O.3     1  UNL1       -0.3471
     20 C           4.8996   -3.9093   19.4056 C.3     1  UNL1        0.0768
     21 C           3.5174   -3.3374   19.2952 C.3     1  UNL1        0.0437
     22 C           3.3307   -1.8730   19.0286 C.ar    1  UNL1       -0.0205
     23 C           4.3336   -1.1280   18.1986 C.ar    1  UNL1       -0.0011
     24 C           4.1469    0.3363   17.9320 C.ar    1  UNL1        0.0373
     25 C           2.9572    1.0554   18.4955 C.ar    1  UNL1        0.1487
     26 O           2.7705    2.5198   18.2289 O.2     1  UNL1       -0.4470
     27 C           1.5809    3.2389   18.7924 C.ar    1  UNL1        0.2192
     28 C           0.5779    2.4938   19.6224 C.ar    1  UNL1        0.2113
     29 O          -0.6118    3.2130   20.1859 O.3     1  UNL1       -0.5007
     30 C           0.7646    1.0296   19.8890 C.ar    1  UNL1        0.2351
     31 O          -0.2383    0.2845   20.7190 O.2     1  UNL1       -0.2831
     32 C           1.9543    0.3104   19.3255 C.ar    1  UNL1        0.0763
     33 C           2.1410   -1.1539   19.5920 C.ar    1  UNL1        0.0021
     34 H          -0.7284    4.1276   20.0194 H       1  UNL1        0.2924
@<TRIPOS>BOND
     1    18    19    1
     2    19    17    1
     3    17    16    1
     4    16    15    1
     5    15     8    1
     6     8     9   ar
     7     9    10   ar
     8    10     7    1
     9     7     1    1
    10     1     2    1
    11     2     3    1
    12     3     4    1
    13     4    20    1
    14    20    21    1
    15    21    22    1
    16    22    23   ar
    17    23    24   ar
    18    24    25   ar
    19    25    26   ar
    20    26    27   ar
    21    27    28   ar
    22    28    29    1
    23    28    30   ar
    24    30    31    2
    25    30    32   ar
    26    32    33   ar
    27     4     5    1
    28     5     6    1
    29    10    11   ar
    30    11    12   ar
    31    12    13   ar
    32    13    14    1
    33    13     8   ar
    34     6     1    1
    35    33    22   ar
    36    32    25   ar
    37    29    34    1
@<TRIPOS>MOLECULE
*****
 34 37 0 0 0
SMALL
GASTEIGER

@<TRIPOS>ATOM
      1 C           0.7842    0.9765   20.7541 C.3     1  UNL1        0.0071
      2 C           1.4603    0.5990   22.0387 C.3     1  UNL1        0.0177
      3 C           1.1474    1.3490   23.2995 C.3     1  UNL1        0.0721
      4 N           0.1584    2.4765   23.2756 N.3     1  UNL1       -0.2724
      5 C          -0.5178    2.8541   21.9910 C.3     1  UNL1        0.0721
      6 C          -0.2049    2.1041   20.7302 C.3     1  UNL1        0.0177
      7 C           1.0970    0.2265   19.4933 C.3     1  UNL1        0.0265
      8 C           4.5362   -0.8438   17.8271 C.ar    1  UNL1        0.1445
      9 C           3.1663   -0.9315   18.4316 C.ar    1  UNL1        0.0331
     10 C           2.4670    0.3143   18.8887 C.ar    1  UNL1       -0.0191
     11 C           3.1377    1.6478   18.7414 C.ar    1  UNL1       -0.0036
     12 C           4.5077    1.7356   18.1369 C.ar    1  UNL1        0.0094
     13 C           5.2070    0.4898   17.6797 C.ar    1  UNL1        0.0684
     14 BR          6.5769    0.5776   17.0752 Br      1  UNL1       -0.0458
     15 O           5.2355   -2.0896   17.3699 O.3     1  UNL1       -0.4723
     16 C           5.7201   -3.0901   18.3768 C.3     1  UNL1        0.2373
     17 C           4.8647   -4.2694   18.7339 C.3     1  UNL1        0.1894
     18 C           4.5023   -3.4071   21.1578 C.3     1  UNL1        0.1743
     19 O           4.0656   -4.2594   20.0033 O.3     1  UNL1       -0.3471
     20 C          -0.1545    3.2265   24.5365 C.3     1  UNL1        0.0768
     21 C          -1.2030    2.7093   25.4762 C.3     1  UNL1        0.0437
     22 C          -2.5765    3.3122   25.4728 C.ar    1  UNL1       -0.0205
     23 C          -3.1516    3.8752   26.7386 C.ar    1  UNL1       -0.0011
     24 C          -4.5251    4.4781   26.7352 C.ar    1  UNL1        0.0373
     25 C          -5.3235    4.5180   25.4659 C.ar    1  UNL1        0.1487
     26 O          -6.6970    5.1210   25.4625 O.2     1  UNL1       -0.4470
     27 C          -7.4954    5.1609   24.1933 C.ar    1  UNL1        0.2192
     28 C          -6.9202    4.5979   22.9274 C.ar    1  UNL1        0.2113
     29 O          -7.7186    4.6378   21.6582 O.3     1  UNL1       -0.5007
     30 C          -5.5467    3.9950   22.9309 C.ar    1  UNL1        0.2351
     31 O          -4.9717    3.4320   21.6651 O.2     1  UNL1       -0.2831
     32 C          -4.7484    3.9551   24.2001 C.ar    1  UNL1        0.0763
     33 C          -3.3749    3.3522   24.2036 C.ar    1  UNL1        0.0021
     34 H          -8.5766    5.0144   21.6560 H       1  UNL1        0.2924
@<TRIPOS>BOND
     1    18    19    1
     2    19    17    1
     3    17    16    1
     4    16    15    1
     5    15     8    1
     6     8     9   ar
     7     9    10   ar
     8    10     7    1
     9     7     1    1
    10     1     2    1
    11     2     3    1
    12     3     4    1
    13     4    20    1
    14    20    21    1
    15    21    22    1
    16    22    23   ar
    17    23    24   ar
    18    24    25   ar
    19    25    26   ar
    20    26    27   ar
    21    27    28   ar
    22    28    29    1
    23    28    30   ar
    24    30    31    2
    25    30    32   ar
    26    32    33   ar
    27     4     5    1
    28     5     6    1
    29    10    11   ar
    30    11    12   ar
    31    12    13   ar
    32    13    14    1
    33    13     8   ar
    34     6     1    1
    35    33    22   ar
    36    32    25   ar
    37    29    34    1
@<TRIPOS>MOLECULE
*****
 34 37 0 0 0
SMALL
GASTEIGER

@<TRIPOS>ATOM
      1 C          -7.3024  -19.8075   20.4425 C.3     1  UNL1        0.0071
      2 C          -6.3413  -19.0799   19.5500 C.3     1  UNL1        0.0177
      3 C          -4.9258  -18.8586   19.9942 C.3     1  UNL1        0.0721
      4 N          -4.4714  -19.3650   21.3311 N.3     1  UNL1       -0.2724
      5 C          -5.4326  -20.0926   22.2236 C.3     1  UNL1        0.0721
      6 C          -6.8480  -20.3139   21.7794 C.3     1  UNL1        0.0177
      7 C          -8.7180  -20.0288   19.9983 C.3     1  UNL1        0.0265
      8 C         -11.7217  -17.6530   21.0388 C.ar    1  UNL1        0.1445
      9 C         -10.5883  -18.2437   20.2538 C.ar    1  UNL1        0.0331
     10 C          -9.8514  -19.4381   20.7833 C.ar    1  UNL1       -0.0191
     11 C         -10.2481  -20.0419   22.0979 C.ar    1  UNL1       -0.0036
     12 C         -11.3816  -19.4512   22.8830 C.ar    1  UNL1        0.0094
     13 C         -12.1184  -18.2567   22.3534 C.ar    1  UNL1        0.0684
     14 BR        -13.2519  -17.6661   23.1385 Br      1  UNL1       -0.0458
     15 O         -12.4585  -16.4586   20.5092 O.3     1  UNL1       -0.4723
     16 C         -12.0983  -15.8884   19.1695 C.3     1  UNL1        0.2373
     17 C         -10.8514  -15.0692   19.0137 C.3     1  UNL1        0.1894
     18 C          -8.8728  -13.7904   20.1090 C.3     1  UNL1        0.1743
     19 O          -9.9756  -14.8030   20.2019 O.3     1  UNL1       -0.3471
     20 C          -3.0559  -19.1437   21.7753 C.3     1  UNL1        0.0768
     21 C          -2.7409  -18.0616   22.7652 C.3     1  UNL1        0.0437
     22 C          -3.8439  -17.4290   23.5611 C.ar    1  UNL1       -0.0205
     23 C          -3.6000  -17.0119   24.9811 C.ar    1  UNL1       -0.0011
     24 C          -4.7029  -16.3793   25.7769 C.ar    1  UNL1        0.0373
     25 C          -6.0497  -16.1639   25.1528 C.ar    1  UNL1        0.1487
     26 O          -7.1527  -15.5313   25.9487 O.2     1  UNL1       -0.4470
     27 C          -8.4995  -15.3159   25.3245 C.ar    1  UNL1        0.2192
     28 C          -8.7434  -15.7331   23.9044 C.ar    1  UNL1        0.2113
     29 O         -10.0903  -15.5176   23.2803 O.3     1  UNL1       -0.5007
     30 C          -7.6405  -16.3656   23.1086 C.ar    1  UNL1        0.2351
     31 O          -7.8845  -16.7828   21.6886 O.2     1  UNL1       -0.2831
     32 C          -6.2937  -16.5810   23.7328 C.ar    1  UNL1        0.0763
     33 C          -5.1907  -17.2136   22.9370 C.ar    1  UNL1        0.0021
     34 H         -10.7792  -15.1225   23.7774 H       1  UNL1        0.2924
@<TRIPOS>BOND
     1    18    19    1
     2    19    17    1
     3    17    16    1
     4    16    15    1
     5    15     8    1
     6     8     9   ar
     7     9    10   ar
     8    10     7    1
     9     7     1    1
    10     1     2    1
    11     2     3    1
    12     3     4    1
    13     4    20    1
    14    20    21    1
    15    21    22    1
    16    22    23   ar
    17    23    24   ar
    18    24    25   ar
    19    25    26   ar
    20    26    27   ar
    21    27    28   ar
    22    28    29    1
    23    28    30   ar
    24    30    31    2
    25    30    32   ar
    26    32    33   ar
    27     4     5    1
    28     5     6    1
    29    10    11   ar
    30    11    12   ar
    31    12    13   ar
    32    13    14    1
    33    13     8   ar
    34     6     1    1
    35    33    22   ar
    36    32    25   ar
    37    29    34    1
@<TRIPOS>MOLECULE
*****
 34 37 0 0 0
SMALL
GASTEIGER

@<TRIPOS>ATOM
      1 C           4.6763   -3.4460   20.5878 C.3     1  UNL1        0.0071
      2 C           6.0040   -3.8388   20.0109 C.3     1  UNL1        0.0177
      3 C           7.1143   -4.2808   20.9174 C.3     1  UNL1        0.0721
      4 N           6.8970   -4.3299   22.4007 N.3     1  UNL1       -0.2724
      5 C           5.5692   -3.9371   22.9776 C.3     1  UNL1        0.0721
      6 C           4.4589   -3.4952   22.0711 C.3     1  UNL1        0.0177
      7 C           3.5658   -3.0040   19.6813 C.3     1  UNL1        0.0265
      8 C           2.2901    0.7390   20.0163 C.ar    1  UNL1        0.1445
      9 C           2.4919   -0.7202   20.2987 C.ar    1  UNL1        0.0331
     10 C           3.3641   -1.5447   19.3989 C.ar    1  UNL1       -0.0191
     11 C           4.0344   -0.9099   18.2168 C.ar    1  UNL1       -0.0036
     12 C           3.8327    0.5494   17.9343 C.ar    1  UNL1        0.0094
     13 C           2.9606    1.3739   18.8341 C.ar    1  UNL1        0.0684
     14 BR          2.7588    2.8331   18.5517 Br      1  UNL1       -0.0458
     15 O           1.4180    1.5635   20.9161 O.3     1  UNL1       -0.4723
     16 C          -0.0744    1.4335   20.8390 C.3     1  UNL1        0.2373
     17 C          -0.9103    2.6129   20.4386 C.3     1  UNL1        0.1894
     18 C          -3.4084    3.3141   20.3060 C.3     1  UNL1        0.1743
     19 O          -2.2270    2.8622   21.1123 O.3     1  UNL1       -0.3471
     20 C           8.0074   -4.7719   23.3072 C.3     1  UNL1        0.0768
     21 C           7.9871   -6.1489   23.9018 C.3     1  UNL1        0.0437
     22 C           8.0783   -6.3252   25.3887 C.ar    1  UNL1       -0.0205
     23 C           8.8696   -7.4633   25.9618 C.ar    1  UNL1       -0.0011
     24 C           8.9609   -7.6396   27.4486 C.ar    1  UNL1        0.0373
     25 C           8.2609   -6.6777   28.3622 C.ar    1  UNL1        0.1487
     26 O           8.3521   -6.8540   29.8491 O.2     1  UNL1       -0.4470
     27 C           7.6521   -5.8922   30.7627 C.ar    1  UNL1        0.2192
     28 C           6.8608   -4.7540   30.1896 C.ar    1  UNL1        0.2113
     29 O           6.1608   -3.7922   31.1032 O.3     1  UNL1       -0.5007
     30 C           6.7695   -4.5778   28.7028 C.ar    1  UNL1        0.2351
     31 O           5.9782   -3.4396   28.1297 O.2     1  UNL1       -0.2831
     32 C           7.4696   -5.5396   27.7891 C.ar    1  UNL1        0.0763
     33 C           7.3783   -5.3633   26.3023 C.ar    1  UNL1        0.0021
     34 H           6.2178   -3.9023   32.0320 H       1  UNL1        0.2924
@<TRIPOS>BOND
     1    18    19    1
     2    19    17    1
     3    17    16    1
     4    16    15    1
     5    15     8    1
     6     8     9   ar
     7     9    10   ar
     8    10     7    1
     9     7     1    1
    10     1     2    1
    11     2     3    1
    12     3     4    1
    13     4    20    1
    14    20    21    1
    15    21    22    1
    16    22    23   ar
    17    23    24   ar
    18    24    25   ar
    19    25    26   ar
    20    26    27   ar
    21    27    28   ar
    22    28    29    1
    23    28    30   ar
    24    30    31    2
    25    30    32   ar
    26    32    33   ar
    27     4     5    1
    28     5     6    1
    29    10    11   ar
    30    11    12   ar
    31    12    13   ar
    32    13    14    1
    33    13     8   ar
    34     6     1    1
    35    33    22   ar
    36    32    25   ar
    37    29    34    1
@<TRIPOS>MOLECULE
*****
 34 37 0 0 0
SMALL
GASTEIGER

@<TRIPOS>ATOM
      1 C           4.6214   -3.5107   20.4394 C.3     1  UNL1        0.0071
      2 C           4.3350   -3.5332   21.9116 C.3     1  UNL1        0.0177
      3 C           5.4199   -3.8975   22.8812 C.3     1  UNL1        0.0721
      4 N           6.7913   -4.2392   22.3786 N.3     1  UNL1       -0.2724
      5 C           7.0777   -4.2167   20.9064 C.3     1  UNL1        0.0721
      6 C           5.9928   -3.8524   19.9368 C.3     1  UNL1        0.0177
      7 C           3.5364   -3.1464   19.4697 C.3     1  UNL1        0.0265
      8 C           1.6421    0.3236   19.8169 C.ar    1  UNL1        0.1445
      9 C           2.0132   -1.1153   20.0214 C.ar    1  UNL1        0.0331
     10 C           3.1654   -1.7075   19.2653 C.ar    1  UNL1       -0.0191
     11 C           3.9465   -0.8608   18.3047 C.ar    1  UNL1       -0.0036
     12 C           3.5755    0.5782   18.1001 C.ar    1  UNL1        0.0094
     13 C           2.4233    1.1704   18.8563 C.ar    1  UNL1        0.0684
     14 BR          2.0523    2.6093   18.6518 Br      1  UNL1       -0.0458
     15 O           0.4899    0.9158   20.5731 O.3     1  UNL1       -0.4723
     16 C           0.5873    1.1098   22.0573 C.3     1  UNL1        0.2373
     17 C           1.9235    1.3454   22.6968 C.3     1  UNL1        0.1894
     18 C           3.0980   -0.6227   23.9204 C.3     1  UNL1        0.1743
     19 O           2.2821    0.6351   23.9683 O.3     1  UNL1       -0.3471
     20 C           7.8763   -4.6035   23.3482 C.3     1  UNL1        0.0768
     21 C           7.9478   -5.9941   23.9060 C.3     1  UNL1        0.0437
     22 C           8.0195   -6.2045   25.3895 C.ar    1  UNL1       -0.0205
     23 C           8.7716   -7.3772   25.9452 C.ar    1  UNL1       -0.0011
     24 C           8.8433   -7.5875   27.4286 C.ar    1  UNL1        0.0373
     25 C           8.1628   -6.6250   28.3563 C.ar    1  UNL1        0.1487
     26 O           8.2345   -6.8354   29.8398 O.2     1  UNL1       -0.4470
     27 C           7.5540   -5.8729   30.7675 C.ar    1  UNL1        0.2192
     28 C           6.8018   -4.7001   30.2117 C.ar    1  UNL1        0.2113
     29 O           6.1214   -3.7377   31.1394 O.3     1  UNL1       -0.5007
     30 C           6.7302   -4.4898   28.7283 C.ar    1  UNL1        0.2351
     31 O           5.9780   -3.3171   28.1725 O.2     1  UNL1       -0.2831
     32 C           7.4107   -5.4523   27.8006 C.ar    1  UNL1        0.0763
     33 C           7.3390   -5.2420   26.3172 C.ar    1  UNL1        0.0021
     34 H           6.1661   -3.8690   32.0660 H       1  UNL1        0.2924
@<TRIPOS>BOND
     1    18    19    1
     2    19    17    1
     3    17    16    1
     4    16    15    1
     5    15     8    1
     6     8     9   ar
     7     9    10   ar
     8    10     7    1
     9     7     1    1
    10     1     2    1
    11     2     3    1
    12     3     4    1
    13     4    20    1
    14    20    21    1
    15    21    22    1
    16    22    23   ar
    17    23    24   ar
    18    24    25   ar
    19    25    26   ar
    20    26    27   ar
    21    27    28   ar
    22    28    29    1
    23    28    30   ar
    24    30    31    2
    25    30    32   ar
    26    32    33   ar
    27     4     5    1
    28     5     6    1
    29    10    11   ar
    30    11    12   ar
    31    12    13   ar
    32    13    14    1
    33    13     8   ar
    34     6     1    1
    35    33    22   ar
    36    32    25   ar
    37    29    34    1
@<TRIPOS>MOLECULE
*****
 34 37 0 0 0
SMALL
GASTEIGER

@<TRIPOS>ATOM
      1 C          -1.1343    3.3185   25.8267 C.3     1  UNL1        0.0071
      2 C          -0.1999    4.1275   24.9767 C.3     1  UNL1        0.0177
      3 C           0.9634    3.4644   24.3009 C.3     1  UNL1        0.0721
      4 N           1.1925    1.9922   24.4750 N.3     1  UNL1       -0.2724
      5 C           0.2581    1.1832   25.3250 C.3     1  UNL1        0.0721
      6 C          -0.9052    1.8463   26.0008 C.3     1  UNL1        0.0177
      7 C          -2.2977    3.9816   26.5026 C.3     1  UNL1        0.0265
      8 C          -5.0602    3.7261   23.6648 C.ar    1  UNL1        0.1445
      9 C          -3.7572    3.5741   24.3922 C.ar    1  UNL1        0.0331
     10 C          -3.6007    4.1335   25.7751 C.ar    1  UNL1       -0.0191
     11 C          -4.7470    4.8448   26.4307 C.ar    1  UNL1       -0.0036
     12 C          -6.0501    4.9968   25.7033 C.ar    1  UNL1        0.0094
     13 C          -6.2067    4.4374   24.3203 C.ar    1  UNL1        0.0684
     14 BR         -7.5096    4.5894   23.5929 Br      1  UNL1       -0.0458
     15 O          -5.2168    3.1667   22.2818 O.3     1  UNL1       -0.4723
     16 C          -4.8254    3.9904   21.0909 C.3     1  UNL1        0.2373
     17 C          -3.6724    3.5649   20.2309 C.3     1  UNL1        0.1894
     18 C          -5.1384    3.8758   18.1086 C.3     1  UNL1        0.1743
     19 O          -3.8184    3.5423   18.7382 O.3     1  UNL1       -0.3471
     20 C           2.3559    1.3291   23.7991 C.3     1  UNL1        0.0768
     21 C           2.5560   -0.1515   23.9317 C.3     1  UNL1        0.0437
     22 C           3.2331   -0.9181   22.8344 C.ar    1  UNL1       -0.0205
     23 C           4.1463   -2.0597   23.1701 C.ar    1  UNL1       -0.0011
     24 C           4.8233   -2.8262   22.0729 C.ar    1  UNL1        0.0373
     25 C           4.5872   -2.4511   20.6398 C.ar    1  UNL1        0.1487
     26 O           5.2643   -3.2176   19.5425 O.2     1  UNL1       -0.4470
     27 C           5.0282   -2.8425   18.1095 C.ar    1  UNL1        0.2192
     28 C           4.1150   -1.7008   17.7738 C.ar    1  UNL1        0.2113
     29 O           3.8788   -1.3257   16.3408 O.3     1  UNL1       -0.5007
     30 C           3.4379   -0.9343   18.8711 C.ar    1  UNL1        0.2351
     31 O           2.5247    0.2073   18.5353 O.2     1  UNL1       -0.2831
     32 C           3.6740   -1.3095   20.3041 C.ar    1  UNL1        0.0763
     33 C           2.9970   -0.5430   21.4014 C.ar    1  UNL1        0.0021
     34 H           4.3018   -1.8045   15.6554 H       1  UNL1        0.2924
@<TRIPOS>BOND
     1    18    19    1
     2    19    17    1
     3    17    16    1
     4    16    15    1
     5    15     8    1
     6     8     9   ar
     7     9    10   ar
     8    10     7    1
     9     7     1    1
    10     1     2    1
    11     2     3    1
    12     3     4    1
    13     4    20    1
    14    20    21    1
    15    21    22    1
    16    22    23   ar
    17    23    24   ar
    18    24    25   ar
    19    25    26   ar
    20    26    27   ar
    21    27    28   ar
    22    28    29    1
    23    28    30   ar
    24    30    31    2
    25    30    32   ar
    26    32    33   ar
    27     4     5    1
    28     5     6    1
    29    10    11   ar
    30    11    12   ar
    31    12    13   ar
    32    13    14    1
    33    13     8   ar
    34     6     1    1
    35    33    22   ar
    36    32    25   ar
    37    29    34    1
@<TRIPOS>MOLECULE
*****
 34 37 0 0 0
SMALL
GASTEIGER

@<TRIPOS>ATOM
      1 C          -6.8076  -20.2975   20.5873 C.3     1  UNL1        0.0071
      2 C          -7.2874  -20.2390   22.0073 C.3     1  UNL1        0.0177
      3 C          -8.6722  -19.7493   22.3114 C.3     1  UNL1        0.0721
      4 N          -9.5771  -19.3180   21.1956 N.3     1  UNL1       -0.2724
      5 C          -9.0973  -19.3765   19.7756 C.3     1  UNL1        0.0721
      6 C          -7.7126  -19.8662   19.4715 C.3     1  UNL1        0.0177
      7 C          -5.4228  -20.7873   20.2831 C.3     1  UNL1        0.0265
      8 C          -2.8038  -18.0677   21.5057 C.ar    1  UNL1        0.1445
      9 C          -3.9553  -19.0290   21.5098 C.ar    1  UNL1        0.0331
     10 C          -4.2713  -19.8260   20.2790 C.ar    1  UNL1       -0.0191
     11 C          -3.4359  -19.6618   19.0441 C.ar    1  UNL1       -0.0036
     12 C          -2.2844  -18.7004   19.0399 C.ar    1  UNL1        0.0094
     13 C          -1.9683  -17.9034   20.2707 C.ar    1  UNL1        0.0684
     14 BR         -0.8169  -16.9421   20.2665 Br      1  UNL1       -0.0458
     15 O          -2.4878  -17.2707   22.7364 O.3     1  UNL1       -0.4723
     16 C          -2.8426  -17.8095   24.0906 C.3     1  UNL1        0.2373
     17 C          -4.1528  -17.4445   24.7232 C.3     1  UNL1        0.1894
     18 C          -3.1821  -18.0085   27.0662 C.3     1  UNL1        0.1743
     19 O          -4.3365  -17.5897   26.2048 O.3     1  UNL1       -0.3471
     20 C         -10.9620  -18.8283   21.4998 C.3     1  UNL1        0.0768
     21 C         -11.1553  -17.5432   22.2488 C.3     1  UNL1        0.0437
     22 C          -9.9690  -16.8152   22.8080 C.ar    1  UNL1       -0.0205
     23 C          -9.1123  -15.9747   21.9082 C.ar    1  UNL1       -0.0011
     24 C          -7.9260  -15.2468   22.4674 C.ar    1  UNL1        0.0373
     25 C          -7.5964  -15.3592   23.9265 C.ar    1  UNL1        0.1487
     26 O          -6.4101  -14.6312   24.4857 O.2     1  UNL1       -0.4470
     27 C          -6.0805  -14.7437   25.9447 C.ar    1  UNL1        0.2192
     28 C          -6.9373  -15.5842   26.8445 C.ar    1  UNL1        0.2113
     29 O          -6.6077  -15.6967   28.3035 O.3     1  UNL1       -0.5007
     30 C          -8.1236  -16.3121   26.2853 C.ar    1  UNL1        0.2351
     31 O          -8.9803  -17.1526   27.1851 O.2     1  UNL1       -0.2831
     32 C          -8.4531  -16.1997   24.8263 C.ar    1  UNL1        0.0763
     33 C          -9.6394  -16.9276   24.2670 C.ar    1  UNL1        0.0021
     34 H          -5.8667  -15.2419   28.6528 H       1  UNL1        0.2924
@<TRIPOS>BOND
     1    18    19    1
     2    19    17    1
     3    17    16    1
     4    16    15    1
     5    15     8    1
     6     8     9   ar
     7     9    10   ar
     8    10     7    1
     9     7     1    1
    10     1     2    1
    11     2     3    1
    12     3     4    1
    13     4    20    1
    14    20    21    1
    15    21    22    1
    16    22    23   ar
    17    23    24   ar
    18    24    25   ar
    19    25    26   ar
    20    26    27   ar
    21    27    28   ar
    22    28    29    1
    23    28    30   ar
    24    30    31    2
    25    30    32   ar
    26    32    33   ar
    27     4     5    1
    28     5     6    1
    29    10    11   ar
    30    11    12   ar
    31    12    13   ar
    32    13    14    1
    33    13     8   ar
    34     6     1    1
    35    33    22   ar
    36    32    25   ar
    37    29    34    1
