@<TRIPOS>MOLECULE
*****
 35 38 0 0 0
SMALL
GASTEIGER

@<TRIPOS>ATOM
      1 N          -2.6925    2.4610   20.5020 N.am    1  UNL1       -0.2949
      2 C          -1.2936    2.9565   20.2841 C.2     1  UNL1        0.2523
      3 O          -0.9891    4.4203   20.4045 O.2     1  UNL1       -0.2699
      4 H          -2.8923    1.5003   20.4230 H       1  UNL1        0.1503
      5 C          -0.1991    1.9881   19.9459 C.ar    1  UNL1        0.1253
      6 C           0.1616    0.8972   20.9101 C.ar    1  UNL1        0.1098
      7 N           1.2560   -0.0712   20.5719 N.ar    1  UNL1       -0.2233
      8 C           1.9898    0.0513   19.2693 C.ar    1  UNL1        0.1849
      9 N           1.6292    1.1422   18.3051 N.ar    1  UNL1       -0.1909
     10 C           0.5347    2.1106   18.6434 C.ar    1  UNL1        0.2289
     11 O           0.1740    3.2016   17.6791 O.3     1  UNL1       -0.4918
     12 H           0.6324    3.2781   16.8654 H       1  UNL1        0.2938
     13 C           3.0842   -0.9171   18.9311 C.ar    1  UNL1        0.1386
     14 C           3.2472   -2.1745   19.7325 C.ar    1  UNL1        0.0257
     15 C           4.3416   -3.1429   19.3943 C.ar    1  UNL1        0.0242
     16 C           5.2731   -2.8539   18.2546 C.ar    1  UNL1        0.1222
     17 N           5.1102   -1.5964   17.4532 N.ar    1  UNL1       -0.1463
     18 N           4.0157   -0.6280   17.7915 N.ar    1  UNL1       -0.1448
     19 C          -3.7869    3.4294   20.8403 C.3     1  UNL1        0.1171
     20 C          -6.3701    5.1359   17.5746 C.ar    1  UNL1        0.1387
     21 C          -6.9691    4.2278   18.6073 C.ar    1  UNL1        0.0366
     22 C          -6.1080    3.6589   19.6959 C.ar    1  UNL1        0.0008
     23 C          -4.6480    3.9982   19.7517 C.ar    1  UNL1       -0.0001
     24 C          -4.0491    4.9064   18.7191 C.ar    1  UNL1        0.0008
     25 C          -4.9101    5.4752   17.6305 C.ar    1  UNL1        0.0366
     26 C          -8.0171    6.9589   16.7296 C.3     1  UNL1        0.2525
     27 O          -7.2312    5.7048   16.4860 O.3     1  UNL1       -0.4714
     28 C          -4.0203    3.8289   22.2671 C.ar    1  UNL1       -0.0001
     29 C          -3.4917    5.1373   22.7757 C.ar    1  UNL1        0.0008
     30 C          -3.7251    5.5368   24.2026 C.ar    1  UNL1        0.0366
     31 C          -4.4871    4.6279   25.1209 C.ar    1  UNL1        0.1387
     32 C          -5.0157    3.3195   24.6123 C.ar    1  UNL1        0.0366
     33 C          -4.7823    2.9199   23.1854 C.ar    1  UNL1        0.0008
     34 O          -4.7205    5.0274   26.5478 O.3     1  UNL1       -0.4714
     35 C          -5.9302    5.8361   26.9120 C.3     1  UNL1        0.2525
@<TRIPOS>BOND
     1    26    27    1
     2    27    20    1
     3    20    21   ar
     4    21    22   ar
     5    22    23   ar
     6    23    19    1
     7    19     1    1
     8     1     2   am
     9     2     3    2
    10     2     5    1
    11     5     6   ar
    12     6     7   ar
    13     7     8   ar
    14     8    13    1
    15    13    14   ar
    16    14    15   ar
    17    15    16   ar
    18    16    17   ar
    19    17    18   ar
    20     8     9   ar
    21     9    10   ar
    22    10    11    1
    23    19    28    1
    24    28    29   ar
    25    29    30   ar
    26    30    31   ar
    27    31    34    1
    28    34    35    1
    29    31    32   ar
    30    32    33   ar
    31    23    24   ar
    32    24    25   ar
    33    25    20   ar
    34    10     5   ar
    35    33    28   ar
    36    18    13   ar
    37     1     4    1
    38    11    12    1
@<TRIPOS>MOLECULE
*****
 35 38 0 0 0
SMALL
GASTEIGER

@<TRIPOS>ATOM
      1 N          -2.6278    2.4925   20.5081 N.am    1  UNL1       -0.2949
      2 C          -1.2276    2.9822   20.2854 C.2     1  UNL1        0.2523
      3 O          -0.9169    4.4449   20.4034 O.2     1  UNL1       -0.2699
      4 H          -2.8317    1.5324   20.4307 H       1  UNL1        0.1503
      5 C          -0.1380    2.0091   19.9447 C.ar    1  UNL1        0.1253
      6 C           0.1485    0.8540   20.8578 C.ar    1  UNL1        0.1098
      7 N           1.2380   -0.1190   20.5171 N.ar    1  UNL1       -0.2233
      8 C           2.0411    0.0630   19.2633 C.ar    1  UNL1        0.1849
      9 N           1.7546    1.2180   18.3502 N.ar    1  UNL1       -0.1909
     10 C           0.6650    2.1911   18.6909 C.ar    1  UNL1        0.2289
     11 O           0.3785    3.3461   17.7778 O.3     1  UNL1       -0.4918
     12 H           0.8801    3.4598   16.9946 H       1  UNL1        0.2938
     13 C           3.1306   -0.9101   18.9226 C.ar    1  UNL1        0.1386
     14 C           3.3019   -2.1590   19.7355 C.ar    1  UNL1        0.0257
     15 C           4.3914   -3.1320   19.3948 C.ar    1  UNL1        0.0242
     16 C           5.3097   -2.8562   18.2412 C.ar    1  UNL1        0.1222
     17 N           5.1384   -1.6073   17.4283 N.ar    1  UNL1       -0.1463
     18 N           4.0488   -0.6342   17.7690 N.ar    1  UNL1       -0.1448
     19 C          -3.7173    3.4654   20.8489 C.3     1  UNL1        0.1171
     20 C          -4.3346    4.7481   25.1178 C.ar    1  UNL1        0.1387
     21 C          -3.5287    5.6042   24.1865 C.ar    1  UNL1        0.0366
     22 C          -3.3229    5.1767   22.7635 C.ar    1  UNL1        0.0008
     23 C          -3.9231    3.8930   22.2718 C.ar    1  UNL1       -0.0001
     24 C          -4.7290    3.0368   23.2031 C.ar    1  UNL1        0.0008
     25 C          -4.9348    3.4643   24.6261 C.ar    1  UNL1        0.0366
     26 C          -5.8029    5.8821   26.9365 C.3     1  UNL1        0.2525
     27 O          -4.5403    5.1756   26.5408 O.3     1  UNL1       -0.4714
     28 C          -4.6011    4.0109   19.7666 C.ar    1  UNL1       -0.0001
     29 C          -4.0421    4.9612   18.7495 C.ar    1  UNL1        0.0008
     30 C          -4.9259    5.5066   17.6672 C.ar    1  UNL1        0.0366
     31 C          -6.3687    5.1018   17.6020 C.ar    1  UNL1        0.1387
     32 C          -6.9278    4.1516   18.6190 C.ar    1  UNL1        0.0366
     33 C          -6.0440    3.6061   19.7014 C.ar    1  UNL1        0.0008
     34 O          -7.2525    5.6473   16.5196 O.3     1  UNL1       -0.4714
     35 C          -7.5033    7.1234   16.4289 C.3     1  UNL1        0.2525
@<TRIPOS>BOND
     1    26    27    1
     2    27    20    1
     3    20    21   ar
     4    21    22   ar
     5    22    23   ar
     6    23    19    1
     7    19     1    1
     8     1     2   am
     9     2     3    2
    10     2     5    1
    11     5     6   ar
    12     6     7   ar
    13     7     8   ar
    14     8    13    1
    15    13    14   ar
    16    14    15   ar
    17    15    16   ar
    18    16    17   ar
    19    17    18   ar
    20     8     9   ar
    21     9    10   ar
    22    10    11    1
    23    19    28    1
    24    28    29   ar
    25    29    30   ar
    26    30    31   ar
    27    31    34    1
    28    34    35    1
    29    31    32   ar
    30    32    33   ar
    31    23    24   ar
    32    24    25   ar
    33    25    20   ar
    34    10     5   ar
    35    33    28   ar
    36    18    13   ar
    37     1     4    1
    38    11    12    1
@<TRIPOS>MOLECULE
*****
 35 38 0 0 0
SMALL
GASTEIGER

@<TRIPOS>ATOM
      1 N           0.1714    2.9515   27.6032 N.am    1  UNL1       -0.2949
      2 C          -0.1349    1.7407   28.4339 C.2     1  UNL1        0.2523
      3 O          -1.3463    0.9099   28.1303 O.2     1  UNL1       -0.2699
      4 H           0.9665    3.4969   27.8024 H       1  UNL1        0.1503
      5 C           0.7702    1.3608   29.5681 C.ar    1  UNL1        0.1253
      6 C           0.9998    2.3202   30.6981 C.ar    1  UNL1        0.1098
      7 N           1.9048    1.9403   31.8324 N.ar    1  UNL1       -0.2233
      8 C           2.5803    0.6010   31.8367 C.ar    1  UNL1        0.1849
      9 N           2.3508   -0.3584   30.7067 N.ar    1  UNL1       -0.1909
     10 C           1.4457    0.0215   29.5724 C.ar    1  UNL1        0.2289
     11 O           1.2161   -0.9379   28.4424 O.3     1  UNL1       -0.4918
     12 H           1.6381   -1.7745   28.4451 H       1  UNL1        0.2938
     13 C           3.4854    0.2211   32.9709 C.ar    1  UNL1        0.1386
     14 C           4.0562    1.2833   33.8630 C.ar    1  UNL1        0.0257
     15 C           4.9612    0.9034   34.9973 C.ar    1  UNL1        0.0242
     16 C           5.2955   -0.5387   35.2394 C.ar    1  UNL1        0.1222
     17 N           4.7247   -1.6009   34.3473 N.ar    1  UNL1       -0.1463
     18 N           3.8196   -1.2210   33.2130 N.ar    1  UNL1       -0.1448
     19 C          -0.7336    3.3315   26.4689 C.3     1  UNL1        0.1171
     20 C          -4.3916    5.8333   27.2502 C.ar    1  UNL1        0.1387
     21 C          -3.0254    6.4271   27.4254 C.ar    1  UNL1        0.0366
     22 C          -1.8060    5.5932   27.1650 C.ar    1  UNL1        0.0008
     23 C          -1.9529    4.1654   26.7294 C.ar    1  UNL1       -0.0001
     24 C          -3.3191    3.5716   26.5541 C.ar    1  UNL1        0.0008
     25 C          -4.5384    4.4055   26.8145 C.ar    1  UNL1        0.0366
     26 C          -6.9371    6.2537   26.9449 C.3     1  UNL1        0.2525
     27 O          -5.6109    6.6672   27.5106 O.3     1  UNL1       -0.4714
     28 C          -0.4193    2.8775   25.0743 C.ar    1  UNL1       -0.0001
     29 C          -0.9390    3.6509   23.8987 C.ar    1  UNL1        0.0008
     30 C          -0.6247    3.1970   22.5041 C.ar    1  UNL1        0.0366
     31 C           0.2093    1.9696   22.2849 C.ar    1  UNL1        0.1387
     32 C           0.7291    1.1963   23.4604 C.ar    1  UNL1        0.0366
     33 C           0.4148    1.6502   24.8551 C.ar    1  UNL1        0.0008
     34 O           0.5237    1.5157   20.8902 O.3     1  UNL1       -0.4714
     35 C           0.4736    0.0563   20.5473 C.3     1  UNL1        0.2525
@<TRIPOS>BOND
     1    26    27    1
     2    27    20    1
     3    20    21   ar
     4    21    22   ar
     5    22    23   ar
     6    23    19    1
     7    19     1    1
     8     1     2   am
     9     2     3    2
    10     2     5    1
    11     5     6   ar
    12     6     7   ar
    13     7     8   ar
    14     8    13    1
    15    13    14   ar
    16    14    15   ar
    17    15    16   ar
    18    16    17   ar
    19    17    18   ar
    20     8     9   ar
    21     9    10   ar
    22    10    11    1
    23    19    28    1
    24    28    29   ar
    25    29    30   ar
    26    30    31   ar
    27    31    34    1
    28    34    35    1
    29    31    32   ar
    30    32    33   ar
    31    23    24   ar
    32    24    25   ar
    33    25    20   ar
    34    10     5   ar
    35    33    28   ar
    36    18    13   ar
    37     1     4    1
    38    11    12    1
@<TRIPOS>MOLECULE
*****
 35 38 0 0 0
SMALL
GASTEIGER

@<TRIPOS>ATOM
      1 N          -0.1705    1.3269   24.9267 N.am    1  UNL1       -0.2949
      2 C           1.1558    1.7804   24.3923 C.2     1  UNL1        0.2523
      3 O           1.7727    3.0512   24.8965 O.2     1  UNL1       -0.2699
      4 H          -0.5754    0.4928   24.5958 H       1  UNL1        0.1503
      5 C           1.8651    0.9628   23.3538 C.ar    1  UNL1        0.1253
      6 C           1.7488    1.3282   21.9036 C.ar    1  UNL1        0.1098
      7 N           2.4581    0.5107   20.8650 N.ar    1  UNL1       -0.2233
      8 C           3.2836   -0.6722   21.2766 C.ar    1  UNL1        0.1849
      9 N           3.3999   -1.0376   22.7268 N.ar    1  UNL1       -0.1909
     10 C           2.6905   -0.2200   23.7654 C.ar    1  UNL1        0.2289
     11 O           2.8068   -0.5854   25.2155 O.3     1  UNL1       -0.4918
     12 H           3.3224   -1.3243   25.4727 H       1  UNL1        0.2938
     13 C           3.9929   -1.4897   20.2381 C.ar    1  UNL1        0.1386
     14 C           3.5409   -2.8904   19.9487 C.ar    1  UNL1        0.0257
     15 C           4.2502   -3.7079   18.9102 C.ar    1  UNL1        0.0242
     16 C           5.4115   -3.1246   18.1609 C.ar    1  UNL1        0.1222
     17 N           5.8634   -1.7239   18.4502 N.ar    1  UNL1       -0.1463
     18 N           5.1541   -0.9064   19.4888 N.ar    1  UNL1       -0.1448
     19 C          -0.8798    2.1444   25.9652 C.3     1  UNL1        0.1171
     20 C           0.2664    1.7607   30.2999 C.ar    1  UNL1        0.1387
     21 C          -0.5368    0.6806   29.6380 C.ar    1  UNL1        0.0366
     22 C          -0.9188    0.8085   28.1931 C.ar    1  UNL1        0.0008
     23 C          -0.4977    2.0165   27.4101 C.ar    1  UNL1       -0.0001
     24 C           0.3054    3.0967   28.0719 C.ar    1  UNL1        0.0008
     25 C           0.6875    2.9688   29.5168 C.ar    1  UNL1        0.0366
     26 C           2.0920    1.4998   32.1299 C.3     1  UNL1        0.2525
     27 O           0.6484    1.6329   31.7447 O.3     1  UNL1       -0.4714
     28 C          -1.9711    3.0898   25.5589 C.ar    1  UNL1       -0.0001
     29 C          -3.0094    3.5102   26.5566 C.ar    1  UNL1        0.0008
     30 C          -4.1007    4.4555   26.1503 C.ar    1  UNL1        0.0366
     31 C          -4.1540    4.9805   24.7462 C.ar    1  UNL1        0.1387
     32 C          -3.1158    4.5602   23.7484 C.ar    1  UNL1        0.0366
     33 C          -2.0244    3.6148   24.1547 C.ar    1  UNL1        0.0008
     34 O          -5.2454    5.9259   24.3398 O.3     1  UNL1       -0.4714
     35 C          -6.5217    5.3930   23.7594 C.3     1  UNL1        0.2525
@<TRIPOS>BOND
     1    26    27    1
     2    27    20    1
     3    20    21   ar
     4    21    22   ar
     5    22    23   ar
     6    23    19    1
     7    19     1    1
     8     1     2   am
     9     2     3    2
    10     2     5    1
    11     5     6   ar
    12     6     7   ar
    13     7     8   ar
    14     8    13    1
    15    13    14   ar
    16    14    15   ar
    17    15    16   ar
    18    16    17   ar
    19    17    18   ar
    20     8     9   ar
    21     9    10   ar
    22    10    11    1
    23    19    28    1
    24    28    29   ar
    25    29    30   ar
    26    30    31   ar
    27    31    34    1
    28    34    35    1
    29    31    32   ar
    30    32    33   ar
    31    23    24   ar
    32    24    25   ar
    33    25    20   ar
    34    10     5   ar
    35    33    28   ar
    36    18    13   ar
    37     1     4    1
    38    11    12    1
@<TRIPOS>MOLECULE
*****
 35 38 0 0 0
SMALL
GASTEIGER

@<TRIPOS>ATOM
      1 N          -0.0598    1.1742   25.1086 N.am    1  UNL1       -0.2949
      2 C           1.1484    1.7244   24.4105 C.2     1  UNL1        0.2523
      3 O           1.6459    3.0996   24.7440 O.2     1  UNL1       -0.2699
      4 H          -0.3864    0.2716   24.8897 H       1  UNL1        0.1503
      5 C           1.8592    0.8994   23.3789 C.ar    1  UNL1        0.1253
      6 C           1.7280    1.2416   21.9243 C.ar    1  UNL1        0.1098
      7 N           2.4387    0.4167   20.8927 N.ar    1  UNL1       -0.2233
      8 C           3.2807   -0.7505   21.3156 C.ar    1  UNL1        0.1849
      9 N           3.4119   -1.0927   22.7701 N.ar    1  UNL1       -0.1909
     10 C           2.7011   -0.2677   23.8018 C.ar    1  UNL1        0.2289
     11 O           2.8324   -0.6099   25.2563 O.3     1  UNL1       -0.4918
     12 H           3.3583   -1.3390   25.5205 H       1  UNL1        0.2938
     13 C           3.9914   -1.5755   20.2839 C.ar    1  UNL1        0.1386
     14 C           3.5467   -2.9819   20.0117 C.ar    1  UNL1        0.0257
     15 C           4.2574   -3.8069   18.9801 C.ar    1  UNL1        0.0242
     16 C           5.4129   -3.2254   18.2206 C.ar    1  UNL1        0.1222
     17 N           5.8577   -1.8189   18.4929 N.ar    1  UNL1       -0.1463
     18 N           5.1469   -0.9940   19.5246 N.ar    1  UNL1       -0.1448
     19 C          -0.7706    1.9991   26.1402 C.3     1  UNL1        0.1171
     20 C          -4.1654    4.6898   24.9212 C.ar    1  UNL1        0.1387
     21 C          -3.1388    4.2727   23.9103 C.ar    1  UNL1        0.0366
     22 C          -2.0072    3.3758   24.3166 C.ar    1  UNL1        0.0008
     23 C          -1.9022    2.8960   25.7338 C.ar    1  UNL1       -0.0001
     24 C          -2.9288    3.3130   26.7448 C.ar    1  UNL1        0.0008
     25 C          -4.0604    4.2099   26.3385 C.ar    1  UNL1        0.0366
     26 C          -6.7094    5.0851   24.5728 C.3     1  UNL1        0.2525
     27 O          -5.2970    5.5866   24.5149 O.3     1  UNL1       -0.4714
     28 C          -0.3498    1.9272   27.5781 C.ar    1  UNL1       -0.0001
     29 C          -0.7718    0.7637   28.4258 C.ar    1  UNL1        0.0008
     30 C          -0.3509    0.6918   29.8637 C.ar    1  UNL1        0.0366
     31 C           0.4919    1.7832   30.4540 C.ar    1  UNL1        0.1387
     32 C           0.9138    2.9466   29.6064 C.ar    1  UNL1        0.0366
     33 C           0.4930    3.0186   28.1684 C.ar    1  UNL1        0.0008
     34 O           0.9127    1.7112   31.8921 O.3     1  UNL1       -0.4714
     35 C           2.3338    1.3828   32.2421 C.3     1  UNL1        0.2525
@<TRIPOS>BOND
     1    26    27    1
     2    27    20    1
     3    20    21   ar
     4    21    22   ar
     5    22    23   ar
     6    23    19    1
     7    19     1    1
     8     1     2   am
     9     2     3    2
    10     2     5    1
    11     5     6   ar
    12     6     7   ar
    13     7     8   ar
    14     8    13    1
    15    13    14   ar
    16    14    15   ar
    17    15    16   ar
    18    16    17   ar
    19    17    18   ar
    20     8     9   ar
    21     9    10   ar
    22    10    11    1
    23    19    28    1
    24    28    29   ar
    25    29    30   ar
    26    30    31   ar
    27    31    34    1
    28    34    35    1
    29    31    32   ar
    30    32    33   ar
    31    23    24   ar
    32    24    25   ar
    33    25    20   ar
    34    10     5   ar
    35    33    28   ar
    36    18    13   ar
    37     1     4    1
    38    11    12    1
@<TRIPOS>MOLECULE
*****
 35 38 0 0 0
SMALL
GASTEIGER

@<TRIPOS>ATOM
      1 N           0.1100    3.0892   27.6472 N.am    1  UNL1       -0.2949
      2 C          -0.1690    1.8404   28.4298 C.2     1  UNL1        0.2523
      3 O          -1.3409    0.9760   28.0703 O.2     1  UNL1       -0.2699
      4 H           0.8792    3.6565   27.8832 H       1  UNL1        0.1503
      5 C           0.7240    1.4560   29.5722 C.ar    1  UNL1        0.1253
      6 C           0.9724    2.4258   30.6892 C.ar    1  UNL1        0.1098
      7 N           1.8653    2.0414   31.8315 N.ar    1  UNL1       -0.2233
      8 C           2.5100    0.6872   31.8568 C.ar    1  UNL1        0.1849
      9 N           2.2617   -0.2826   30.7397 N.ar    1  UNL1       -0.1909
     10 C           1.3686    0.1018   29.5974 C.ar    1  UNL1        0.2289
     11 O           1.1203   -0.8680   28.4804 O.3     1  UNL1       -0.4918
     12 H           1.5230   -1.7139   28.4961 H       1  UNL1        0.2938
     13 C           3.4030    0.3029   32.9990 C.ar    1  UNL1        0.1386
     14 C           3.8603    1.3444   33.9768 C.ar    1  UNL1        0.0257
     15 C           4.7533    0.9601   35.1191 C.ar    1  UNL1        0.0242
     16 C           5.1889   -0.4659   35.2837 C.ar    1  UNL1        0.1222
     17 N           4.7316   -1.5074   34.3059 N.ar    1  UNL1       -0.1463
     18 N           3.8386   -1.1230   33.1636 N.ar    1  UNL1       -0.1448
     19 C          -0.7830    3.4736   26.5049 C.3     1  UNL1        0.1171
     20 C           0.1906    2.1074   22.3293 C.ar    1  UNL1        0.1387
     21 C           0.7074    1.3391   23.5094 C.ar    1  UNL1        0.0366
     22 C           0.3828    1.7945   24.9013 C.ar    1  UNL1        0.0008
     23 C          -0.4584    3.0182   25.1130 C.ar    1  UNL1       -0.0001
     24 C          -0.9752    3.7865   23.9329 C.ar    1  UNL1        0.0008
     25 C          -0.6506    3.3310   22.5411 C.ar    1  UNL1        0.0366
     26 C           0.3381    0.2113   20.5593 C.3     1  UNL1        0.2525
     27 O           0.5152    1.6520   20.9375 O.3     1  UNL1       -0.4714
     28 C          -2.0005    4.3135   26.7545 C.ar    1  UNL1       -0.0001
     29 C          -3.3679    3.7299   26.5552 C.ar    1  UNL1        0.0008
     30 C          -4.5854    4.5698   26.8048 C.ar    1  UNL1        0.0366
     31 C          -4.4355    5.9932   27.2537 C.ar    1  UNL1        0.1387
     32 C          -3.0682    6.5767   27.4529 C.ar    1  UNL1        0.0366
     33 C          -1.8506    5.7369   27.2034 C.ar    1  UNL1        0.0008
     34 O          -5.6531    6.8330   27.5033 O.3     1  UNL1       -0.4714
     35 C          -7.0139    6.2020   27.4958 C.3     1  UNL1        0.2525
@<TRIPOS>BOND
     1    26    27    1
     2    27    20    1
     3    20    21   ar
     4    21    22   ar
     5    22    23   ar
     6    23    19    1
     7    19     1    1
     8     1     2   am
     9     2     3    2
    10     2     5    1
    11     5     6   ar
    12     6     7   ar
    13     7     8   ar
    14     8    13    1
    15    13    14   ar
    16    14    15   ar
    17    15    16   ar
    18    16    17   ar
    19    17    18   ar
    20     8     9   ar
    21     9    10   ar
    22    10    11    1
    23    19    28    1
    24    28    29   ar
    25    29    30   ar
    26    30    31   ar
    27    31    34    1
    28    34    35    1
    29    31    32   ar
    30    32    33   ar
    31    23    24   ar
    32    24    25   ar
    33    25    20   ar
    34    10     5   ar
    35    33    28   ar
    36    18    13   ar
    37     1     4    1
    38    11    12    1
@<TRIPOS>MOLECULE
*****
 35 38 0 0 0
SMALL
GASTEIGER

@<TRIPOS>ATOM
      1 N           2.1364   -0.2115   24.4621 N.am    1  UNL1       -0.2949
      2 C           1.9763    1.2711   24.3001 C.2     1  UNL1        0.2523
      3 O           3.1211    2.0983   23.7949 O.2     1  UNL1       -0.2699
      4 H           1.3850   -0.7545   24.7937 H       1  UNL1        0.1503
      5 C           0.6714    1.9265   24.6434 C.ar    1  UNL1        0.1253
      6 C           0.0295    2.8731   23.6729 C.ar    1  UNL1        0.1098
      7 N          -1.2753    3.5285   24.0161 N.ar    1  UNL1       -0.2233
      8 C          -1.9383    3.2373   25.3298 C.ar    1  UNL1        0.1849
      9 N          -1.2963    2.2907   26.3003 N.ar    1  UNL1       -0.1909
     10 C           0.0086    1.6352   25.9570 C.ar    1  UNL1        0.2289
     11 O           0.6505    0.6886   26.9275 O.3     1  UNL1       -0.4918
     12 H           0.2364    0.5067   27.7481 H       1  UNL1        0.2938
     13 C          -3.2431    3.8927   25.6730 C.ar    1  UNL1        0.1386
     14 C          -4.3582    3.9143   24.6700 C.ar    1  UNL1        0.0257
     15 C          -5.6631    4.5697   25.0132 C.ar    1  UNL1        0.0242
     16 C          -5.8528    5.2035   26.3595 C.ar    1  UNL1        0.1222
     17 N          -4.7377    5.1819   27.3625 N.ar    1  UNL1       -0.1463
     18 N          -3.4328    4.5265   27.0192 N.ar    1  UNL1       -0.1448
     19 C           3.4412   -0.8670   24.1188 C.3     1  UNL1        0.1171
     20 C           6.8504   -0.7667   27.0544 C.ar    1  UNL1        0.1387
     21 C           6.9976   -0.1150   25.7115 C.ar    1  UNL1        0.0366
     22 C           5.8612   -0.1484   24.7329 C.ar    1  UNL1        0.0008
     23 C           4.5776   -0.8335   25.0974 C.ar    1  UNL1       -0.0001
     24 C           4.4304   -1.4852   26.4403 C.ar    1  UNL1        0.0008
     25 C           5.5667   -1.4518   27.4188 C.ar    1  UNL1        0.0366
     26 C           7.8308   -1.3631   29.3853 C.3     1  UNL1        0.2525
     27 O           7.9868   -0.7332   28.0329 O.3     1  UNL1       -0.4714
     28 C           3.6096   -1.5558   22.7971 C.ar    1  UNL1       -0.0001
     29 C           2.9720   -0.9829   21.5661 C.ar    1  UNL1        0.0008
     30 C           3.1404   -1.6718   20.2444 C.ar    1  UNL1        0.0366
     31 C           3.9465   -2.9335   20.1535 C.ar    1  UNL1        0.1387
     32 C           4.5841   -3.5064   21.3844 C.ar    1  UNL1        0.0366
     33 C           4.4157   -2.8175   22.7062 C.ar    1  UNL1        0.0008
     34 O           4.1149   -3.6224   18.8316 O.3     1  UNL1       -0.4714
     35 C           4.5401   -5.0600   18.7839 C.3     1  UNL1        0.2525
@<TRIPOS>BOND
     1    26    27    1
     2    27    20    1
     3    20    21   ar
     4    21    22   ar
     5    22    23   ar
     6    23    19    1
     7    19     1    1
     8     1     2   am
     9     2     3    2
    10     2     5    1
    11     5     6   ar
    12     6     7   ar
    13     7     8   ar
    14     8    13    1
    15    13    14   ar
    16    14    15   ar
    17    15    16   ar
    18    16    17   ar
    19    17    18   ar
    20     8     9   ar
    21     9    10   ar
    22    10    11    1
    23    19    28    1
    24    28    29   ar
    25    29    30   ar
    26    30    31   ar
    27    31    34    1
    28    34    35    1
    29    31    32   ar
    30    32    33   ar
    31    23    24   ar
    32    24    25   ar
    33    25    20   ar
    34    10     5   ar
    35    33    28   ar
    36    18    13   ar
    37     1     4    1
    38    11    12    1
@<TRIPOS>MOLECULE
*****
 35 38 0 0 0
SMALL
GASTEIGER

@<TRIPOS>ATOM
      1 N           2.0577   -0.1670   24.4404 N.am    1  UNL1       -0.2949
      2 C           1.8914    1.3129   24.2610 C.2     1  UNL1        0.2523
      3 O           3.0324    2.1388   23.7451 O.2     1  UNL1       -0.2699
      4 H           1.3088   -0.7090   24.7790 H       1  UNL1        0.1503
      5 C           0.5841    1.9670   24.5975 C.ar    1  UNL1        0.1253
      6 C          -0.0548    2.9115   23.6229 C.ar    1  UNL1        0.1098
      7 N          -1.3620    3.5656   23.9593 N.ar    1  UNL1       -0.2233
      8 C          -2.0305    3.2751   25.2704 C.ar    1  UNL1        0.1849
      9 N          -1.3917    2.3306   26.2449 N.ar    1  UNL1       -0.1909
     10 C          -0.0844    1.6765   25.9085 C.ar    1  UNL1        0.2289
     11 O           0.5544    0.7320   26.8830 O.3     1  UNL1       -0.4918
     12 H           0.1369    0.5506   27.7020 H       1  UNL1        0.2938
     13 C          -3.3378    3.9292   25.6068 C.ar    1  UNL1        0.1386
     14 C          -4.4379    3.9745   24.5881 C.ar    1  UNL1        0.0257
     15 C          -5.7451    4.6285   24.9245 C.ar    1  UNL1        0.0242
     16 C          -5.9524    5.2373   26.2797 C.ar    1  UNL1        0.1222
     17 N          -4.8523    5.1920   27.2984 N.ar    1  UNL1       -0.1463
     18 N          -3.5450    4.5379   26.9619 N.ar    1  UNL1       -0.1448
     19 C           3.3649   -0.8210   24.1039 C.3     1  UNL1        0.1171
     20 C           3.8853   -2.9076   20.1510 C.ar    1  UNL1        0.1387
     21 C           3.0868   -1.6404   20.2308 C.ar    1  UNL1        0.0366
     22 C           2.9134   -0.9448   21.5484 C.ar    1  UNL1        0.0008
     23 C           3.5384   -1.5166   22.7863 C.ar    1  UNL1       -0.0001
     24 C           4.3369   -2.7838   22.7065 C.ar    1  UNL1        0.0008
     25 C           4.5104   -3.4793   21.3889 C.ar    1  UNL1        0.0366
     26 C           4.5615   -5.0157   18.7914 C.3     1  UNL1        0.2525
     27 O           4.0588   -3.6031   18.8334 O.3     1  UNL1       -0.4714
     28 C           4.4987   -0.7796   25.0851 C.ar    1  UNL1       -0.0001
     29 C           5.7940   -0.1239   24.7074 C.ar    1  UNL1        0.0008
     30 C           6.9277   -0.0825   25.6885 C.ar    1  UNL1        0.0366
     31 C           6.7664   -0.6966   27.0475 C.ar    1  UNL1        0.1387
     32 C           5.4713   -1.3523   27.4253 C.ar    1  UNL1        0.0366
     33 C           4.3374   -1.3937   26.4441 C.ar    1  UNL1        0.0008
     34 O           7.9003   -0.6552   28.0287 O.3     1  UNL1       -0.4714
     35 C           8.6138   -1.9200   28.4043 C.3     1  UNL1        0.2525
@<TRIPOS>BOND
     1    26    27    1
     2    27    20    1
     3    20    21   ar
     4    21    22   ar
     5    22    23   ar
     6    23    19    1
     7    19     1    1
     8     1     2   am
     9     2     3    2
    10     2     5    1
    11     5     6   ar
    12     6     7   ar
    13     7     8   ar
    14     8    13    1
    15    13    14   ar
    16    14    15   ar
    17    15    16   ar
    18    16    17   ar
    19    17    18   ar
    20     8     9   ar
    21     9    10   ar
    22    10    11    1
    23    19    28    1
    24    28    29   ar
    25    29    30   ar
    26    30    31   ar
    27    31    34    1
    28    34    35    1
    29    31    32   ar
    30    32    33   ar
    31    23    24   ar
    32    24    25   ar
    33    25    20   ar
    34    10     5   ar
    35    33    28   ar
    36    18    13   ar
    37     1     4    1
    38    11    12    1
@<TRIPOS>MOLECULE
*****
 35 38 0 0 0
SMALL
GASTEIGER

@<TRIPOS>ATOM
      1 N           2.5135   -0.3861   24.3938 N.am    1  UNL1       -0.2949
      2 C           3.7755    0.0736   25.0616 C.2     1  UNL1        0.2523
      3 O           4.3464    1.4226   24.7390 O.2     1  UNL1       -0.2699
      4 H           2.1389   -1.2715   24.6056 H       1  UNL1        0.1503
      5 C           4.4667   -0.8159   26.0522 C.ar    1  UNL1        0.1253
      6 C           5.8631   -1.2939   25.7843 C.ar    1  UNL1        0.1098
      7 N           6.5543   -2.1833   26.7748 N.ar    1  UNL1       -0.2233
      8 C           5.8492   -2.5948   28.0332 C.ar    1  UNL1        0.1849
      9 N           4.4528   -2.1169   28.3011 N.ar    1  UNL1       -0.1909
     10 C           3.7616   -1.2274   27.3105 C.ar    1  UNL1        0.2289
     11 O           2.3653   -0.7494   27.5784 O.3     1  UNL1       -0.4918
     12 H           1.9248   -1.0065   28.3644 H       1  UNL1        0.2938
     13 C           6.5404   -3.4843   29.0237 C.ar    1  UNL1        0.1386
     14 C           6.5385   -4.9712   28.8256 C.ar    1  UNL1        0.0257
     15 C           7.2298   -5.8606   29.8160 C.ar    1  UNL1        0.0242
     16 C           7.9229   -5.2632   31.0047 C.ar    1  UNL1        0.1222
     17 N           7.9247   -3.7763   31.2028 N.ar    1  UNL1       -0.1463
     18 N           7.2335   -2.8869   30.2122 N.ar    1  UNL1       -0.1448
     19 C           1.8223    0.5033   23.4033 C.3     1  UNL1        0.1171
     20 C          -1.5164    3.2032   24.7501 C.ar    1  UNL1        0.1387
     21 C          -0.9436    2.1897   25.6959 C.ar    1  UNL1        0.0366
     22 C           0.1693    1.2897   25.2470 C.ar    1  UNL1        0.0008
     23 C           0.7094    1.4033   23.8522 C.ar    1  UNL1       -0.0001
     24 C           0.1366    2.4168   22.9064 C.ar    1  UNL1        0.0008
     25 C          -0.9763    3.3167   23.3553 C.ar    1  UNL1        0.0366
     26 C          -3.2982    3.8667   26.5206 C.3     1  UNL1        0.2525
     27 O          -2.6293    4.1031   25.1990 O.3     1  UNL1       -0.4714
     28 C           2.2440    0.4928   21.9639 C.ar    1  UNL1       -0.0001
     29 C           3.3221    1.4226   21.4913 C.ar    1  UNL1        0.0008
     30 C           3.7438    1.4120   20.0519 C.ar    1  UNL1        0.0366
     31 C           3.0874    0.4717   19.0849 C.ar    1  UNL1        0.1387
     32 C           2.0093   -0.4580   19.5574 C.ar    1  UNL1        0.0366
     33 C           1.5876   -0.4475   20.9969 C.ar    1  UNL1        0.0008
     34 O           3.5092    0.4612   17.6454 O.3     1  UNL1       -0.4714
     35 C           3.7566   -0.8424   16.9459 C.3     1  UNL1        0.2525
@<TRIPOS>BOND
     1    26    27    1
     2    27    20    1
     3    20    21   ar
     4    21    22   ar
     5    22    23   ar
     6    23    19    1
     7    19     1    1
     8     1     2   am
     9     2     3    2
    10     2     5    1
    11     5     6   ar
    12     6     7   ar
    13     7     8   ar
    14     8    13    1
    15    13    14   ar
    16    14    15   ar
    17    15    16   ar
    18    16    17   ar
    19    17    18   ar
    20     8     9   ar
    21     9    10   ar
    22    10    11    1
    23    19    28    1
    24    28    29   ar
    25    29    30   ar
    26    30    31   ar
    27    31    34    1
    28    34    35    1
    29    31    32   ar
    30    32    33   ar
    31    23    24   ar
    32    24    25   ar
    33    25    20   ar
    34    10     5   ar
    35    33    28   ar
    36    18    13   ar
    37     1     4    1
    38    11    12    1
