@<TRIPOS>MOLECULE
*****
 33 35 0 0 0
SMALL
GASTEIGER

@<TRIPOS>ATOM
      1 C          -8.7544  -19.6584   19.8985 C.ar    1  UNL1        0.1535
      2 C         -10.2119  -19.6930   20.2511 C.ar    1  UNL1        0.0574
      3 C         -10.7833  -18.6642   21.1813 C.ar    1  UNL1        0.0888
      4 N         -12.2408  -18.6989   21.5339 N.ar    1  UNL1       -0.2238
      5 C         -12.8120  -17.6702   22.4641 C.ar    1  UNL1        0.2000
      6 N         -11.9257  -16.6067   23.0417 N.ar    1  UNL1       -0.2089
      7 C         -10.4682  -16.5720   22.6891 C.ar    1  UNL1        0.1353
      8 C          -9.8970  -17.6008   21.7589 C.ar    1  UNL1        0.0508
      9 C          -8.4394  -17.5661   21.4062 C.ar    1  UNL1        0.0221
     10 C          -7.8681  -18.5949   20.4761 C.ar    1  UNL1        0.0852
     11 N          -6.4105  -18.5603   20.1234 N.am    1  UNL1       -0.2762
     12 C          -5.4428  -19.4500   20.8458 C.2     1  UNL1        0.2769
     13 O          -5.9327  -20.3743   21.9209 O.2     1  UNL1       -0.2674
     14 H          -6.0891  -17.9536   19.4178 H       1  UNL1        0.1553
     15 C          -3.9853  -19.4154   20.4932 C.2     1  UNL1        0.1905
     16 F          -3.0321  -20.3696   21.1495 F       1  UNL1       -0.1997
     17 C          -3.4810  -18.4265   19.4844 C.2     1  UNL1        0.0256
     18 C          -2.0234  -18.3919   19.1318 C.3     1  UNL1        0.1014
     19 N          -1.0649  -17.6101   19.9803 N.3     1  UNL1       -0.2665
     20 C           0.4118  -17.8391   19.8490 C.3     1  UNL1        0.0899
     21 C          -1.5829  -16.5993   20.9600 C.3     1  UNL1        0.0899
     22 C          -8.9900  -21.1732   17.8009 C.3     1  UNL1        0.2525
     23 O          -8.1831  -20.6872   18.9683 O.3     1  UNL1       -0.4701
     24 N          -9.5819  -15.5086   23.2666 N.pl3   1  UNL1       -0.2978
     25 H          -9.5239  -14.6269   22.8325 H       1  UNL1        0.1536
     26 C          -8.7842  -15.7885   24.5056 C.ar    1  UNL1        0.0504
     27 C          -9.3491  -16.6726   25.5777 C.ar    1  UNL1        0.0170
     28 C          -8.5513  -16.9526   26.8167 C.ar    1  UNL1        0.0318
     29 C          -7.1886  -16.3484   26.9837 C.ar    1  UNL1        0.1507
     30 F          -6.3908  -16.6283   28.2228 F       1  UNL1       -0.2033
     31 C          -6.6236  -15.4643   25.9117 C.ar    1  UNL1        0.0863
     32 CL         -5.2609  -14.8601   26.0788 Cl      1  UNL1       -0.0799
     33 C          -7.4214  -15.1843   24.6727 C.ar    1  UNL1        0.0283
@<TRIPOS>BOND
     1    22    23    1
     2    23     1    1
     3     1     2   ar
     4     2     3   ar
     5     3     4   ar
     6     4     5   ar
     7     5     6   ar
     8     6     7   ar
     9     7    24    1
    10    24    26    1
    11    26    27   ar
    12    27    28   ar
    13    28    29   ar
    14    29    30    1
    15    29    31   ar
    16    31    32    1
    17    31    33   ar
    18     7     8   ar
    19     8     9   ar
    20     9    10   ar
    21    10    11    1
    22    11    12   am
    23    12    13    2
    24    12    15    1
    25    15    16    1
    26    15    17    2
    27    17    18    1
    28    18    19    1
    29    19    20    1
    30    19    21    1
    31    10     1   ar
    32     8     3   ar
    33    33    26   ar
    34    24    25    1
    35    11    14    1
@<TRIPOS>MOLECULE
*****
 33 35 0 0 0
SMALL
GASTEIGER

@<TRIPOS>ATOM
      1 C          -9.3048  -19.1989   20.0659 C.ar    1  UNL1        0.1535
      2 C         -10.7508  -18.8138   20.1690 C.ar    1  UNL1        0.0574
      3 C         -11.3730  -18.5889   21.5153 C.ar    1  UNL1        0.0888
      4 N         -12.8190  -18.2038   21.6183 N.ar    1  UNL1       -0.2238
      5 C         -13.4411  -17.9788   22.9645 C.ar    1  UNL1        0.2000
      6 N         -12.6171  -18.1390   24.2077 N.ar    1  UNL1       -0.2089
      7 C         -11.1711  -18.5240   24.1047 C.ar    1  UNL1        0.1353
      8 C         -10.5490  -18.7490   22.7584 C.ar    1  UNL1        0.0508
      9 C          -9.1029  -19.1341   22.6553 C.ar    1  UNL1        0.0221
     10 C          -8.4808  -19.3590   21.3091 C.ar    1  UNL1        0.0852
     11 N          -7.0347  -19.7441   21.2060 N.am    1  UNL1       -0.2762
     12 C          -5.9723  -18.8083   21.7013 C.2     1  UNL1        0.2769
     13 O          -6.3559  -17.4874   22.2998 O.2     1  UNL1       -0.2674
     14 H          -6.7830  -20.6111   20.8132 H       1  UNL1        0.1553
     15 C          -4.5262  -19.1933   21.5982 C.2     1  UNL1        0.1905
     16 F          -3.8624  -19.9243   22.7274 F       1  UNL1       -0.1997
     17 C          -3.7440  -18.8475   20.3660 C.2     1  UNL1        0.0256
     18 C          -2.2979  -19.2325   20.2629 C.3     1  UNL1        0.1014
     19 N          -1.3458  -18.3708   19.4877 N.3     1  UNL1       -0.2665
     20 C           0.0414  -18.1318   20.0061 C.3     1  UNL1        0.0899
     21 C          -1.7807  -17.7481   18.1943 C.3     1  UNL1        0.0899
     22 C          -8.8671  -20.7369   18.0182 C.3     1  UNL1        0.2525
     23 O          -8.6826  -19.4239   18.7196 O.3     1  UNL1       -0.4701
     24 N         -10.3471  -18.6842   25.3478 N.pl3   1  UNL1       -0.2978
     25 H         -10.4386  -19.4955   25.8979 H       1  UNL1        0.1536
     26 C          -9.3839  -17.6081   25.7529 C.ar    1  UNL1        0.0504
     27 C          -8.9830  -17.4628   27.1911 C.ar    1  UNL1        0.0170
     28 C          -8.0197  -16.3868   27.5962 C.ar    1  UNL1        0.0318
     29 C          -7.4572  -15.4560   26.5632 C.ar    1  UNL1        0.1507
     30 F          -6.4939  -14.3799   26.9683 F       1  UNL1       -0.2033
     31 C          -7.8580  -15.6012   25.1250 C.ar    1  UNL1        0.0863
     32 CL         -7.2955  -14.6704   24.0920 Cl      1  UNL1       -0.0799
     33 C          -8.8213  -16.6773   24.7199 C.ar    1  UNL1        0.0283
@<TRIPOS>BOND
     1    22    23    1
     2    23     1    1
     3     1     2   ar
     4     2     3   ar
     5     3     4   ar
     6     4     5   ar
     7     5     6   ar
     8     6     7   ar
     9     7    24    1
    10    24    26    1
    11    26    27   ar
    12    27    28   ar
    13    28    29   ar
    14    29    30    1
    15    29    31   ar
    16    31    32    1
    17    31    33   ar
    18     7     8   ar
    19     8     9   ar
    20     9    10   ar
    21    10    11    1
    22    11    12   am
    23    12    13    2
    24    12    15    1
    25    15    16    1
    26    15    17    2
    27    17    18    1
    28    18    19    1
    29    19    20    1
    30    19    21    1
    31    10     1   ar
    32     8     3   ar
    33    33    26   ar
    34    24    25    1
    35    11    14    1
@<TRIPOS>MOLECULE
*****
 33 35 0 0 0
SMALL
GASTEIGER

@<TRIPOS>ATOM
      1 C           7.7286   -7.3608   26.4020 C.ar    1  UNL1        0.1535
      2 C           8.2703   -7.6501   25.0335 C.ar    1  UNL1        0.0574
      3 C           8.1392   -6.6280   23.9434 C.ar    1  UNL1        0.0888
      4 N           8.6809   -6.9173   22.5749 N.ar    1  UNL1       -0.2238
      5 C           8.5498   -5.8952   21.4849 C.ar    1  UNL1        0.2000
      6 N           7.8770   -4.5838   21.7635 N.ar    1  UNL1       -0.2089
      7 C           7.3353   -4.2945   23.1320 C.ar    1  UNL1        0.1353
      8 C           7.4664   -5.3166   24.2219 C.ar    1  UNL1        0.0508
      9 C           6.9247   -5.0273   25.5905 C.ar    1  UNL1        0.0221
     10 C           7.0558   -6.0494   26.6805 C.ar    1  UNL1        0.0852
     11 N           6.5141   -5.7602   28.0491 N.am    1  UNL1       -0.2762
     12 C           7.4378   -5.3083   29.1412 C.2     1  UNL1        0.2769
     13 O           8.9031   -5.1457   28.8647 O.2     1  UNL1       -0.2674
     14 H           5.5524   -5.8669   28.2305 H       1  UNL1        0.1553
     15 C           6.8961   -5.0190   30.5097 C.2     1  UNL1        0.1905
     16 F           6.6568   -6.1424   31.4744 F       1  UNL1       -0.1997
     17 C           6.5938   -3.6064   30.9135 C.2     1  UNL1        0.0256
     18 C           6.0522   -3.3171   32.2821 C.3     1  UNL1        0.1014
     19 N           5.0862   -2.1874   32.4830 N.3     1  UNL1       -0.2665
     20 C           4.4095   -2.0061   33.8094 C.3     1  UNL1        0.0899
     21 C           4.7968   -1.2389   31.3576 C.3     1  UNL1        0.0899
     22 C           9.1198   -9.1868   27.6188 C.3     1  UNL1        0.2525
     23 O           7.8597   -8.3830   27.4920 O.3     1  UNL1       -0.4701
     24 N           6.6625   -2.9831   23.4105 N.pl3   1  UNL1       -0.2978
     25 H           7.0133   -2.3893   24.1130 H       1  UNL1        0.1536
     26 C           5.4552   -2.5765   22.6187 C.ar    1  UNL1        0.0504
     27 C           4.4657   -1.6117   23.2021 C.ar    1  UNL1        0.0170
     28 C           3.2584   -1.2051   22.4103 C.ar    1  UNL1        0.0318
     29 C           3.0405   -1.7631   21.0351 C.ar    1  UNL1        0.1507
     30 F           1.8331   -1.3564   20.2433 F       1  UNL1       -0.2033
     31 C           4.0299   -2.7278   20.4517 C.ar    1  UNL1        0.0863
     32 CL          3.8120   -3.2858   19.0766 Cl      1  UNL1       -0.0799
     33 C           5.2373   -3.1345   21.2435 C.ar    1  UNL1        0.0283
@<TRIPOS>BOND
     1    22    23    1
     2    23     1    1
     3     1     2   ar
     4     2     3   ar
     5     3     4   ar
     6     4     5   ar
     7     5     6   ar
     8     6     7   ar
     9     7    24    1
    10    24    26    1
    11    26    27   ar
    12    27    28   ar
    13    28    29   ar
    14    29    30    1
    15    29    31   ar
    16    31    32    1
    17    31    33   ar
    18     7     8   ar
    19     8     9   ar
    20     9    10   ar
    21    10    11    1
    22    11    12   am
    23    12    13    2
    24    12    15    1
    25    15    16    1
    26    15    17    2
    27    17    18    1
    28    18    19    1
    29    19    20    1
    30    19    21    1
    31    10     1   ar
    32     8     3   ar
    33    33    26   ar
    34    24    25    1
    35    11    14    1
@<TRIPOS>MOLECULE
*****
 33 35 0 0 0
SMALL
GASTEIGER

@<TRIPOS>ATOM
      1 C           7.8383   -4.7920   22.5782 C.ar    1  UNL1        0.1535
      2 C           8.6474   -5.9490   23.0848 C.ar    1  UNL1        0.0574
      3 C           8.4135   -6.4791   24.4685 C.ar    1  UNL1        0.0888
      4 N           9.2225   -7.6360   24.9751 N.ar    1  UNL1       -0.2238
      5 C           8.9886   -8.1660   26.3587 C.ar    1  UNL1        0.2000
      6 N           7.9457   -7.5390   27.2357 N.ar    1  UNL1       -0.2089
      7 C           7.1366   -6.3820   26.7290 C.ar    1  UNL1        0.1353
      8 C           7.3705   -5.8520   25.3454 C.ar    1  UNL1        0.0508
      9 C           6.5614   -4.6950   24.8387 C.ar    1  UNL1        0.0221
     10 C           6.7953   -4.1650   23.4551 C.ar    1  UNL1        0.0852
     11 N           5.9863   -3.0079   22.9484 N.am    1  UNL1       -0.2762
     12 C           4.8028   -3.2524   22.0597 C.2     1  UNL1        0.2769
     13 O           4.4285   -4.6538   21.6778 O.2     1  UNL1       -0.2674
     14 H           6.2320   -2.0882   23.1991 H       1  UNL1        0.1553
     15 C           3.9938   -2.0954   21.5530 C.2     1  UNL1        0.1905
     16 F           3.1772   -1.2760   22.5078 F       1  UNL1       -0.1997
     17 C           4.0013   -1.7579   20.0915 C.2     1  UNL1        0.0256
     18 C           3.1922   -0.6009   19.5848 C.3     1  UNL1        0.1014
     19 N           3.5874    0.0913   18.3141 N.3     1  UNL1       -0.2665
     20 C           3.8070    1.5752   18.3053 C.3     1  UNL1        0.0899
     21 C           3.7630   -0.7003   17.0522 C.3     1  UNL1        0.0899
     22 C           9.0788   -3.1730   20.9687 C.3     1  UNL1        0.2525
     23 O           8.0722   -4.2620   21.1945 O.3     1  UNL1       -0.4701
     24 N           6.0936   -5.7549   27.6060 N.pl3   1  UNL1       -0.2978
     25 H           5.1413   -5.8280   27.3675 H       1  UNL1        0.1536
     26 C           6.5017   -5.0166   28.8462 C.ar    1  UNL1        0.0504
     27 C           6.8892   -5.7782   30.0792 C.ar    1  UNL1        0.0170
     28 C           7.2972   -5.0399   31.3194 C.ar    1  UNL1        0.0318
     29 C           7.3179   -3.5400   31.3269 C.ar    1  UNL1        0.1507
     30 F           7.7260   -2.8017   32.5673 F       1  UNL1       -0.2033
     31 C           6.9305   -2.7785   30.0941 C.ar    1  UNL1        0.0863
     32 CL          6.9511   -1.2786   30.1015 Cl      1  UNL1       -0.0799
     33 C           6.5224   -3.5168   28.8537 C.ar    1  UNL1        0.0283
@<TRIPOS>BOND
     1    22    23    1
     2    23     1    1
     3     1     2   ar
     4     2     3   ar
     5     3     4   ar
     6     4     5   ar
     7     5     6   ar
     8     6     7   ar
     9     7    24    1
    10    24    26    1
    11    26    27   ar
    12    27    28   ar
    13    28    29   ar
    14    29    30    1
    15    29    31   ar
    16    31    32    1
    17    31    33   ar
    18     7     8   ar
    19     8     9   ar
    20     9    10   ar
    21    10    11    1
    22    11    12   am
    23    12    13    2
    24    12    15    1
    25    15    16    1
    26    15    17    2
    27    17    18    1
    28    18    19    1
    29    19    20    1
    30    19    21    1
    31    10     1   ar
    32     8     3   ar
    33    33    26   ar
    34    24    25    1
    35    11    14    1
@<TRIPOS>MOLECULE
*****
 33 35 0 0 0
SMALL
GASTEIGER

@<TRIPOS>ATOM
      1 C         -12.3207   -1.4991   18.7177 C.ar    1  UNL1        0.1535
      2 C         -11.0862   -2.1792   18.2044 C.ar    1  UNL1        0.0574
      3 C         -10.9668   -3.6727   18.2787 C.ar    1  UNL1        0.0888
      4 N          -9.7324   -4.3528   17.7654 N.ar    1  UNL1       -0.2238
      5 C          -9.6130   -5.8462   17.8397 C.ar    1  UNL1        0.2000
      6 N         -10.7282   -6.6594   18.4271 N.ar    1  UNL1       -0.2089
      7 C         -11.9627   -5.9793   18.9403 C.ar    1  UNL1        0.1353
      8 C         -12.0820   -4.4859   18.8661 C.ar    1  UNL1        0.0508
      9 C         -13.3165   -3.8057   19.3793 C.ar    1  UNL1        0.0221
     10 C         -13.4358   -2.3124   19.3051 C.ar    1  UNL1        0.0852
     11 N         -14.6704   -1.6321   19.8183 N.am    1  UNL1       -0.2762
     12 C         -15.7740   -1.2661   18.8706 C.2     1  UNL1        0.2769
     13 O         -15.6430   -1.5803   17.4097 O.2     1  UNL1       -0.2674
     14 H         -14.7563   -1.4260   20.7771 H       1  UNL1        0.1553
     15 C         -17.0084   -0.5859   19.3838 C.2     1  UNL1        0.1905
     16 F         -18.3369   -0.8604   18.7438 F       1  UNL1       -0.1997
     17 C         -16.9144    0.3687   20.5369 C.2     1  UNL1        0.0256
     18 C         -18.1489    1.0489   21.0501 C.3     1  UNL1        0.1014
     19 N         -18.0325    2.3216   21.8355 N.3     1  UNL1       -0.2665
     20 C         -17.4205    2.3045   23.2049 C.3     1  UNL1        0.0899
     21 C         -18.5282    3.6112   21.2516 C.3     1  UNL1        0.0899
     22 C         -12.8431    0.6515   17.3567 C.3     1  UNL1        0.2525
     23 O         -12.4401   -0.0057   18.6434 O.3     1  UNL1       -0.4701
     24 N         -13.0778   -6.7926   19.5278 N.pl3   1  UNL1       -0.2978
     25 H         -13.0421   -7.0670   20.4726 H       1  UNL1        0.1536
     26 C         -14.2473   -7.1877   18.6757 C.ar    1  UNL1        0.0504
     27 C         -14.0571   -7.4335   17.2082 C.ar    1  UNL1        0.0170
     28 C         -15.2266   -7.8286   16.3562 C.ar    1  UNL1        0.0318
     29 C         -16.5864   -7.9780   16.9715 C.ar    1  UNL1        0.1507
     30 F         -17.7560   -8.3731   16.1194 F       1  UNL1       -0.2033
     31 C         -16.7767   -7.7322   18.4389 C.ar    1  UNL1        0.0863
     32 CL        -18.1365   -7.8816   19.0543 Cl      1  UNL1       -0.0799
     33 C         -15.6071   -7.3371   19.2911 C.ar    1  UNL1        0.0283
@<TRIPOS>BOND
     1    22    23    1
     2    23     1    1
     3     1     2   ar
     4     2     3   ar
     5     3     4   ar
     6     4     5   ar
     7     5     6   ar
     8     6     7   ar
     9     7    24    1
    10    24    26    1
    11    26    27   ar
    12    27    28   ar
    13    28    29   ar
    14    29    30    1
    15    29    31   ar
    16    31    32    1
    17    31    33   ar
    18     7     8   ar
    19     8     9   ar
    20     9    10   ar
    21    10    11    1
    22    11    12   am
    23    12    13    2
    24    12    15    1
    25    15    16    1
    26    15    17    2
    27    17    18    1
    28    18    19    1
    29    19    20    1
    30    19    21    1
    31    10     1   ar
    32     8     3   ar
    33    33    26   ar
    34    24    25    1
    35    11    14    1
@<TRIPOS>MOLECULE
*****
 33 35 0 0 0
SMALL
GASTEIGER

@<TRIPOS>ATOM
      1 C         -11.4633   -4.3621   18.8721 C.ar    1  UNL1        0.1535
      2 C         -10.7363   -3.1408   18.3925 C.ar    1  UNL1        0.0574
      3 C         -11.5060   -1.9100   18.0145 C.ar    1  UNL1        0.0888
      4 N         -10.7790   -0.6887   17.5349 N.ar    1  UNL1       -0.2238
      5 C         -11.5487    0.5420   17.1569 C.ar    1  UNL1        0.2000
      6 N         -13.0452    0.5515   17.2585 N.ar    1  UNL1       -0.2089
      7 C         -13.7721   -0.6698   17.7381 C.ar    1  UNL1        0.1353
      8 C         -13.0025   -1.9005   18.1161 C.ar    1  UNL1        0.0508
      9 C         -13.7294   -3.1218   18.5958 C.ar    1  UNL1        0.0221
     10 C         -12.9598   -4.3526   18.9738 C.ar    1  UNL1        0.0852
     11 N         -13.6867   -5.5739   19.4534 N.am    1  UNL1       -0.2762
     12 C         -14.1856   -6.5862   18.4653 C.2     1  UNL1        0.2769
     13 O         -13.9577   -6.3770   16.9975 O.2     1  UNL1       -0.2674
     14 H         -13.8363   -5.7112   20.4168 H       1  UNL1        0.1553
     15 C         -14.9125   -7.8075   18.9449 C.2     1  UNL1        0.1905
     16 F         -14.3137   -9.1668   18.7364 F       1  UNL1       -0.1997
     17 C         -16.2382   -7.6694   19.6330 C.2     1  UNL1        0.0256
     18 C         -16.9651   -8.8907   20.1125 C.3     1  UNL1        0.1014
     19 N         -17.7262   -9.7411   19.1391 N.3     1  UNL1       -0.2665
     20 C         -19.1197   -9.3573   18.7378 C.3     1  UNL1        0.0899
     21 C         -17.0940  -10.9751   18.5671 C.3     1  UNL1        0.0899
     22 C         -10.3652   -6.6214   18.2088 C.3     1  UNL1        0.2525
     23 O         -10.6936   -5.5929   19.2502 O.3     1  UNL1       -0.4701
     24 N         -15.2686   -0.6603   17.8398 N.pl3   1  UNL1       -0.2978
     25 H         -15.8026   -1.2875   17.3006 H       1  UNL1        0.1536
     26 C         -15.9515    0.3048   18.7629 C.ar    1  UNL1        0.0504
     27 C         -16.3697   -0.1370   20.1341 C.ar    1  UNL1        0.0170
     28 C         -17.0527    0.8281   21.0572 C.ar    1  UNL1        0.0318
     29 C         -17.3175    2.2349   20.6092 C.ar    1  UNL1        0.1507
     30 F         -18.0004    3.2000   21.5324 F       1  UNL1       -0.2033
     31 C         -16.8993    2.6767   19.2381 C.ar    1  UNL1        0.0863
     32 CL        -17.1641    4.0836   18.7902 Cl      1  UNL1       -0.0799
     33 C         -16.2164    1.7116   18.3149 C.ar    1  UNL1        0.0283
@<TRIPOS>BOND
     1    22    23    1
     2    23     1    1
     3     1     2   ar
     4     2     3   ar
     5     3     4   ar
     6     4     5   ar
     7     5     6   ar
     8     6     7   ar
     9     7    24    1
    10    24    26    1
    11    26    27   ar
    12    27    28   ar
    13    28    29   ar
    14    29    30    1
    15    29    31   ar
    16    31    32    1
    17    31    33   ar
    18     7     8   ar
    19     8     9   ar
    20     9    10   ar
    21    10    11    1
    22    11    12   am
    23    12    13    2
    24    12    15    1
    25    15    16    1
    26    15    17    2
    27    17    18    1
    28    18    19    1
    29    19    20    1
    30    19    21    1
    31    10     1   ar
    32     8     3   ar
    33    33    26   ar
    34    24    25    1
    35    11    14    1
@<TRIPOS>MOLECULE
*****
 33 35 0 0 0
SMALL
GASTEIGER

@<TRIPOS>ATOM
      1 C           6.6850   -2.4110   25.6454 C.ar    1  UNL1        0.1535
      2 C           7.7270   -2.9796   24.7283 C.ar    1  UNL1        0.0574
      3 C           7.3504   -3.4133   23.3426 C.ar    1  UNL1        0.0888
      4 N           8.3924   -3.9818   22.4255 N.ar    1  UNL1       -0.2238
      5 C           8.0157   -4.4156   21.0399 C.ar    1  UNL1        0.2000
      6 N           6.5972   -4.2807   20.5713 N.ar    1  UNL1       -0.2089
      7 C           5.5552   -3.7122   21.4884 C.ar    1  UNL1        0.1353
      8 C           5.9319   -3.2785   22.8740 C.ar    1  UNL1        0.0508
      9 C           4.8899   -2.7100   23.7912 C.ar    1  UNL1        0.0221
     10 C           5.2665   -2.2762   25.1768 C.ar    1  UNL1        0.0852
     11 N           4.2245   -1.7077   26.0940 N.am    1  UNL1       -0.2762
     12 C           4.1210   -0.2232   26.2828 C.2     1  UNL1        0.2769
     13 O           5.0595    0.6927   25.5544 O.2     1  UNL1       -0.2674
     14 H           3.6086   -2.3088   26.5720 H       1  UNL1        0.1553
     15 C           3.0792    0.3454   27.1999 C.2     1  UNL1        0.1905
     16 F           2.8707    1.8291   27.2698 F       1  UNL1       -0.1997
     17 C           2.2457   -0.5698   28.0471 C.2     1  UNL1        0.0256
     18 C           1.2038   -0.0013   28.9642 C.3     1  UNL1        0.1014
     19 N          -0.1795    0.2698   28.4514 N.3     1  UNL1       -0.2665
     20 C          -1.3198   -0.6113   28.8679 C.3     1  UNL1        0.0899
     21 C          -0.4225    1.4218   27.5220 C.3     1  UNL1        0.0899
     22 C           7.1121   -2.9820   28.1437 C.3     1  UNL1        0.2525
     23 O           7.0616   -1.9773   27.0311 O.3     1  UNL1       -0.4701
     24 N           4.1367   -3.5774   21.0198 N.pl3   1  UNL1       -0.2978
     25 H           3.4873   -4.2941   21.2039 H       1  UNL1        0.1536
     26 C           3.7076   -2.3507   20.2709 C.ar    1  UNL1        0.0504
     27 C           2.9473   -1.2679   20.9778 C.ar    1  UNL1        0.0170
     28 C           2.5182   -0.0412   20.2289 C.ar    1  UNL1        0.0318
     29 C           2.8493    0.1028   18.7730 C.ar    1  UNL1        0.1507
     30 F           2.4202    1.3296   18.0240 F       1  UNL1       -0.2033
     31 C           3.6096   -0.9798   18.0661 C.ar    1  UNL1        0.0863
     32 CL          3.9407   -0.8358   16.6102 Cl      1  UNL1       -0.0799
     33 C           4.0387   -2.2067   18.8150 C.ar    1  UNL1        0.0283
@<TRIPOS>BOND
     1    22    23    1
     2    23     1    1
     3     1     2   ar
     4     2     3   ar
     5     3     4   ar
     6     4     5   ar
     7     5     6   ar
     8     6     7   ar
     9     7    24    1
    10    24    26    1
    11    26    27   ar
    12    27    28   ar
    13    28    29   ar
    14    29    30    1
    15    29    31   ar
    16    31    32    1
    17    31    33   ar
    18     7     8   ar
    19     8     9   ar
    20     9    10   ar
    21    10    11    1
    22    11    12   am
    23    12    13    2
    24    12    15    1
    25    15    16    1
    26    15    17    2
    27    17    18    1
    28    18    19    1
    29    19    20    1
    30    19    21    1
    31    10     1   ar
    32     8     3   ar
    33    33    26   ar
    34    24    25    1
    35    11    14    1
@<TRIPOS>MOLECULE
*****
 33 35 0 0 0
SMALL
GASTEIGER

@<TRIPOS>ATOM
      1 C           7.3225   -2.1623   32.0269 C.ar    1  UNL1        0.1535
      2 C           8.3818   -3.2077   32.2136 C.ar    1  UNL1        0.0574
      3 C           8.4206   -4.4058   31.3118 C.ar    1  UNL1        0.0888
      4 N           9.4799   -5.4512   31.4985 N.ar    1  UNL1       -0.2238
      5 C           9.5186   -6.6491   30.5967 C.ar    1  UNL1        0.2000
      6 N           8.4980   -6.8017   29.5081 N.ar    1  UNL1       -0.2089
      7 C           7.4387   -5.7563   29.3213 C.ar    1  UNL1        0.1353
      8 C           7.4000   -4.5583   30.2231 C.ar    1  UNL1        0.0508
      9 C           6.3407   -3.5128   30.0364 C.ar    1  UNL1        0.0221
     10 C           6.3019   -2.3149   30.9382 C.ar    1  UNL1        0.0852
     11 N           5.2426   -1.2694   30.7515 N.am    1  UNL1       -0.2762
     12 C           4.0368   -1.2557   31.6437 C.2     1  UNL1        0.2769
     13 O           3.8904   -2.2875   32.7226 O.2     1  UNL1       -0.2674
     14 H           5.3387   -0.5922   30.0434 H       1  UNL1        0.1553
     15 C           2.9775   -0.2103   31.4570 C.2     1  UNL1        0.1905
     16 F           2.1027   -0.2382   30.2388 F       1  UNL1       -0.1997
     17 C           2.7930    0.8630   32.4884 C.2     1  UNL1        0.0256
     18 C           1.7337    1.9085   32.3017 C.3     1  UNL1        0.1014
     19 N           1.9814    3.0726   31.3889 N.3     1  UNL1       -0.2665
     20 C           0.8306    3.7422   30.6979 C.3     1  UNL1        0.0899
     21 C           3.3800    3.5673   31.1669 C.3     1  UNL1        0.0899
     22 C           7.9871    0.2987   32.5286 C.3     1  UNL1        0.2525
     23 O           7.2838   -0.9643   32.9287 O.3     1  UNL1       -0.4701
     24 N           6.4181   -5.9088   28.2327 N.pl3   1  UNL1       -0.2978
     25 H           5.4971   -6.1759   28.4553 H       1  UNL1        0.1536
     26 C           6.8008   -5.6543   26.8048 C.ar    1  UNL1        0.0504
     27 C           6.5329   -4.3155   26.1837 C.ar    1  UNL1        0.0170
     28 C           6.9156   -4.0610   24.7559 C.ar    1  UNL1        0.0318
     29 C           7.5662   -5.1454   23.9491 C.ar    1  UNL1        0.1507
     30 F           7.9489   -4.8909   22.5212 F       1  UNL1       -0.2033
     31 C           7.8341   -6.4842   24.5701 C.ar    1  UNL1        0.0863
     32 CL          8.4847   -7.5685   23.7634 Cl      1  UNL1       -0.0799
     33 C           7.4514   -6.7387   25.9980 C.ar    1  UNL1        0.0283
@<TRIPOS>BOND
     1    22    23    1
     2    23     1    1
     3     1     2   ar
     4     2     3   ar
     5     3     4   ar
     6     4     5   ar
     7     5     6   ar
     8     6     7   ar
     9     7    24    1
    10    24    26    1
    11    26    27   ar
    12    27    28   ar
    13    28    29   ar
    14    29    30    1
    15    29    31   ar
    16    31    32    1
    17    31    33   ar
    18     7     8   ar
    19     8     9   ar
    20     9    10   ar
    21    10    11    1
    22    11    12   am
    23    12    13    2
    24    12    15    1
    25    15    16    1
    26    15    17    2
    27    17    18    1
    28    18    19    1
    29    19    20    1
    30    19    21    1
    31    10     1   ar
    32     8     3   ar
    33    33    26   ar
    34    24    25    1
    35    11    14    1
@<TRIPOS>MOLECULE
*****
 33 35 0 0 0
SMALL
GASTEIGER

@<TRIPOS>ATOM
      1 C          -5.1798  -19.7318   21.5057 C.ar    1  UNL1        0.1535
      2 C          -5.4104  -20.8346   20.5155 C.ar    1  UNL1        0.0574
      3 C          -6.6735  -20.8644   19.7068 C.ar    1  UNL1        0.0888
      4 N          -6.9041  -21.9672   18.7165 N.ar    1  UNL1       -0.2238
      5 C          -8.1671  -21.9970   17.9079 C.ar    1  UNL1        0.2000
      6 N          -9.1994  -20.9240   18.0896 N.ar    1  UNL1       -0.2089
      7 C          -8.9688  -19.8213   19.0798 C.ar    1  UNL1        0.1353
      8 C          -7.7058  -19.7914   19.8884 C.ar    1  UNL1        0.0508
      9 C          -7.4751  -18.6886   20.8788 C.ar    1  UNL1        0.0221
     10 C          -6.2121  -18.6588   21.6874 C.ar    1  UNL1        0.0852
     11 N          -5.9814  -17.5560   22.6777 N.am    1  UNL1       -0.2762
     12 C          -7.1493  -16.8781   23.3309 C.2     1  UNL1        0.2769
     13 O          -8.5478  -17.3031   22.9937 O.2     1  UNL1       -0.2674
     14 H          -5.0635  -17.2771   22.8990 H       1  UNL1        0.1553
     15 C          -6.9186  -15.7754   24.3211 C.2     1  UNL1        0.1905
     16 F          -7.6340  -14.4662   24.1658 F       1  UNL1       -0.1997
     17 C          -5.9726  -15.9818   25.4668 C.2     1  UNL1        0.0256
     18 C          -5.7420  -14.8791   26.4570 C.3     1  UNL1        0.1014
     19 N          -6.7951  -14.5516   27.4737 N.3     1  UNL1       -0.2665
     20 C          -6.5947  -13.4036   28.4181 C.3     1  UNL1        0.0899
     21 C          -8.0487  -15.3721   27.5460 C.3     1  UNL1        0.0899
     22 C          -2.5845  -19.7052   21.6250 C.3     1  UNL1        0.2525
     23 O          -3.9167  -19.7019   22.3144 O.3     1  UNL1       -0.4701
     24 N         -10.0012  -18.7483   19.2615 N.pl3   1  UNL1       -0.2978
     25 H         -10.2067  -18.1326   18.5213 H       1  UNL1        0.1536
     26 C         -10.7204  -18.6135   20.5708 C.ar    1  UNL1        0.0504
     27 C         -10.7997  -19.7829   21.5069 C.ar    1  UNL1        0.0170
     28 C         -11.5189  -19.6481   22.8163 C.ar    1  UNL1        0.0318
     29 C         -12.1588  -18.3438   23.1897 C.ar    1  UNL1        0.1507
     30 F         -12.8781  -18.2090   24.4991 F       1  UNL1       -0.2033
     31 C         -12.0795  -17.1744   22.2537 C.ar    1  UNL1        0.0863
     32 CL        -12.7194  -15.8701   22.6271 Cl      1  UNL1       -0.0799
     33 C         -11.3603  -17.3092   20.9442 C.ar    1  UNL1        0.0283
@<TRIPOS>BOND
     1    22    23    1
     2    23     1    1
     3     1     2   ar
     4     2     3   ar
     5     3     4   ar
     6     4     5   ar
     7     5     6   ar
     8     6     7   ar
     9     7    24    1
    10    24    26    1
    11    26    27   ar
    12    27    28   ar
    13    28    29   ar
    14    29    30    1
    15    29    31   ar
    16    31    32    1
    17    31    33   ar
    18     7     8   ar
    19     8     9   ar
    20     9    10   ar
    21    10    11    1
    22    11    12   am
    23    12    13    2
    24    12    15    1
    25    15    16    1
    26    15    17    2
    27    17    18    1
    28    18    19    1
    29    19    20    1
    30    19    21    1
    31    10     1   ar
    32     8     3   ar
    33    33    26   ar
    34    24    25    1
    35    11    14    1
