@<TRIPOS>MOLECULE
*****
 26 28 0 0 0
SMALL
GASTEIGER

@<TRIPOS>ATOM
      1 N           6.3064   -3.1976   31.4876 N.3     1  UNL1       -0.2711
      2 C           6.8356   -4.5718   31.7729 C.3     1  UNL1        0.0939
      3 C           7.2377   -5.4705   30.6412 C.3     1  UNL1        0.1123
      4 N           7.1107   -4.9950   29.2243 N.am    1  UNL1       -0.2612
      5 C           7.5129   -5.8937   28.0927 C.2     1  UNL1        0.3072
      6 O           8.0420   -7.2679   28.3779 O.2     1  UNL1       -0.2523
      7 N           7.3859   -5.4181   26.6758 N.am    1  UNL1       -0.2639
      8 C           6.8568   -4.0438   26.3905 C.3     1  UNL1        0.0966
      9 C           6.7298   -3.5682   24.9735 C.3     1  UNL1        0.0412
     10 C           7.1320   -4.4669   23.8419 C.3     1  UNL1        0.0750
     11 C           7.6611   -5.8412   24.1272 C.3     1  UNL1        0.0412
     12 C           7.7881   -6.3168   25.5441 C.3     1  UNL1        0.0966
     13 C           6.5816   -3.6207   28.9391 C.3     1  UNL1        0.1123
     14 C           6.1795   -2.7220   30.0707 C.3     1  UNL1        0.0939
     15 N           7.0050   -3.9913   22.4249 N.am    1  UNL1       -0.3059
     16 C           5.6494   -3.7147   21.8453 C.2     1  UNL1        0.2219
     17 O           4.4209   -3.9137   22.6825 O.2     1  UNL1       -0.2751
     18 H           7.8113   -3.8607   21.8754 H       1  UNL1        0.1494
     19 C           5.5225   -3.2391   20.4284 C.3     1  UNL1        0.0765
     20 C           4.2477   -3.1317   19.6452 C.3     1  UNL1        0.0091
     21 C           4.5854   -2.6136   18.2787 C.3     1  UNL1        0.0005
     22 C           6.0690   -2.4008   18.2173 C.3     1  UNL1        0.0005
     23 C           6.6481   -2.7873   19.5458 C.3     1  UNL1        0.0091
     24 C           6.8746   -1.2888   33.1561 C.3     1  UNL1        0.0173
     25 C           5.9043   -2.2989   32.6193 C.3     1  UNL1        0.0577
     26 C           4.5318   -2.4103   33.2141 C.3     1  UNL1        0.0173
@<TRIPOS>BOND
     1    24    25    1
     2    25    26    1
     3    25     1    1
     4     1     2    1
     5     2     3    1
     6     3     4    1
     7     4     5   am
     8     5     6    2
     9     5     7   am
    10     7     8    1
    11     8     9    1
    12     9    10    1
    13    10    15    1
    14    15    16   am
    15    16    17    2
    16    16    19    1
    17    19    20    1
    18    20    21    1
    19    21    22    1
    20    22    23    1
    21    10    11    1
    22    11    12    1
    23     4    13    1
    24    13    14    1
    25    14     1    1
    26    12     7    1
    27    23    19    1
    28    15    18    1
@<TRIPOS>MOLECULE
*****
 26 28 0 0 0
SMALL
GASTEIGER

@<TRIPOS>ATOM
      1 N           2.6133   -0.8626   20.0975 N.3     1  UNL1       -0.2711
      2 C           3.4592   -1.4522   19.0080 C.3     1  UNL1        0.0939
      3 C           4.6596   -2.2816   19.3562 C.3     1  UNL1        0.1123
      4 N           5.0142   -2.5213   20.7937 N.am    1  UNL1       -0.2612
      5 C           6.2146   -3.3507   21.1419 C.2     1  UNL1        0.3072
      6 O           7.0604   -3.9402   20.0524 O.2     1  UNL1       -0.2523
      7 N           6.5692   -3.5905   22.5795 N.am    1  UNL1       -0.2639
      8 C           5.7234   -3.0009   23.6690 C.3     1  UNL1        0.0966
      9 C           6.0780   -3.2406   25.1066 C.3     1  UNL1        0.0412
     10 C           7.2784   -4.0700   25.4547 C.3     1  UNL1        0.0750
     11 C           8.1242   -4.6596   24.3653 C.3     1  UNL1        0.0412
     12 C           7.7696   -4.4198   22.9276 C.3     1  UNL1        0.0966
     13 C           4.1684   -1.9318   21.8832 C.3     1  UNL1        0.1123
     14 C           2.9680   -1.1024   21.5351 C.3     1  UNL1        0.0939
     15 N           7.6330   -4.3097   26.8924 N.am    1  UNL1       -0.3059
     16 C           7.2826   -5.6147   27.5437 C.2     1  UNL1        0.2219
     17 O           6.5777   -6.6800   26.7575 O.2     1  UNL1       -0.2751
     18 H           8.0957   -3.6106   27.4085 H       1  UNL1        0.1494
     19 C           7.6372   -5.8544   28.9813 C.3     1  UNL1        0.0765
     20 C           6.7970   -5.4900   30.1693 C.3     1  UNL1        0.0091
     21 C           7.5348   -5.9110   31.4056 C.3     1  UNL1        0.0005
     22 C           8.8310   -6.5356   30.9817 C.3     1  UNL1        0.0005
     23 C           8.8943   -6.5006   29.4834 C.3     1  UNL1        0.0091
     24 C           1.3123    0.6105   18.3983 C.3     1  UNL1        0.0173
     25 C           1.4129   -0.0333   19.7494 C.3     1  UNL1        0.0577
     26 C           0.3131    0.1523   20.7523 C.3     1  UNL1        0.0173
@<TRIPOS>BOND
     1    24    25    1
     2    25    26    1
     3    25     1    1
     4     1     2    1
     5     2     3    1
     6     3     4    1
     7     4     5   am
     8     5     6    2
     9     5     7   am
    10     7     8    1
    11     8     9    1
    12     9    10    1
    13    10    15    1
    14    15    16   am
    15    16    17    2
    16    16    19    1
    17    19    20    1
    18    20    21    1
    19    21    22    1
    20    22    23    1
    21    10    11    1
    22    11    12    1
    23     4    13    1
    24    13    14    1
    25    14     1    1
    26    12     7    1
    27    23    19    1
    28    15    18    1
@<TRIPOS>MOLECULE
*****
 26 28 0 0 0
SMALL
GASTEIGER

@<TRIPOS>ATOM
      1 N           8.0878   -5.8831   27.6529 N.3     1  UNL1       -0.2711
      2 C           9.2779   -6.3182   26.8503 C.3     1  UNL1        0.0939
      3 C           9.3306   -6.0417   25.3770 C.3     1  UNL1        0.1123
      4 N           8.1932   -5.3301   24.7062 N.am    1  UNL1       -0.2612
      5 C           8.2459   -5.0537   23.2329 C.2     1  UNL1        0.3072
      6 O           9.4360   -5.4887   22.4302 O.2     1  UNL1       -0.2523
      7 N           7.1085   -4.3421   22.5621 N.am    1  UNL1       -0.2639
      8 C           5.9183   -3.9070   23.3648 C.3     1  UNL1        0.0966
      9 C           4.7809   -3.1955   22.6940 C.3     1  UNL1        0.0412
     10 C           4.8336   -2.9190   21.2207 C.3     1  UNL1        0.0750
     11 C           6.0237   -3.3541   20.4181 C.3     1  UNL1        0.0412
     12 C           7.1612   -4.0657   21.0888 C.3     1  UNL1        0.0966
     13 C           7.0031   -4.8951   25.5089 C.3     1  UNL1        0.1123
     14 C           6.9504   -5.1716   26.9822 C.3     1  UNL1        0.0939
     15 N           3.6960   -2.2074   20.5500 N.am    1  UNL1       -0.3059
     16 C           3.5190   -0.7301   20.7402 C.2     1  UNL1        0.2219
     17 O           4.4794    0.0357   21.6011 O.2     1  UNL1       -0.2751
     18 H           3.0657   -2.7100   19.9849 H       1  UNL1        0.1494
     19 C           2.3816   -0.0186   20.0694 C.3     1  UNL1        0.0765
     20 C           1.0842    0.3725   20.7128 C.3     1  UNL1        0.0091
     21 C           0.2425    1.0595   19.6786 C.3     1  UNL1        0.0005
     22 C           1.0198    1.0930   18.3960 C.3     1  UNL1        0.0005
     23 C           2.3418    0.4267   18.6376 C.3     1  UNL1        0.0091
     24 C           9.1441   -6.9243   29.7860 C.3     1  UNL1        0.0173
     25 C           8.0351   -6.1596   29.1263 C.3     1  UNL1        0.0577
     26 C           6.8734   -5.6713   29.9399 C.3     1  UNL1        0.0173
@<TRIPOS>BOND
     1    24    25    1
     2    25    26    1
     3    25     1    1
     4     1     2    1
     5     2     3    1
     6     3     4    1
     7     4     5   am
     8     5     6    2
     9     5     7   am
    10     7     8    1
    11     8     9    1
    12     9    10    1
    13    10    15    1
    14    15    16   am
    15    16    17    2
    16    16    19    1
    17    19    20    1
    18    20    21    1
    19    21    22    1
    20    22    23    1
    21    10    11    1
    22    11    12    1
    23     4    13    1
    24    13    14    1
    25    14     1    1
    26    12     7    1
    27    23    19    1
    28    15    18    1
@<TRIPOS>MOLECULE
*****
 26 28 0 0 0
SMALL
GASTEIGER

@<TRIPOS>ATOM
      1 N           4.4791    2.1420   37.4051 N.3     1  UNL1       -0.2711
      2 C           4.9450    0.7195   37.5008 C.3     1  UNL1        0.0939
      3 C           4.8187   -0.1924   36.3165 C.3     1  UNL1        0.1123
      4 N           4.2265    0.3182   35.0365 N.am    1  UNL1       -0.2612
      5 C           4.1001   -0.5937   33.8523 C.2     1  UNL1        0.3072
      6 O           4.5660   -2.0162   33.9480 O.2     1  UNL1       -0.2523
      7 N           3.5079   -0.0830   32.5723 N.am    1  UNL1       -0.2639
      8 C           3.0419    1.3396   32.4765 C.3     1  UNL1        0.0966
      9 C           2.4497    1.8503   31.1965 C.3     1  UNL1        0.0412
     10 C           2.3233    0.9384   30.0122 C.3     1  UNL1        0.0750
     11 C           2.7892   -0.4841   30.1080 C.3     1  UNL1        0.0412
     12 C           3.3815   -0.9949   31.3880 C.3     1  UNL1        0.0966
     13 C           3.7606    1.7408   34.9408 C.3     1  UNL1        0.1123
     14 C           3.8869    2.6527   36.1251 C.3     1  UNL1        0.0939
     15 N           1.7311    1.4492   28.7322 N.am    1  UNL1       -0.3059
     16 C           0.2691    1.2607   28.4546 C.2     1  UNL1        0.2219
     17 O          -0.6006    0.5616   29.4569 O.2     1  UNL1       -0.2751
     18 H           2.3019    1.9080   28.0743 H       1  UNL1        0.1494
     19 C          -0.3231    1.7714   27.1746 C.3     1  UNL1        0.0765
     20 C          -1.4803    2.7183   27.0546 C.3     1  UNL1        0.0091
     21 C          -1.7345    2.9570   25.5957 C.3     1  UNL1        0.0005
     22 C          -0.7344    2.1577   24.8140 C.3     1  UNL1        0.0005
     23 C           0.1379    1.4250   25.7899 C.3     1  UNL1        0.0091
     24 C           3.6624    4.2092   38.7503 C.3     1  UNL1        0.0173
     25 C           4.6055    3.0539   38.5893 C.3     1  UNL1        0.0577
     26 C           5.6749    2.8105   39.6126 C.3     1  UNL1        0.0173
@<TRIPOS>BOND
     1    24    25    1
     2    25    26    1
     3    25     1    1
     4     1     2    1
     5     2     3    1
     6     3     4    1
     7     4     5   am
     8     5     6    2
     9     5     7   am
    10     7     8    1
    11     8     9    1
    12     9    10    1
    13    10    15    1
    14    15    16   am
    15    16    17    2
    16    16    19    1
    17    19    20    1
    18    20    21    1
    19    21    22    1
    20    22    23    1
    21    10    11    1
    22    11    12    1
    23     4    13    1
    24    13    14    1
    25    14     1    1
    26    12     7    1
    27    23    19    1
    28    15    18    1
@<TRIPOS>MOLECULE
*****
 26 28 0 0 0
SMALL
GASTEIGER

@<TRIPOS>ATOM
      1 N           0.4541    5.7150   35.1335 N.3     1  UNL1       -0.2711
      2 C           0.5508    5.5651   36.6228 C.3     1  UNL1        0.0939
      3 C           1.4086    4.4858   37.2138 C.3     1  UNL1        0.1123
      4 N           2.1696    3.5563   36.3155 N.am    1  UNL1       -0.2612
      5 C           3.0273    2.4770   36.9066 C.2     1  UNL1        0.3072
      6 O           3.1241    2.3271   38.3959 O.2     1  UNL1       -0.2523
      7 N           3.7883    1.5476   36.0083 N.am    1  UNL1       -0.2639
      8 C           3.6916    1.6974   34.5189 C.3     1  UNL1        0.0966
      9 C           4.4525    0.7679   33.6206 C.3     1  UNL1        0.0412
     10 C           5.3103   -0.3114   34.2116 C.3     1  UNL1        0.0750
     11 C           5.4071   -0.4613   35.7009 C.3     1  UNL1        0.0412
     12 C           4.6461    0.4682   36.5993 C.3     1  UNL1        0.0966
     13 C           2.0728    3.7062   34.8262 C.3     1  UNL1        0.1123
     14 C           1.2150    4.7855   34.2352 C.3     1  UNL1        0.0939
     15 N           6.0713   -1.2409   33.3132 N.am    1  UNL1       -0.3059
     16 C           5.3693   -2.3938   32.6591 C.2     1  UNL1        0.2219
     17 O           3.9063   -2.6173   32.9034 O.2     1  UNL1       -0.2751
     18 H           7.0315   -1.0942   33.1529 H       1  UNL1        0.1494
     19 C           6.1303   -3.3232   31.7608 C.3     1  UNL1        0.0765
     20 C           6.6616   -4.6746   32.1369 C.3     1  UNL1        0.0091
     21 C           7.3533   -5.2511   30.9372 C.3     1  UNL1        0.0005
     22 C           7.2495   -4.2558   29.8196 C.3     1  UNL1        0.0005
     23 C           6.4936   -3.0644   30.3287 C.3     1  UNL1        0.0091
     24 C          -1.7803    7.0399   35.0853 C.3     1  UNL1        0.0173
     25 C          -0.4037    6.7943   34.5425 C.3     1  UNL1        0.0577
     26 C           0.1151    7.6280   33.4086 C.3     1  UNL1        0.0173
@<TRIPOS>BOND
     1    24    25    1
     2    25    26    1
     3    25     1    1
     4     1     2    1
     5     2     3    1
     6     3     4    1
     7     4     5   am
     8     5     6    2
     9     5     7   am
    10     7     8    1
    11     8     9    1
    12     9    10    1
    13    10    15    1
    14    15    16   am
    15    16    17    2
    16    16    19    1
    17    19    20    1
    18    20    21    1
    19    21    22    1
    20    22    23    1
    21    10    11    1
    22    11    12    1
    23     4    13    1
    24    13    14    1
    25    14     1    1
    26    12     7    1
    27    23    19    1
    28    15    18    1
@<TRIPOS>MOLECULE
*****
 26 28 0 0 0
SMALL
GASTEIGER

@<TRIPOS>ATOM
      1 N           3.4946   -2.1926   20.1883 N.3     1  UNL1       -0.2711
      2 C           3.9692   -2.1072   21.6087 C.3     1  UNL1        0.0939
      3 C           3.3461   -1.1191   22.5496 C.3     1  UNL1        0.1123
      4 N           2.2483   -0.2163   22.0701 N.am    1  UNL1       -0.2612
      5 C           1.6251    0.7718   23.0110 C.2     1  UNL1        0.3072
      6 O           2.0998    0.8572   24.4313 O.2     1  UNL1       -0.2523
      7 N           0.5273    1.6745   22.5315 N.am    1  UNL1       -0.2639
      8 C           0.0527    1.5891   21.1111 C.3     1  UNL1        0.0966
      9 C          -1.0451    2.4918   20.6317 C.3     1  UNL1        0.0412
     10 C          -1.6683    3.4800   21.5726 C.3     1  UNL1        0.0750
     11 C          -1.1937    3.5654   22.9929 C.3     1  UNL1        0.0412
     12 C          -0.0958    2.6626   23.4724 C.3     1  UNL1        0.0966
     13 C           1.7737   -0.3017   20.6498 C.3     1  UNL1        0.1123
     14 C           2.3968   -1.2899   19.7089 C.3     1  UNL1        0.0939
     15 N          -2.7661    4.3827   21.0931 N.am    1  UNL1       -0.3059
     16 C          -4.1797    3.8834   21.0431 C.2     1  UNL1        0.2219
     17 O          -4.4954    2.4813   21.4727 O.2     1  UNL1       -0.2751
     18 H          -2.5589    5.3029   20.8111 H       1  UNL1        0.1494
     19 C          -5.2774    4.7861   20.5636 C.3     1  UNL1        0.0765
     20 C          -5.1488    5.8501   19.5141 C.3     1  UNL1        0.0091
     21 C          -6.4884    6.5049   19.3513 C.3     1  UNL1        0.0005
     22 C          -7.4450    5.8457   20.3002 C.3     1  UNL1        0.0005
     23 C          -6.6965    4.7834   21.0495 C.3     1  UNL1        0.0091
     24 C           3.6163   -4.5937   19.2035 C.3     1  UNL1        0.0173
     25 C           4.1178   -3.1807   19.2474 C.3     1  UNL1        0.0577
     26 C           5.2425   -2.7559   18.3505 C.3     1  UNL1        0.0173
@<TRIPOS>BOND
     1    24    25    1
     2    25    26    1
     3    25     1    1
     4     1     2    1
     5     2     3    1
     6     3     4    1
     7     4     5   am
     8     5     6    2
     9     5     7   am
    10     7     8    1
    11     8     9    1
    12     9    10    1
    13    10    15    1
    14    15    16   am
    15    16    17    2
    16    16    19    1
    17    19    20    1
    18    20    21    1
    19    21    22    1
    20    22    23    1
    21    10    11    1
    22    11    12    1
    23     4    13    1
    24    13    14    1
    25    14     1    1
    26    12     7    1
    27    23    19    1
    28    15    18    1
@<TRIPOS>MOLECULE
*****
 26 28 0 0 0
SMALL
GASTEIGER

@<TRIPOS>ATOM
      1 N          -4.3632    4.4985   21.0528 N.3     1  UNL1       -0.2711
      2 C          -3.6871    5.8060   20.7642 C.3     1  UNL1        0.0939
      3 C          -2.2731    5.8249   20.2640 C.3     1  UNL1        0.1123
      4 N          -1.5352    4.5363   20.0523 N.am    1  UNL1       -0.2612
      5 C          -0.1212    4.5551   19.5520 C.2     1  UNL1        0.3072
      6 O           0.5549    5.8626   19.2634 O.2     1  UNL1       -0.2523
      7 N           0.6167    3.2665   19.3403 N.am    1  UNL1       -0.2639
      8 C          -0.0593    1.9589   19.6289 C.3     1  UNL1        0.0966
      9 C           0.6786    0.6703   19.4173 C.3     1  UNL1        0.0412
     10 C           2.0926    0.6892   18.9170 C.3     1  UNL1        0.0750
     11 C           2.7686    1.9967   18.6284 C.3     1  UNL1        0.0412
     12 C           2.0307    3.2854   18.8401 C.3     1  UNL1        0.0966
     13 C          -2.2113    3.2288   20.3409 C.3     1  UNL1        0.1123
     14 C          -3.6252    3.2099   20.8412 C.3     1  UNL1        0.0939
     15 N           2.8305   -0.5996   18.7053 N.am    1  UNL1       -0.3059
     16 C           3.2080   -1.4497   19.8821 C.2     1  UNL1        0.2219
     17 O           2.8475   -1.0112   21.2705 O.2     1  UNL1       -0.2751
     18 H           3.0671   -0.8874   17.7940 H       1  UNL1        0.1494
     19 C           3.9459   -2.7383   19.6704 C.3     1  UNL1        0.0765
     20 C           5.3500   -3.0326   20.1085 C.3     1  UNL1        0.0091
     21 C           5.6811   -4.4351   19.6922 C.3     1  UNL1        0.0005
     22 C           4.4816   -5.0077   18.9969 C.3     1  UNL1        0.0005
     23 C           3.4092   -3.9590   18.9834 C.3     1  UNL1        0.0091
     24 C          -6.0797    3.9600   22.9273 C.3     1  UNL1        0.0173
     25 C          -5.7772    4.4797   21.5531 C.3     1  UNL1        0.0577
     26 C          -6.8887    4.9804   20.6792 C.3     1  UNL1        0.0173
@<TRIPOS>BOND
     1    24    25    1
     2    25    26    1
     3    25     1    1
     4     1     2    1
     5     2     3    1
     6     3     4    1
     7     4     5   am
     8     5     6    2
     9     5     7   am
    10     7     8    1
    11     8     9    1
    12     9    10    1
    13    10    15    1
    14    15    16   am
    15    16    17    2
    16    16    19    1
    17    19    20    1
    18    20    21    1
    19    21    22    1
    20    22    23    1
    21    10    11    1
    22    11    12    1
    23     4    13    1
    24    13    14    1
    25    14     1    1
    26    12     7    1
    27    23    19    1
    28    15    18    1
@<TRIPOS>MOLECULE
*****
 26 28 0 0 0
SMALL
GASTEIGER

@<TRIPOS>ATOM
      1 N           4.2988   -2.1212   19.3969 N.3     1  UNL1       -0.2711
      2 C           4.8916   -1.1616   18.4081 C.3     1  UNL1        0.0939
      3 C           4.3543    0.2350   18.3037 C.3     1  UNL1        0.1123
      4 N           3.2241    0.6719   19.1879 N.am    1  UNL1       -0.2612
      5 C           2.6868    2.0684   19.0834 C.2     1  UNL1        0.3072
      6 O           3.2796    3.0281   18.0947 O.2     1  UNL1       -0.2523
      7 N           1.5567    2.5053   19.9676 N.am    1  UNL1       -0.2639
      8 C           0.9638    1.5456   20.9564 C.3     1  UNL1        0.0966
      9 C          -0.1663    1.9825   21.8406 C.3     1  UNL1        0.0412
     10 C          -0.7036    3.3791   21.7362 C.3     1  UNL1        0.0750
     11 C          -0.1108    4.3387   20.7474 C.3     1  UNL1        0.0412
     12 C           1.0194    3.9019   19.8631 C.3     1  UNL1        0.0966
     13 C           2.6314   -0.2878   20.1766 C.3     1  UNL1        0.1123
     14 C           3.1687   -1.6843   20.2811 C.3     1  UNL1        0.0939
     15 N          -1.8338    3.8159   22.6204 N.am    1  UNL1       -0.3059
     16 C          -3.2501    3.5069   22.2352 C.2     1  UNL1        0.2219
     17 O          -3.5364    2.7611   20.9656 O.2     1  UNL1       -0.2751
     18 H          -1.6460    4.3055   23.4537 H       1  UNL1        0.1494
     19 C          -4.3802    3.9438   23.1195 C.3     1  UNL1        0.0765
     20 C          -4.4797    3.7187   24.5992 C.3     1  UNL1        0.0091
     21 C          -5.7702    4.3183   25.0735 C.3     1  UNL1        0.0005
     22 C          -6.4684    4.9139   23.8870 C.3     1  UNL1        0.0005
     23 C          -5.6093    4.6824   22.6793 C.3     1  UNL1        0.0091
     24 C           6.1976   -3.7559   20.0841 C.3     1  UNL1        0.0173
     25 C           4.8361   -3.5178   19.5013 C.3     1  UNL1        0.0577
     26 C           4.0120   -4.6762   19.0231 C.3     1  UNL1        0.0173
@<TRIPOS>BOND
     1    24    25    1
     2    25    26    1
     3    25     1    1
     4     1     2    1
     5     2     3    1
     6     3     4    1
     7     4     5   am
     8     5     6    2
     9     5     7   am
    10     7     8    1
    11     8     9    1
    12     9    10    1
    13    10    15    1
    14    15    16   am
    15    16    17    2
    16    16    19    1
    17    19    20    1
    18    20    21    1
    19    21    22    1
    20    22    23    1
    21    10    11    1
    22    11    12    1
    23     4    13    1
    24    13    14    1
    25    14     1    1
    26    12     7    1
    27    23    19    1
    28    15    18    1
@<TRIPOS>MOLECULE
*****
 26 28 0 0 0
SMALL
GASTEIGER

@<TRIPOS>ATOM
      1 N         -11.6213   -5.5563   18.7104 N.3     1  UNL1       -0.2711
      2 C         -12.6602   -6.6083   18.9632 C.3     1  UNL1        0.0939
      3 C         -14.0749   -6.2088   19.2618 C.3     1  UNL1        0.1123
      4 N         -14.4506   -4.7574   19.3076 N.am    1  UNL1       -0.2612
      5 C         -15.8653   -4.3579   19.6062 C.2     1  UNL1        0.3072
      6 O         -16.9042   -5.4099   19.8590 O.2     1  UNL1       -0.2523
      7 N         -16.2410   -2.9065   19.6521 N.am    1  UNL1       -0.2639
      8 C         -15.2020   -1.8545   19.3994 C.3     1  UNL1        0.0966
      9 C         -15.5778   -0.4030   19.4453 C.3     1  UNL1        0.0412
     10 C         -16.9924   -0.0036   19.7439 C.3     1  UNL1        0.0750
     11 C         -18.0314   -1.0555   19.9966 C.3     1  UNL1        0.0412
     12 C         -17.6557   -2.5071   19.9507 C.3     1  UNL1        0.0966
     13 C         -13.4117   -3.7054   19.0549 C.3     1  UNL1        0.1123
     14 C         -11.9970   -4.1049   18.7563 C.3     1  UNL1        0.0939
     15 N         -17.3681    1.4479   19.7897 N.am    1  UNL1       -0.3059
     16 C         -17.4920    2.1492   21.1099 C.2     1  UNL1        0.2219
     17 O         -17.2403    1.3991   22.3842 O.2     1  UNL1       -0.2751
     18 H         -17.5334    1.9403   18.9534 H       1  UNL1        0.1494
     19 C         -17.8677    3.6007   21.1557 C.3     1  UNL1        0.0765
     20 C         -17.0824    4.6942   21.8171 C.3     1  UNL1        0.0091
     21 C         -17.8240    5.9828   21.6183 C.3     1  UNL1        0.0005
     22 C         -19.0677    5.6856   20.8340 C.3     1  UNL1        0.0005
     23 C         -19.0947    4.2134   20.5481 C.3     1  UNL1        0.0091
     24 C          -9.3627   -5.1073   17.5076 C.3     1  UNL1        0.0173
     25 C         -10.2066   -5.9558   18.4118 C.3     1  UNL1        0.0577
     26 C          -9.6359   -7.2037   19.0175 C.3     1  UNL1        0.0173
@<TRIPOS>BOND
     1    24    25    1
     2    25    26    1
     3    25     1    1
     4     1     2    1
     5     2     3    1
     6     3     4    1
     7     4     5   am
     8     5     6    2
     9     5     7   am
    10     7     8    1
    11     8     9    1
    12     9    10    1
    13    10    15    1
    14    15    16   am
    15    16    17    2
    16    16    19    1
    17    19    20    1
    18    20    21    1
    19    21    22    1
    20    22    23    1
    21    10    11    1
    22    11    12    1
    23     4    13    1
    24    13    14    1
    25    14     1    1
    26    12     7    1
    27    23    19    1
    28    15    18    1
