@<TRIPOS>MOLECULE
*****
 37 40 0 0 0
SMALL
GASTEIGER

@<TRIPOS>ATOM
      1 C           1.9722    0.0268   20.3971 C.ar    1  UNL1       -0.0224
      2 C           2.5122   -0.9097   19.3572 C.ar    1  UNL1       -0.0041
      3 C           3.4518   -2.0095   19.7539 C.ar    1  UNL1        0.0042
      4 C           3.8515   -2.1727   21.1905 C.ar    1  UNL1        0.0537
      5 C           3.3115   -1.2362   22.2303 C.ar    1  UNL1        0.0042
      6 C           2.3719   -0.1364   21.8336 C.ar    1  UNL1       -0.0041
      7 N          -0.8469    3.3264   19.2070 N.3     1  UNL1       -0.2689
      8 C           0.0962    2.7446   18.1960 C.3     1  UNL1        0.0727
      9 C           1.0359    1.6448   18.5927 C.3     1  UNL1        0.0217
     10 C           1.0325    1.1267   20.0004 C.3     1  UNL1        0.0251
     11 C           0.0894    1.7085   21.0114 C.3     1  UNL1        0.0217
     12 C          -0.8503    2.8084   20.6147 C.3     1  UNL1        0.0727
     13 C          -1.7865    4.4262   18.8103 C.3     1  UNL1        0.0991
     14 C          -5.6110    5.0524   21.0975 C.ar    1  UNL1        0.0536
     15 C          -5.4675    3.8702   20.1856 C.ar    1  UNL1        0.0042
     16 C          -4.1926    3.6614   19.4232 C.ar    1  UNL1       -0.0028
     17 C          -3.0614    4.6350   19.5727 C.ar    1  UNL1       -0.0061
     18 C          -3.2049    5.8172   20.4846 C.ar    1  UNL1       -0.0028
     19 C          -4.4797    6.0260   21.2470 C.ar    1  UNL1        0.0042
     20 C          -8.2825    4.9695   24.0311 C.3     1  UNL1        0.1152
     21 N          -7.0077    4.7608   23.2687 N.am    1  UNL1       -0.2726
     22 C          -5.8547    4.0516   23.9151 C.3     1  UNL1        0.1152
     23 C          -6.8858    5.2612   21.8599 C.2     1  UNL1        0.2491
     24 O          -8.0388    5.9703   21.2135 O.2     1  UNL1       -0.2699
     25 C           4.7912   -3.2726   21.5871 C.2     1  UNL1        0.2495
     26 O           4.4237   -4.7034   21.3268 O.2     1  UNL1       -0.2698
     27 N           6.0984   -2.9417   22.2441 N.am    1  UNL1       -0.2794
     28 H           6.3397   -2.0026   22.4150 H       1  UNL1        0.1552
     29 C           7.0381   -4.0415   22.6408 C.ar    1  UNL1        0.0636
     30 C           7.9759   -4.6286   21.6278 C.ar    1  UNL1        0.0159
     31 C           8.9155   -5.7284   22.0244 C.ar    1  UNL1        0.0014
     32 C           8.9174   -6.2413   23.4340 C.ar    1  UNL1        0.0013
     33 C           7.9797   -5.6543   24.4470 C.ar    1  UNL1        0.0153
     34 C           7.0400   -4.5544   24.0504 C.ar    1  UNL1        0.0552
     35 N           6.1023   -3.9675   25.0633 N.pl3   1  UNL1       -0.3560
     36 H           6.1035   -4.3041   25.9885 H       1  UNL1        0.1424
     37 H           5.4855   -3.2456   24.8030 H       1  UNL1        0.1424
@<TRIPOS>BOND
     1    20    21    1
     2    21    22    1
     3    21    23   am
     4    23    24    2
     5    23    14    1
     6    14    15   ar
     7    15    16   ar
     8    16    17   ar
     9    17    13    1
    10    13     7    1
    11     7     8    1
    12     8     9    1
    13     9    10    1
    14    10     1    1
    15     1     2   ar
    16     2     3   ar
    17     3     4   ar
    18     4    25    1
    19    25    26    2
    20    25    27   am
    21    27    29    1
    22    29    30   ar
    23    30    31   ar
    24    31    32   ar
    25    32    33   ar
    26    33    34   ar
    27    34    35    1
    28     4     5   ar
    29     5     6   ar
    30    10    11    1
    31    11    12    1
    32    17    18   ar
    33    18    19   ar
    34    19    14   ar
    35    12     7    1
    36     6     1   ar
    37    34    29   ar
    38    27    28    1
    39    35    36    1
    40    35    37    1
@<TRIPOS>MOLECULE
*****
 37 40 0 0 0
SMALL
GASTEIGER

@<TRIPOS>ATOM
      1 C           0.4255    1.6061   26.9469 C.ar    1  UNL1       -0.0224
      2 C           0.5670    1.6916   25.4561 C.ar    1  UNL1       -0.0041
      3 C          -0.4894    2.3763   24.6406 C.ar    1  UNL1        0.0042
      4 C          -1.6873    2.9755   25.3159 C.ar    1  UNL1        0.0537
      5 C          -1.8288    2.8900   26.8068 C.ar    1  UNL1        0.0042
      6 C          -0.7724    2.2052   27.6222 C.ar    1  UNL1       -0.0041
      7 N           3.5949   -0.4482   29.3936 N.3     1  UNL1       -0.2689
      8 C           3.9763    0.3109   28.1572 C.3     1  UNL1        0.0727
      9 C           2.9198    0.9956   27.3417 C.3     1  UNL1        0.0217
     10 C           1.4820    0.9213   27.7625 C.3     1  UNL1        0.0251
     11 C           1.1005    0.1623   28.9988 C.3     1  UNL1        0.0217
     12 C           2.1570   -0.5224   29.8143 C.3     1  UNL1        0.0727
     13 C           4.6513   -1.1329   30.2091 C.3     1  UNL1        0.0991
     14 C           5.0632   -0.2050   34.5931 C.ar    1  UNL1        0.0536
     15 C           4.3855   -1.4693   34.1545 C.ar    1  UNL1        0.0042
     16 C           4.2482   -1.7786   32.6931 C.ar    1  UNL1       -0.0028
     17 C           4.7886   -0.8236   31.6704 C.ar    1  UNL1       -0.0061
     18 C           5.4662    0.4407   32.1090 C.ar    1  UNL1       -0.0028
     19 C           5.6035    0.7499   33.5704 C.ar    1  UNL1        0.0042
     20 C           4.4347    1.4255   38.1563 C.3     1  UNL1        0.1152
     21 N           4.2974    1.1162   36.6949 N.am    1  UNL1       -0.2726
     22 C           3.2569    1.8189   35.8741 C.3     1  UNL1        0.1152
     23 C           5.2005    0.1042   36.0544 C.2     1  UNL1        0.2491
     24 O           6.2409   -0.5984   36.8752 O.2     1  UNL1       -0.2699
     25 C          -2.7438    3.6603   24.5003 C.2     1  UNL1        0.2495
     26 O          -2.6412    5.1308   24.2227 O.2     1  UNL1       -0.2698
     27 N          -3.9027    2.8745   23.9624 N.am    1  UNL1       -0.2794
     28 H          -3.9701    1.9094   24.1447 H       1  UNL1        0.1552
     29 C          -4.9591    3.5593   23.1469 C.ar    1  UNL1        0.0636
     30 C          -6.0369    4.3501   23.8275 C.ar    1  UNL1        0.0159
     31 C          -7.0933    5.0348   23.0120 C.ar    1  UNL1        0.0014
     32 C          -7.0719    4.9289   21.5159 C.ar    1  UNL1        0.0013
     33 C          -5.9942    4.1382   20.8353 C.ar    1  UNL1        0.0153
     34 C          -4.9377    3.4533   21.6508 C.ar    1  UNL1        0.0552
     35 N          -3.8600    2.6626   20.9702 N.pl3   1  UNL1       -0.3560
     36 H          -3.8460    2.5931   19.9883 H       1  UNL1        0.1424
     37 H          -3.1666    2.2132   21.5055 H       1  UNL1        0.1424
@<TRIPOS>BOND
     1    20    21    1
     2    21    22    1
     3    21    23   am
     4    23    24    2
     5    23    14    1
     6    14    15   ar
     7    15    16   ar
     8    16    17   ar
     9    17    13    1
    10    13     7    1
    11     7     8    1
    12     8     9    1
    13     9    10    1
    14    10     1    1
    15     1     2   ar
    16     2     3   ar
    17     3     4   ar
    18     4    25    1
    19    25    26    2
    20    25    27   am
    21    27    29    1
    22    29    30   ar
    23    30    31   ar
    24    31    32   ar
    25    32    33   ar
    26    33    34   ar
    27    34    35    1
    28     4     5   ar
    29     5     6   ar
    30    10    11    1
    31    11    12    1
    32    17    18   ar
    33    18    19   ar
    34    19    14   ar
    35    12     7    1
    36     6     1   ar
    37    34    29   ar
    38    27    28    1
    39    35    36    1
    40    35    37    1
@<TRIPOS>MOLECULE
*****
 37 40 0 0 0
SMALL
GASTEIGER

@<TRIPOS>ATOM
      1 C          -0.8673    2.5039   20.8952 C.ar    1  UNL1       -0.0224
      2 C          -2.0686    2.9133   20.0957 C.ar    1  UNL1       -0.0041
      3 C          -3.1647    3.7074   20.7422 C.ar    1  UNL1        0.0042
      4 C          -3.0595    4.0919   22.1882 C.ar    1  UNL1        0.0537
      5 C          -1.8583    3.6825   22.9877 C.ar    1  UNL1        0.0042
      6 C          -0.7622    2.8885   22.3412 C.ar    1  UNL1       -0.0041
      7 N           2.4211    0.1217   18.9557 N.3     1  UNL1       -0.2689
      8 C           1.4754   -0.5445   19.9106 C.3     1  UNL1        0.0727
      9 C           0.3793    0.2496   20.5571 C.3     1  UNL1        0.0217
     10 C           0.2288    1.7098   20.2487 C.3     1  UNL1        0.0251
     11 C           1.1745    2.3760   19.2938 C.3     1  UNL1        0.0217
     12 C           2.2707    1.5819   18.6473 C.3     1  UNL1        0.0727
     13 C           3.5172   -0.6724   18.3093 C.3     1  UNL1        0.0991
     14 C           6.1169   -3.3667   20.8058 C.ar    1  UNL1        0.0536
     15 C           6.5148   -1.9380   20.5814 C.ar    1  UNL1        0.0042
     16 C           5.6483   -1.0399   19.7492 C.ar    1  UNL1       -0.0028
     17 C           4.3838   -1.5705   19.1414 C.ar    1  UNL1       -0.0061
     18 C           3.9858   -2.9992   19.3658 C.ar    1  UNL1       -0.0028
     19 C           4.8524   -3.8973   20.1980 C.ar    1  UNL1        0.0042
     20 C           7.6511   -5.2313   23.9554 C.3     1  UNL1        0.1152
     21 N           6.7845   -4.3332   23.1232 N.am    1  UNL1       -0.2726
     22 C           5.7190   -3.5034   23.7762 C.3     1  UNL1        0.1152
     23 C           6.9834   -4.2648   21.6380 C.2     1  UNL1        0.2491
     24 O           8.0488   -5.0945   20.9851 O.2     1  UNL1       -0.2699
     25 C          -4.1557    4.8860   22.8347 C.2     1  UNL1        0.2495
     26 O          -4.4819    6.2613   22.3326 O.2     1  UNL1       -0.2698
     27 N          -4.9257    4.3048   23.9833 N.am    1  UNL1       -0.2794
     28 H          -4.7116    3.4021   24.3128 H       1  UNL1        0.1552
     29 C          -6.0218    5.0988   24.6297 C.ar    1  UNL1        0.0636
     30 C          -5.7032    6.0417   25.7521 C.ar    1  UNL1        0.0159
     31 C          -6.7993    6.8357   26.3986 C.ar    1  UNL1        0.0014
     32 C          -8.2141    6.6870   25.9227 C.ar    1  UNL1        0.0013
     33 C          -8.5327    5.7443   24.8004 C.ar    1  UNL1        0.0153
     34 C          -7.4365    4.9502   24.1539 C.ar    1  UNL1        0.0552
     35 N          -7.7551    4.0074   23.0315 N.pl3   1  UNL1       -0.3560
     36 H          -8.6837    3.9098   22.7192 H       1  UNL1        0.1424
     37 H          -7.0357    3.4862   22.6072 H       1  UNL1        0.1424
@<TRIPOS>BOND
     1    20    21    1
     2    21    22    1
     3    21    23   am
     4    23    24    2
     5    23    14    1
     6    14    15   ar
     7    15    16   ar
     8    16    17   ar
     9    17    13    1
    10    13     7    1
    11     7     8    1
    12     8     9    1
    13     9    10    1
    14    10     1    1
    15     1     2   ar
    16     2     3   ar
    17     3     4   ar
    18     4    25    1
    19    25    26    2
    20    25    27   am
    21    27    29    1
    22    29    30   ar
    23    30    31   ar
    24    31    32   ar
    25    32    33   ar
    26    33    34   ar
    27    34    35    1
    28     4     5   ar
    29     5     6   ar
    30    10    11    1
    31    11    12    1
    32    17    18   ar
    33    18    19   ar
    34    19    14   ar
    35    12     7    1
    36     6     1   ar
    37    34    29   ar
    38    27    28    1
    39    35    36    1
    40    35    37    1
@<TRIPOS>MOLECULE
*****
 37 40 0 0 0
SMALL
GASTEIGER

@<TRIPOS>ATOM
      1 C           3.0326   -0.8786   22.3210 C.ar    1  UNL1       -0.0224
      2 C           3.5862   -1.9137   21.3872 C.ar    1  UNL1       -0.0041
      3 C           4.5663   -2.9311   21.8914 C.ar    1  UNL1        0.0042
      4 C           4.9927   -2.9134   23.3294 C.ar    1  UNL1        0.0537
      5 C           4.4391   -1.8783   24.2632 C.ar    1  UNL1        0.0042
      6 C           3.4590   -0.8609   23.7590 C.ar    1  UNL1       -0.0041
      7 N           0.0922    2.1738   20.8084 N.3     1  UNL1       -0.2689
      8 C           0.1493    0.8122   20.1814 C.3     1  UNL1        0.0727
      9 C           1.1294   -0.2052   20.6856 C.3     1  UNL1        0.0217
     10 C           2.0524    0.1389   21.8168 C.3     1  UNL1        0.0251
     11 C           1.9954    1.5003   22.4438 C.3     1  UNL1        0.0217
     12 C           1.0153    2.5178   21.9396 C.3     1  UNL1        0.0727
     13 C          -0.8879    3.1912   20.3042 C.3     1  UNL1        0.0991
     14 C          -4.4222    4.3573   22.8338 C.ar    1  UNL1        0.0536
     15 C          -3.0561    4.8792   23.1677 C.ar    1  UNL1        0.0042
     16 C          -1.8780    4.4905   22.3245 C.ar    1  UNL1       -0.0028
     17 C          -2.0660    3.5799   21.1474 C.ar    1  UNL1       -0.0061
     18 C          -3.4320    3.0581   20.8135 C.ar    1  UNL1       -0.0028
     19 C          -4.6102    3.4468   21.6567 C.ar    1  UNL1        0.0042
     20 C          -7.6317    6.3029   24.1237 C.3     1  UNL1        0.1152
     21 N          -6.4536    5.9142   23.2805 N.am    1  UNL1       -0.2726
     22 C          -6.1288    6.6937   22.0407 C.3     1  UNL1        0.1152
     23 C          -5.6003    4.7461   23.6770 C.2     1  UNL1        0.2491
     24 O          -5.9251    3.9666   24.9167 O.2     1  UNL1       -0.2699
     25 C           5.9728   -3.9309   23.8336 C.2     1  UNL1        0.2495
     26 O           6.6718   -4.8416   22.8682 O.2     1  UNL1       -0.2698
     27 N           6.2539   -4.0377   25.3032 N.am    1  UNL1       -0.2794
     28 H           5.7951   -3.4400   25.9368 H       1  UNL1        0.1552
     29 C           7.2340   -5.0551   25.8073 C.ar    1  UNL1        0.0636
     30 C           8.5554   -5.2290   25.1190 C.ar    1  UNL1        0.0159
     31 C           9.5355   -6.2464   25.6231 C.ar    1  UNL1        0.0014
     32 C           9.1942   -7.0901   26.8155 C.ar    1  UNL1        0.0013
     33 C           7.8729   -6.9163   27.5037 C.ar    1  UNL1        0.0153
     34 C           6.8927   -5.8988   26.9996 C.ar    1  UNL1        0.0552
     35 N           5.5713   -5.7251   27.6879 N.pl3   1  UNL1       -0.3560
     36 H           5.3473   -6.2788   28.4704 H       1  UNL1        0.1424
     37 H           4.9280   -5.0573   27.3570 H       1  UNL1        0.1424
@<TRIPOS>BOND
     1    20    21    1
     2    21    22    1
     3    21    23   am
     4    23    24    2
     5    23    14    1
     6    14    15   ar
     7    15    16   ar
     8    16    17   ar
     9    17    13    1
    10    13     7    1
    11     7     8    1
    12     8     9    1
    13     9    10    1
    14    10     1    1
    15     1     2   ar
    16     2     3   ar
    17     3     4   ar
    18     4    25    1
    19    25    26    2
    20    25    27   am
    21    27    29    1
    22    29    30   ar
    23    30    31   ar
    24    31    32   ar
    25    32    33   ar
    26    33    34   ar
    27    34    35    1
    28     4     5   ar
    29     5     6   ar
    30    10    11    1
    31    11    12    1
    32    17    18   ar
    33    18    19   ar
    34    19    14   ar
    35    12     7    1
    36     6     1   ar
    37    34    29   ar
    38    27    28    1
    39    35    36    1
    40    35    37    1
@<TRIPOS>MOLECULE
*****
 37 40 0 0 0
SMALL
GASTEIGER

@<TRIPOS>ATOM
      1 C          -0.7359    2.3554   25.9421 C.ar    1  UNL1       -0.0224
      2 C          -0.2053    2.2800   24.5412 C.ar    1  UNL1       -0.0041
      3 C          -1.0059    2.8434   23.4047 C.ar    1  UNL1        0.0042
      4 C          -2.3371    3.4821   23.6692 C.ar    1  UNL1        0.0537
      5 C          -2.8677    3.5575   25.0702 C.ar    1  UNL1        0.0042
      6 C          -2.0671    2.9941   26.2066 C.ar    1  UNL1       -0.0041
      7 N           1.6659    0.6652   29.3518 N.3     1  UNL1       -0.2689
      8 C           0.2887    0.1406   29.0719 C.3     1  UNL1        0.0727
      9 C          -0.5118    0.7040   27.9354 C.3     1  UNL1        0.0217
     10 C           0.0647    1.7920   27.0787 C.3     1  UNL1        0.0251
     11 C           1.4418    2.3166   27.3586 C.3     1  UNL1        0.0217
     12 C           2.2424    1.7532   28.4951 C.3     1  UNL1        0.0727
     13 C           2.4664    0.1018   30.4883 C.3     1  UNL1        0.0991
     14 C           2.6515    2.2937   34.4140 C.ar    1  UNL1        0.0536
     15 C           1.6316    2.6827   33.3853 C.ar    1  UNL1        0.0042
     16 C           1.5699    1.9520   32.0767 C.ar    1  UNL1       -0.0028
     17 C           2.5281    0.8325   31.7969 C.ar    1  UNL1       -0.0061
     18 C           3.5480    0.4435   32.8257 C.ar    1  UNL1       -0.0028
     19 C           3.6097    1.1741   34.1342 C.ar    1  UNL1        0.0042
     20 C           3.6536    4.9620   37.1755 C.3     1  UNL1        0.1152
     21 N           3.5919    4.2314   35.8670 N.am    1  UNL1       -0.2726
     22 C           4.4089    4.7079   34.7027 C.3     1  UNL1        0.1152
     23 C           2.7133    3.0243   35.7226 C.2     1  UNL1        0.2491
     24 O           1.8963    2.5479   36.8869 O.2     1  UNL1       -0.2699
     25 C          -3.1377    4.0455   22.5327 C.2     1  UNL1        0.2495
     26 O          -3.0733    5.5121   22.2244 O.2     1  UNL1       -0.2698
     27 N          -4.0027    3.1424   21.7044 N.am    1  UNL1       -0.2794
     28 H          -4.0450    2.1798   21.9067 H       1  UNL1        0.1552
     29 C          -4.8032    3.7058   20.5679 C.ar    1  UNL1        0.0636
     30 C          -4.2286    3.7242   19.1824 C.ar    1  UNL1        0.0159
     31 C          -5.0292    4.2876   18.0459 C.ar    1  UNL1        0.0014
     32 C          -6.4043    4.8326   18.2949 C.ar    1  UNL1        0.0013
     33 C          -6.9789    4.8142   19.6803 C.ar    1  UNL1        0.0153
     34 C          -6.1784    4.2508   20.8169 C.ar    1  UNL1        0.0552
     35 N          -6.7529    4.2324   22.2023 N.pl3   1  UNL1       -0.3560
     36 H          -7.6555    4.5901   22.3657 H       1  UNL1        0.1424
     37 H          -6.2275    3.8626   22.9482 H       1  UNL1        0.1424
@<TRIPOS>BOND
     1    20    21    1
     2    21    22    1
     3    21    23   am
     4    23    24    2
     5    23    14    1
     6    14    15   ar
     7    15    16   ar
     8    16    17   ar
     9    17    13    1
    10    13     7    1
    11     7     8    1
    12     8     9    1
    13     9    10    1
    14    10     1    1
    15     1     2   ar
    16     2     3   ar
    17     3     4   ar
    18     4    25    1
    19    25    26    2
    20    25    27   am
    21    27    29    1
    22    29    30   ar
    23    30    31   ar
    24    31    32   ar
    25    32    33   ar
    26    33    34   ar
    27    34    35    1
    28     4     5   ar
    29     5     6   ar
    30    10    11    1
    31    11    12    1
    32    17    18   ar
    33    18    19   ar
    34    19    14   ar
    35    12     7    1
    36     6     1   ar
    37    34    29   ar
    38    27    28    1
    39    35    36    1
    40    35    37    1
@<TRIPOS>MOLECULE
*****
 37 40 0 0 0
SMALL
GASTEIGER

@<TRIPOS>ATOM
      1 C          -0.2088    1.9934   27.3077 C.ar    1  UNL1       -0.0224
      2 C          -1.4930    2.7088   27.6064 C.ar    1  UNL1       -0.0041
      3 C          -2.3356    3.2374   26.4837 C.ar    1  UNL1        0.0042
      4 C          -1.8941    3.0506   25.0623 C.ar    1  UNL1        0.0537
      5 C          -0.6099    2.3353   24.7637 C.ar    1  UNL1        0.0042
      6 C           0.2327    1.8067   25.8864 C.ar    1  UNL1       -0.0041
      7 N           2.3193    0.4076   30.6758 N.3     1  UNL1       -0.2689
      8 C           2.0787    1.8827   30.5489 C.3     1  UNL1        0.0727
      9 C           1.2360    2.4113   29.4262 C.3     1  UNL1        0.0217
     10 C           0.6339    1.4648   28.4304 C.3     1  UNL1        0.0251
     11 C           0.8745   -0.0103   28.5573 C.3     1  UNL1        0.0217
     12 C           1.7172   -0.5390   29.6801 C.3     1  UNL1        0.0727
     13 C           3.1620   -0.1210   31.7985 C.3     1  UNL1        0.0991
     14 C           6.7807   -2.6412   30.9020 C.ar    1  UNL1        0.0536
     15 C           5.9406   -2.9375   32.1088 C.ar    1  UNL1        0.0042
     16 C           4.7344   -2.0975   32.4076 C.ar    1  UNL1       -0.0028
     17 C           4.3682   -0.9611   31.4997 C.ar    1  UNL1       -0.0061
     18 C           5.2083   -0.6647   30.2929 C.ar    1  UNL1       -0.0028
     19 C           6.4146   -1.5047   29.9941 C.ar    1  UNL1        0.0042
     20 C           9.0708   -5.5169   29.4069 C.3     1  UNL1        0.1152
     21 N           7.8646   -4.6768   29.7057 N.am    1  UNL1       -0.2726
     22 C           6.5359   -5.0325   29.1070 C.3     1  UNL1        0.1152
     23 C           7.9869   -3.4812   30.6032 C.2     1  UNL1        0.2491
     24 O           9.3155   -3.1257   31.2018 O.2     1  UNL1       -0.2699
     25 C          -2.7368    3.5793   23.9396 C.2     1  UNL1        0.2495
     26 O          -2.3743    4.8744   23.2753 O.2     1  UNL1       -0.2698
     27 N          -3.9419    2.8128   23.4812 N.am    1  UNL1       -0.2794
     28 H          -4.1798    1.9628   23.9172 H       1  UNL1        0.1552
     29 C          -4.7846    3.3415   22.3586 C.ar    1  UNL1        0.0636
     30 C          -4.3124    3.2113   20.9407 C.ar    1  UNL1        0.0159
     31 C          -5.1550    3.7400   19.8181 C.ar    1  UNL1        0.0014
     32 C          -6.4699    4.3988   20.1132 C.ar    1  UNL1        0.0013
     33 C          -6.9421    4.5290   21.5309 C.ar    1  UNL1        0.0153
     34 C          -6.0995    4.0003   22.6536 C.ar    1  UNL1        0.0552
     35 N          -6.5717    4.1305   24.0714 N.pl3   1  UNL1       -0.3560
     36 H          -7.4347    4.5629   24.2650 H       1  UNL1        0.1424
     37 H          -6.0186    3.7835   24.8082 H       1  UNL1        0.1424
@<TRIPOS>BOND
     1    20    21    1
     2    21    22    1
     3    21    23   am
     4    23    24    2
     5    23    14    1
     6    14    15   ar
     7    15    16   ar
     8    16    17   ar
     9    17    13    1
    10    13     7    1
    11     7     8    1
    12     8     9    1
    13     9    10    1
    14    10     1    1
    15     1     2   ar
    16     2     3   ar
    17     3     4   ar
    18     4    25    1
    19    25    26    2
    20    25    27   am
    21    27    29    1
    22    29    30   ar
    23    30    31   ar
    24    31    32   ar
    25    32    33   ar
    26    33    34   ar
    27    34    35    1
    28     4     5   ar
    29     5     6   ar
    30    10    11    1
    31    11    12    1
    32    17    18   ar
    33    18    19   ar
    34    19    14   ar
    35    12     7    1
    36     6     1   ar
    37    34    29   ar
    38    27    28    1
    39    35    36    1
    40    35    37    1
@<TRIPOS>MOLECULE
*****
 37 40 0 0 0
SMALL
GASTEIGER

@<TRIPOS>ATOM
      1 C          -0.7346    2.5440   25.9964 C.ar    1  UNL1       -0.0224
      2 C          -2.0925    3.1697   26.1167 C.ar    1  UNL1       -0.0041
      3 C          -2.8142    3.6376   24.8879 C.ar    1  UNL1        0.0042
      4 C          -2.1781    3.4799   23.5387 C.ar    1  UNL1        0.0537
      5 C          -0.8201    2.8542   23.4183 C.ar    1  UNL1        0.0042
      6 C          -0.0984    2.3862   24.6472 C.ar    1  UNL1       -0.0041
      7 N           1.4308    1.1401   29.6830 N.3     1  UNL1       -0.2689
      8 C           2.0733    2.1441   28.7723 C.3     1  UNL1        0.0727
      9 C           1.3515    2.6120   27.5435 C.3     1  UNL1        0.0217
     10 C          -0.0128    2.0760   27.2253 C.3     1  UNL1        0.0251
     11 C          -0.6554    1.0721   28.1359 C.3     1  UNL1        0.0217
     12 C           0.0664    0.6041   29.3648 C.3     1  UNL1        0.0727
     13 C           2.1526    0.6722   30.9118 C.3     1  UNL1        0.0991
     14 C           2.1757    3.2256   34.6171 C.ar    1  UNL1        0.0536
     15 C           1.2742    3.5758   33.4705 C.ar    1  UNL1        0.0042
     16 C           1.2665    2.7247   32.2354 C.ar    1  UNL1       -0.0028
     17 C           2.1603    1.5233   32.1469 C.ar    1  UNL1       -0.0061
     18 C           3.0617    1.1731   33.2934 C.ar    1  UNL1       -0.0028
     19 C           3.0694    2.0243   34.5286 C.ar    1  UNL1        0.0042
     20 C           3.1077    6.1119   37.1765 C.3     1  UNL1        0.1152
     21 N           3.1000    5.2607   35.9414 N.am    1  UNL1       -0.2726
     22 C           4.0090    5.5936   34.7955 C.3     1  UNL1        0.1152
     23 C           2.1834    4.0768   35.8522 C.2     1  UNL1        0.2491
     24 O           1.2745    3.7439   36.9981 O.2     1  UNL1       -0.2699
     25 C          -2.8999    3.9478   22.3098 C.2     1  UNL1        0.2495
     26 O          -3.4298    5.3493   22.2393 O.2     1  UNL1       -0.2698
     27 N          -3.0917    3.0143   21.1515 N.am    1  UNL1       -0.2794
     28 H          -2.7439    2.0945   21.1978 H       1  UNL1        0.1552
     29 C          -3.8135    3.4823   19.9227 C.ar    1  UNL1        0.0636
     30 C          -5.3091    3.3920   19.8513 C.ar    1  UNL1        0.0159
     31 C          -6.0309    3.8600   18.6225 C.ar    1  UNL1        0.0014
     32 C          -5.2571    4.4183   17.4651 C.ar    1  UNL1        0.0013
     33 C          -3.7615    4.5086   17.5365 C.ar    1  UNL1        0.0153
     34 C          -3.0397    4.0406   18.7653 C.ar    1  UNL1        0.0552
     35 N          -1.5441    4.1309   18.8367 N.pl3   1  UNL1       -0.3560
     36 H          -1.0363    4.4974   18.0771 H       1  UNL1        0.1424
     37 H          -1.0704    3.8238   19.6432 H       1  UNL1        0.1424
@<TRIPOS>BOND
     1    20    21    1
     2    21    22    1
     3    21    23   am
     4    23    24    2
     5    23    14    1
     6    14    15   ar
     7    15    16   ar
     8    16    17   ar
     9    17    13    1
    10    13     7    1
    11     7     8    1
    12     8     9    1
    13     9    10    1
    14    10     1    1
    15     1     2   ar
    16     2     3   ar
    17     3     4   ar
    18     4    25    1
    19    25    26    2
    20    25    27   am
    21    27    29    1
    22    29    30   ar
    23    30    31   ar
    24    31    32   ar
    25    32    33   ar
    26    33    34   ar
    27    34    35    1
    28     4     5   ar
    29     5     6   ar
    30    10    11    1
    31    11    12    1
    32    17    18   ar
    33    18    19   ar
    34    19    14   ar
    35    12     7    1
    36     6     1   ar
    37    34    29   ar
    38    27    28    1
    39    35    36    1
    40    35    37    1
@<TRIPOS>MOLECULE
*****
 37 40 0 0 0
SMALL
GASTEIGER

@<TRIPOS>ATOM
      1 C           6.0737   -2.3980   32.3706 C.ar    1  UNL1       -0.0224
      2 C           4.7699   -2.6099   33.0813 C.ar    1  UNL1       -0.0041
      3 C           4.2859   -1.5985   34.0776 C.ar    1  UNL1        0.0042
      4 C           5.1056   -0.3752   34.3632 C.ar    1  UNL1        0.0537
      5 C           6.4094   -0.1634   33.6525 C.ar    1  UNL1        0.0042
      6 C           6.8934   -1.1748   32.6562 C.ar    1  UNL1       -0.0041
      7 N           7.5259   -5.4322   29.3814 N.3     1  UNL1       -0.2689
      8 C           7.2627   -4.0201   28.9493 C.3     1  UNL1        0.0727
      9 C           6.7786   -3.0088   29.9457 C.3     1  UNL1        0.0217
     10 C           6.5578   -3.4095   31.3742 C.3     1  UNL1        0.0251
     11 C           6.8210   -4.8215   31.8063 C.3     1  UNL1        0.0217
     12 C           7.3051   -5.8329   30.8099 C.3     1  UNL1        0.0727
     13 C           8.0100   -6.4436   28.3850 C.3     1  UNL1        0.0991
     14 C           8.2891   -5.3544   24.0277 C.ar    1  UNL1        0.0536
     15 C           6.9509   -5.4079   24.7032 C.ar    1  UNL1        0.0042
     16 C           6.8579   -5.7709   26.1557 C.ar    1  UNL1       -0.0028
     17 C           8.1030   -6.0805   26.9326 C.ar    1  UNL1       -0.0061
     18 C           9.4412   -6.0270   26.2571 C.ar    1  UNL1       -0.0028
     19 C           9.5342   -5.6639   24.8047 C.ar    1  UNL1        0.0042
     20 C           8.4959   -3.1863   20.7101 C.3     1  UNL1        0.1152
     21 N           8.4029   -3.5494   22.1625 N.am    1  UNL1       -0.2726
     22 C           8.3306   -2.4705   23.2022 C.3     1  UNL1        0.1152
     23 C           8.3821   -4.9913   22.5753 C.2     1  UNL1        0.2491
     24 O           8.4543   -6.0701   21.5357 O.2     1  UNL1       -0.2699
     25 C           4.6215    0.6362   35.3596 C.2     1  UNL1        0.2495
     26 O           4.3285    2.0404   34.9210 O.2     1  UNL1       -0.2698
     27 N           4.4305    0.2434   36.7946 N.am    1  UNL1       -0.2794
     28 H           4.6228   -0.6782   37.0825 H       1  UNL1        0.1552
     29 C           3.9464    1.2548   37.7909 C.ar    1  UNL1        0.0636
     30 C           2.4859    1.3423   38.1218 C.ar    1  UNL1        0.0159
     31 C           2.0018    2.3537   39.1181 C.ar    1  UNL1        0.0014
     32 C           2.9782    3.2777   39.7836 C.ar    1  UNL1        0.0013
     33 C           4.4386    3.1903   39.4528 C.ar    1  UNL1        0.0153
     34 C           4.9228    2.1789   38.4564 C.ar    1  UNL1        0.0552
     35 N           6.3832    2.0915   38.1256 N.pl3   1  UNL1       -0.3560
     36 H           7.0240    2.6980   38.5624 H       1  UNL1        0.1424
     37 H           6.7009    1.4277   37.4717 H       1  UNL1        0.1424
@<TRIPOS>BOND
     1    20    21    1
     2    21    22    1
     3    21    23   am
     4    23    24    2
     5    23    14    1
     6    14    15   ar
     7    15    16   ar
     8    16    17   ar
     9    17    13    1
    10    13     7    1
    11     7     8    1
    12     8     9    1
    13     9    10    1
    14    10     1    1
    15     1     2   ar
    16     2     3   ar
    17     3     4   ar
    18     4    25    1
    19    25    26    2
    20    25    27   am
    21    27    29    1
    22    29    30   ar
    23    30    31   ar
    24    31    32   ar
    25    32    33   ar
    26    33    34   ar
    27    34    35    1
    28     4     5   ar
    29     5     6   ar
    30    10    11    1
    31    11    12    1
    32    17    18   ar
    33    18    19   ar
    34    19    14   ar
    35    12     7    1
    36     6     1   ar
    37    34    29   ar
    38    27    28    1
    39    35    36    1
    40    35    37    1
@<TRIPOS>MOLECULE
*****
 37 40 0 0 0
SMALL
GASTEIGER

@<TRIPOS>ATOM
      1 C           1.9682    0.0014   21.4202 C.ar    1  UNL1       -0.0224
      2 C           2.6509   -0.1883   22.7423 C.ar    1  UNL1       -0.0041
      3 C           3.6398   -1.3016   22.9227 C.ar    1  UNL1        0.0042
      4 C           3.9460   -2.2252   21.7812 C.ar    1  UNL1        0.0537
      5 C           3.2633   -2.0356   20.4591 C.ar    1  UNL1        0.0042
      6 C           2.2743   -0.9223   20.2787 C.ar    1  UNL1       -0.0041
      7 N          -0.9987    3.3413   20.8787 N.3     1  UNL1       -0.2689
      8 C          -0.5112    2.9864   22.2522 C.3     1  UNL1        0.0727
      9 C           0.4777    1.8732   22.4327 C.3     1  UNL1        0.0217
     10 C           0.9792    1.1147   21.2397 C.3     1  UNL1        0.0251
     11 C           0.4918    1.4695   19.8662 C.3     1  UNL1        0.0217
     12 C          -0.4972    2.5828   19.6857 C.3     1  UNL1        0.0727
     13 C          -1.9876    4.4546   20.6982 C.3     1  UNL1        0.0991
     14 C          -5.1339    5.1987   23.8281 C.ar    1  UNL1        0.0536
     15 C          -4.1489    6.2763   23.4838 C.ar    1  UNL1        0.0042
     16 C          -3.1001    6.0282   22.4405 C.ar    1  UNL1       -0.0028
     17 C          -3.0364    4.7026   21.7415 C.ar    1  UNL1       -0.0061
     18 C          -4.0214    3.6251   22.0858 C.ar    1  UNL1       -0.0028
     19 C          -5.0702    3.8731   23.1291 C.ar    1  UNL1        0.0042
     20 C          -8.5628    6.2619   25.5200 C.3     1  UNL1        0.1152
     21 N          -7.5140    6.0139   24.4766 N.am    1  UNL1       -0.2726
     22 C          -7.7966    6.3330   23.0384 C.3     1  UNL1        0.1152
     23 C          -6.1827    5.4468   24.8715 C.2     1  UNL1        0.2491
     24 O          -5.9002    5.1277   26.3096 O.2     1  UNL1       -0.2699
     25 C           4.9350   -3.3385   21.9617 C.2     1  UNL1        0.2495
     26 O           4.7041   -4.6622   21.2950 O.2     1  UNL1       -0.2698
     27 N           6.1547   -3.1281   22.8090 N.am    1  UNL1       -0.2794
     28 H           6.3062   -2.2594   23.2466 H       1  UNL1        0.1552
     29 C           7.1436   -4.2414   22.9895 C.ar    1  UNL1        0.0636
     30 C           8.0236   -4.6554   21.8474 C.ar    1  UNL1        0.0159
     31 C           9.0125   -5.7687   22.0279 C.ar    1  UNL1        0.0014
     32 C           9.1214   -6.4681   23.3505 C.ar    1  UNL1        0.0013
     33 C           8.2415   -6.0541   24.4925 C.ar    1  UNL1        0.0153
     34 C           7.2525   -4.9408   24.3120 C.ar    1  UNL1        0.0552
     35 N           6.3725   -4.5268   25.4540 N.pl3   1  UNL1       -0.3560
     36 H           6.4440   -4.9859   26.3220 H       1  UNL1        0.1424
     37 H           5.7235   -3.7961   25.3356 H       1  UNL1        0.1424
@<TRIPOS>BOND
     1    20    21    1
     2    21    22    1
     3    21    23   am
     4    23    24    2
     5    23    14    1
     6    14    15   ar
     7    15    16   ar
     8    16    17   ar
     9    17    13    1
    10    13     7    1
    11     7     8    1
    12     8     9    1
    13     9    10    1
    14    10     1    1
    15     1     2   ar
    16     2     3   ar
    17     3     4   ar
    18     4    25    1
    19    25    26    2
    20    25    27   am
    21    27    29    1
    22    29    30   ar
    23    30    31   ar
    24    31    32   ar
    25    32    33   ar
    26    33    34   ar
    27    34    35    1
    28     4     5   ar
    29     5     6   ar
    30    10    11    1
    31    11    12    1
    32    17    18   ar
    33    18    19   ar
    34    19    14   ar
    35    12     7    1
    36     6     1   ar
    37    34    29   ar
    38    27    28    1
    39    35    36    1
    40    35    37    1
