@<TRIPOS>MOLECULE
*****
 27 27 0 0 0
SMALL
GASTEIGER

@<TRIPOS>ATOM
      1 C           6.6675   -1.4798   18.8372 C.3     1  UNL1        0.2969
      2 F           6.8994   -2.3287   17.6225 F       1  UNL1       -0.1981
      3 F           6.4355   -0.6309   20.0519 F       1  UNL1       -0.1981
      4 C           4.6210   -3.6743   21.4346 C.ar    1  UNL1        0.1384
      5 C           3.9192   -4.6255   20.5111 C.ar    1  UNL1        0.0369
      6 C           4.1336   -4.5281   19.0297 C.ar    1  UNL1        0.0030
      7 C           5.0496   -3.4796   18.4717 C.ar    1  UNL1        0.0012
      8 C           5.7513   -2.5284   19.3952 C.ar    1  UNL1        0.0422
      9 C           5.5370   -2.6258   20.8766 C.ar    1  UNL1        0.0379
     10 O           4.4066   -3.7716   22.9160 O.3     1  UNL1       -0.4755
     11 C           4.9589   -2.7138   23.8248 C.3     1  UNL1        0.2054
     12 C           4.0629   -1.6288   24.3443 C.3     1  UNL1        0.0473
     13 C           2.3498    0.2500   23.8098 C.3     1  UNL1        0.0001
     14 C           3.5307   -0.5837   23.4091 C.3     1  UNL1        0.0038
     15 C           7.5835   -0.4312   18.2793 C.3     1  UNL1        0.1409
     16 N           7.2255    0.2773   17.0066 N.3     1  UNL1       -0.2850
     17 H           7.2748   -0.4158   16.2599 H       1  UNL1        0.1239
     18 C           5.8961    0.9600   16.8767 C.3     1  UNL1        0.1553
     19 C           4.6310    0.1893   17.1127 C.2     1  UNL1        0.2418
     20 O           4.2303   -0.9027   16.1655 O.2     1  UNL1       -0.2734
     21 N           3.7667    0.5106   18.2957 N.am    1  UNL1       -0.2784
     22 C           2.5016   -0.2600   18.5317 C.3     1  UNL1        0.0934
     23 C           2.1884   -0.7864   19.9009 C.3     1  UNL1        0.0215
     24 C           0.8504   -0.5134   20.5215 C.3     1  UNL1        0.0018
     25 C           4.1675    1.6026   19.2428 C.3     1  UNL1        0.0934
     26 C           3.2126    2.7184   19.5483 C.3     1  UNL1        0.0215
     27 C           2.6176    2.8420   20.9196 C.3     1  UNL1        0.0018
@<TRIPOS>BOND
     1    13    14    1
     2    14    12    1
     3    12    11    1
     4    11    10    1
     5    10     4    1
     6     4     5   ar
     7     5     6   ar
     8     6     7   ar
     9     7     8   ar
    10     8     1    1
    11     1     2    1
    12     1     3    1
    13     1    15    1
    14    15    16    1
    15    16    18    1
    16    18    19    1
    17    19    20    2
    18    19    21   am
    19    21    22    1
    20    22    23    1
    21    23    24    1
    22    21    25    1
    23    25    26    1
    24    26    27    1
    25     8     9   ar
    26     9     4   ar
    27    16    17    1
@<TRIPOS>MOLECULE
*****
 27 27 0 0 0
SMALL
GASTEIGER

@<TRIPOS>ATOM
      1 C           4.2813   -2.2058   23.0519 C.3     1  UNL1        0.2969
      2 F           5.5280   -3.0084   23.2786 F       1  UNL1       -0.1981
      3 F           3.0346   -1.4032   22.8252 F       1  UNL1       -0.1981
      4 C           4.4094   -2.0588   19.0881 C.ar    1  UNL1        0.1384
      5 C           4.2263   -3.5074   18.7446 C.ar    1  UNL1        0.0369
      6 C           4.0616   -4.5222   19.8370 C.ar    1  UNL1        0.0030
      7 C           4.0799   -4.0883   21.2727 C.ar    1  UNL1        0.0012
      8 C           4.2630   -2.6397   21.6161 C.ar    1  UNL1        0.0422
      9 C           4.4277   -1.6250   20.5238 C.ar    1  UNL1        0.0379
     10 O           4.5742   -1.0441   17.9957 O.3     1  UNL1       -0.4755
     11 C           3.3936   -0.2438   17.5312 C.3     1  UNL1        0.2054
     12 C           2.6425    0.6177   18.5025 C.3     1  UNL1        0.0473
     13 C           0.8373   -0.2215   20.1719 C.3     1  UNL1        0.0001
     14 C           1.2084    0.3142   18.8209 C.3     1  UNL1        0.0038
     15 C           4.2996   -1.7718   24.4876 C.3     1  UNL1        0.1409
     16 N           3.2166   -0.8778   25.0148 N.3     1  UNL1       -0.2850
     17 H           2.4424   -1.4829   25.2884 H       1  UNL1        0.1239
     18 C           3.4915    0.0269   26.1793 C.3     1  UNL1        0.1553
     19 C           2.7797   -0.1898   27.4817 C.2     1  UNL1        0.2418
     20 O           3.2658   -1.2397   28.4365 O.2     1  UNL1       -0.2734
     21 N           1.5819    0.6434   27.8294 N.am    1  UNL1       -0.2784
     22 C           0.8701    0.4268   29.1319 C.3     1  UNL1        0.0934
     23 C          -0.6208    0.5748   29.2055 C.3     1  UNL1        0.0215
     24 C          -1.5085   -0.5645   28.8006 C.3     1  UNL1        0.0018
     25 C           1.0959    1.6933   26.8747 C.3     1  UNL1        0.0934
     26 C           0.0583    1.3501   25.8472 C.3     1  UNL1        0.0215
     27 C           0.4487    1.2064   24.4060 C.3     1  UNL1        0.0018
@<TRIPOS>BOND
     1    13    14    1
     2    14    12    1
     3    12    11    1
     4    11    10    1
     5    10     4    1
     6     4     5   ar
     7     5     6   ar
     8     6     7   ar
     9     7     8   ar
    10     8     1    1
    11     1     2    1
    12     1     3    1
    13     1    15    1
    14    15    16    1
    15    16    18    1
    16    18    19    1
    17    19    20    2
    18    19    21   am
    19    21    22    1
    20    22    23    1
    21    23    24    1
    22    21    25    1
    23    25    26    1
    24    26    27    1
    25     8     9   ar
    26     9     4   ar
    27    16    17    1
@<TRIPOS>MOLECULE
*****
 27 27 0 0 0
SMALL
GASTEIGER

@<TRIPOS>ATOM
      1 C           3.6761   -2.7179   20.1301 C.3     1  UNL1        0.2969
      2 F           3.6240   -2.1904   21.5332 F       1  UNL1       -0.1981
      3 F           3.7283   -3.2455   18.7269 F       1  UNL1       -0.1981
      4 C           0.9928    0.1998   19.9377 C.ar    1  UNL1        0.1384
      5 C           1.4270    0.9020   18.6853 C.ar    1  UNL1        0.0369
      6 C           2.6108    0.3976   17.9146 C.ar    1  UNL1        0.0030
      7 C           3.3605   -0.8090   18.3961 C.ar    1  UNL1        0.0012
      8 C           2.9264   -1.5112   19.6484 C.ar    1  UNL1        0.0422
      9 C           1.7426   -1.0068   20.4192 C.ar    1  UNL1        0.0379
     10 O          -0.1910    0.7042   20.7084 O.3     1  UNL1       -0.4755
     11 C          -0.1586    2.0724   21.3224 C.3     1  UNL1        0.2054
     12 C           0.5141    2.2847   22.6461 C.3     1  UNL1        0.0473
     13 C           2.1519    0.5530   23.6801 C.3     1  UNL1        0.0001
     14 C           0.7681    1.1180   23.5541 C.3     1  UNL1        0.0038
     15 C           4.4258   -3.9245   20.6116 C.3     1  UNL1        0.1409
     16 N           5.8610   -4.1207   20.2220 N.3     1  UNL1       -0.2850
     17 H           5.8806   -4.2117   19.2063 H       1  UNL1        0.1239
     18 C           6.8846   -3.0855   20.5838 C.3     1  UNL1        0.1553
     19 C           7.2641   -2.0270   19.5910 C.2     1  UNL1        0.2418
     20 O           7.9715   -2.4064   18.3238 O.2     1  UNL1       -0.2734
     21 N           6.9362   -0.5893   19.8654 N.am    1  UNL1       -0.2784
     22 C           7.3157    0.4692   18.8726 C.3     1  UNL1        0.0934
     23 C           6.4510    0.7161   17.6721 C.3     1  UNL1        0.0215
     24 C           5.8591    2.0749   17.4408 C.3     1  UNL1        0.0018
     25 C           6.2288   -0.2100   21.1325 C.3     1  UNL1        0.0934
     26 C           5.8114    1.2125   21.3616 C.3     1  UNL1        0.0215
     27 C           4.4419    1.6674   20.9526 C.3     1  UNL1        0.0018
@<TRIPOS>BOND
     1    13    14    1
     2    14    12    1
     3    12    11    1
     4    11    10    1
     5    10     4    1
     6     4     5   ar
     7     5     6   ar
     8     6     7   ar
     9     7     8   ar
    10     8     1    1
    11     1     2    1
    12     1     3    1
    13     1    15    1
    14    15    16    1
    15    16    18    1
    16    18    19    1
    17    19    20    2
    18    19    21   am
    19    21    22    1
    20    22    23    1
    21    23    24    1
    22    21    25    1
    23    25    26    1
    24    26    27    1
    25     8     9   ar
    26     9     4   ar
    27    16    17    1
@<TRIPOS>MOLECULE
*****
 27 27 0 0 0
SMALL
GASTEIGER

@<TRIPOS>ATOM
      1 C           4.1054   -3.1531   20.3083 C.3     1  UNL1        0.2969
      2 F           2.9432   -2.4355   19.6885 F       1  UNL1       -0.1981
      3 F           5.2676   -3.8707   20.9282 F       1  UNL1       -0.1981
      4 C           2.7929   -0.4189   22.8679 C.ar    1  UNL1        0.1384
      5 C           3.4974   -0.8435   24.1222 C.ar    1  UNL1        0.0369
      6 C           4.4047   -2.0379   24.1052 C.ar    1  UNL1        0.0030
      7 C           4.6073   -2.8078   22.8340 C.ar    1  UNL1        0.0012
      8 C           3.9028   -2.3832   21.5797 C.ar    1  UNL1        0.0422
      9 C           2.9955   -1.1888   21.5967 C.ar    1  UNL1        0.0379
     10 O           1.8856    0.7755   22.8849 O.3     1  UNL1       -0.4755
     11 C           0.8888    0.9759   21.7822 C.3     1  UNL1        0.2054
     12 C           1.2211    1.8695   20.6241 C.3     1  UNL1        0.0473
     13 C           1.5015    0.5129   18.4261 C.3     1  UNL1        0.0001
     14 C           0.7468    1.5176   19.2451 C.3     1  UNL1        0.0038
     15 C           4.3081   -3.9229   19.0370 C.3     1  UNL1        0.1409
     16 N           5.1078   -3.3252   17.9176 N.3     1  UNL1       -0.2850
     17 H           4.4617   -3.1722   17.1432 H       1  UNL1        0.1239
     18 C           5.8449   -2.0358   18.1278 C.3     1  UNL1        0.1553
     19 C           5.2608   -0.7478   17.6277 C.2     1  UNL1        0.2418
     20 O           4.2638   -0.7617   16.5070 O.2     1  UNL1       -0.2734
     21 N           5.6737    0.5538   18.2482 N.am    1  UNL1       -0.2784
     22 C           5.0896    1.8418   17.7481 C.3     1  UNL1        0.0934
     23 C           4.4288    2.7877   18.7065 C.3     1  UNL1        0.0215
     24 C           3.5093    3.8556   18.1924 C.3     1  UNL1        0.0018
     25 C           6.6706    0.5676   19.3688 C.3     1  UNL1        0.0934
     26 C           6.2049    0.4360   20.7887 C.3     1  UNL1        0.0215
     27 C           7.0588   -0.2767   21.7950 C.3     1  UNL1        0.0018
@<TRIPOS>BOND
     1    13    14    1
     2    14    12    1
     3    12    11    1
     4    11    10    1
     5    10     4    1
     6     4     5   ar
     7     5     6   ar
     8     6     7   ar
     9     7     8   ar
    10     8     1    1
    11     1     2    1
    12     1     3    1
    13     1    15    1
    14    15    16    1
    15    16    18    1
    16    18    19    1
    17    19    20    2
    18    19    21   am
    19    21    22    1
    20    22    23    1
    21    23    24    1
    22    21    25    1
    23    25    26    1
    24    26    27    1
    25     8     9   ar
    26     9     4   ar
    27    16    17    1
@<TRIPOS>MOLECULE
*****
 27 27 0 0 0
SMALL
GASTEIGER

@<TRIPOS>ATOM
      1 C           3.5878   -2.8346   19.9978 C.3     1  UNL1        0.2969
      2 F           3.6780   -3.2677   18.5645 F       1  UNL1       -0.1981
      3 F           3.4975   -2.4015   21.4310 F       1  UNL1       -0.1981
      4 C           1.0928    0.2496   19.8854 C.ar    1  UNL1        0.1384
      5 C           1.6363    1.0113   18.7131 C.ar    1  UNL1        0.0369
      6 C           2.8303    0.4911   17.9690 C.ar    1  UNL1        0.0030
      7 C           3.4808   -0.7909   18.3972 C.ar    1  UNL1        0.0012
      8 C           2.9373   -1.5526   19.5695 C.ar    1  UNL1        0.0422
      9 C           1.7433   -1.0323   20.3136 C.ar    1  UNL1        0.0379
     10 O          -0.1012    0.7699   20.6295 O.3     1  UNL1       -0.4755
     11 C           0.0432    1.9431   21.5529 C.3     1  UNL1        0.2054
     12 C           1.4067    2.3902   21.9899 C.3     1  UNL1        0.0473
     13 C           1.3291    0.8132   24.0532 C.3     1  UNL1        0.0001
     14 C           2.1100    1.6728   23.1039 C.3     1  UNL1        0.0038
     15 C           4.2383   -4.1165   20.4261 C.3     1  UNL1        0.1409
     16 N           5.6152   -4.4583   19.9388 N.3     1  UNL1       -0.2850
     17 H           5.6524   -4.1962   18.9538 H       1  UNL1        0.1239
     18 C           6.8166   -3.8457   20.5956 C.3     1  UNL1        0.1553
     19 C           6.8090   -3.5762   22.0712 C.2     1  UNL1        0.2418
     20 O           6.9569   -4.7105   23.0416 O.2     1  UNL1       -0.2734
     21 N           6.6534   -2.1725   22.5764 N.am    1  UNL1       -0.2784
     22 C           6.6457   -1.9030   24.0520 C.3     1  UNL1        0.0934
     23 C           5.4599   -2.2993   24.8806 C.3     1  UNL1        0.0215
     24 C           4.1627   -1.5602   24.7356 C.3     1  UNL1        0.0018
     25 C           6.5054   -1.0383   21.6061 C.3     1  UNL1        0.0934
     26 C           5.5555    0.0840   21.9033 C.3     1  UNL1        0.0215
     27 C           5.3150    1.1539   20.8799 C.3     1  UNL1        0.0018
@<TRIPOS>BOND
     1    13    14    1
     2    14    12    1
     3    12    11    1
     4    11    10    1
     5    10     4    1
     6     4     5   ar
     7     5     6   ar
     8     6     7   ar
     9     7     8   ar
    10     8     1    1
    11     1     2    1
    12     1     3    1
    13     1    15    1
    14    15    16    1
    15    16    18    1
    16    18    19    1
    17    19    20    2
    18    19    21   am
    19    21    22    1
    20    22    23    1
    21    23    24    1
    22    21    25    1
    23    25    26    1
    24    26    27    1
    25     8     9   ar
    26     9     4   ar
    27    16    17    1
@<TRIPOS>MOLECULE
*****
 27 27 0 0 0
SMALL
GASTEIGER

@<TRIPOS>ATOM
      1 C           4.7192   -3.1035   19.5185 C.3     1  UNL1        0.2969
      2 F           6.0219   -3.3291   18.8100 F       1  UNL1       -0.1981
      3 F           3.4165   -2.8779   20.2271 F       1  UNL1       -0.1981
      4 C           7.4732   -4.1459   22.1792 C.ar    1  UNL1        0.1384
      5 C           6.7140   -3.9624   23.4598 C.ar    1  UNL1        0.0369
      6 C           5.2899   -3.4925   23.4266 C.ar    1  UNL1        0.0030
      7 C           4.6249   -3.2062   22.1129 C.ar    1  UNL1        0.0012
      8 C           5.3842   -3.3898   20.8323 C.ar    1  UNL1        0.0422
      9 C           6.8083   -3.8596   20.8655 C.ar    1  UNL1        0.0379
     10 O           8.8973   -4.6158   22.2124 O.3     1  UNL1       -0.4755
     11 C           9.3585   -5.5354   23.3040 C.3     1  UNL1        0.2054
     12 C           8.9657   -6.9829   23.2811 C.3     1  UNL1        0.0473
     13 C           7.8288   -6.7110   25.6014 C.3     1  UNL1        0.0001
     14 C           8.2016   -7.5709   24.4302 C.3     1  UNL1        0.0038
     15 C           4.0543   -2.8172   18.2048 C.3     1  UNL1        0.1409
     16 N           4.6588   -1.8219   17.2594 N.3     1  UNL1       -0.2850
     17 H           4.4170   -2.1268   16.3166 H       1  UNL1        0.1239
     18 C           4.2838   -0.3726   17.3555 C.3     1  UNL1        0.1553
     19 C           3.3821    0.0972   18.4583 C.2     1  UNL1        0.2418
     20 O           1.9053    0.2121   18.2220 O.2     1  UNL1       -0.2734
     21 N           3.9572    0.4522   19.7974 N.am    1  UNL1       -0.2784
     22 C           3.0556    0.9220   20.9002 C.3     1  UNL1        0.0934
     23 C           2.3690   -0.0764   21.7843 C.3     1  UNL1        0.0215
     24 C           2.7948   -0.2295   23.2144 C.3     1  UNL1        0.0018
     25 C           5.4340    0.3373   20.0336 C.3     1  UNL1        0.0934
     26 C           6.0230    0.7933   21.3357 C.3     1  UNL1        0.0215
     27 C           6.7135   -0.1913   22.2322 C.3     1  UNL1        0.0018
@<TRIPOS>BOND
     1    13    14    1
     2    14    12    1
     3    12    11    1
     4    11    10    1
     5    10     4    1
     6     4     5   ar
     7     5     6   ar
     8     6     7   ar
     9     7     8   ar
    10     8     1    1
    11     1     2    1
    12     1     3    1
    13     1    15    1
    14    15    16    1
    15    16    18    1
    16    18    19    1
    17    19    20    2
    18    19    21   am
    19    21    22    1
    20    22    23    1
    21    23    24    1
    22    21    25    1
    23    25    26    1
    24    26    27    1
    25     8     9   ar
    26     9     4   ar
    27    16    17    1
@<TRIPOS>MOLECULE
*****
 27 27 0 0 0
SMALL
GASTEIGER

@<TRIPOS>ATOM
      1 C           2.2883   -0.9351   20.8986 C.3     1  UNL1        0.2969
      2 F           2.8710   -2.1192   20.1857 F       1  UNL1       -0.1981
      3 F           1.7057    0.2491   21.6114 F       1  UNL1       -0.1981
      4 C           4.8011   -2.8076   23.3336 C.ar    1  UNL1        0.1384
      5 C           4.6355   -2.0006   24.5871 C.ar    1  UNL1        0.0369
      6 C           3.6875   -0.8384   24.6111 C.ar    1  UNL1        0.0030
      7 C           2.9051   -0.4832   23.3816 C.ar    1  UNL1        0.0012
      8 C           3.0707   -1.2902   22.1281 C.ar    1  UNL1        0.0422
      9 C           4.0187   -2.4524   22.1041 C.ar    1  UNL1        0.0379
     10 O           5.7492   -3.9698   23.3096 O.3     1  UNL1       -0.4755
     11 C           6.7260   -4.1641   24.4312 C.3     1  UNL1        0.2054
     12 C           7.9695   -4.9735   24.2109 C.3     1  UNL1        0.0473
     13 C           8.7619   -7.3220   23.4317 C.3     1  UNL1        0.0001
     14 C           7.9238   -6.4677   24.3360 C.3     1  UNL1        0.0038
     15 C           1.5059   -0.5799   19.6691 C.3     1  UNL1        0.1409
     16 N           1.6709    0.7716   19.0395 N.3     1  UNL1       -0.2850
     17 H           1.5867    1.4579   19.7893 H       1  UNL1        0.1239
     18 C           2.9275    1.1013   18.2897 C.3     1  UNL1        0.1553
     19 C           3.8498    0.0024   17.8517 C.2     1  UNL1        0.2418
     20 O           3.4966   -0.8449   16.6653 O.2     1  UNL1       -0.2734
     21 N           5.1252   -0.2492   18.6000 N.am    1  UNL1       -0.2784
     22 C           6.0474   -1.3481   18.1620 C.3     1  UNL1        0.0934
     23 C           5.7487   -2.7704   18.5329 C.3     1  UNL1        0.0215
     24 C           6.4436   -3.4023   19.7025 C.3     1  UNL1        0.0018
     25 C           5.4783    0.5981   19.7862 C.3     1  UNL1        0.0934
     26 C           6.4119    0.0692   20.8345 C.3     1  UNL1        0.0215
     27 C           6.3143    0.5672   22.2460 C.3     1  UNL1        0.0018
@<TRIPOS>BOND
     1    13    14    1
     2    14    12    1
     3    12    11    1
     4    11    10    1
     5    10     4    1
     6     4     5   ar
     7     5     6   ar
     8     6     7   ar
     9     7     8   ar
    10     8     1    1
    11     1     2    1
    12     1     3    1
    13     1    15    1
    14    15    16    1
    15    16    18    1
    16    18    19    1
    17    19    20    2
    18    19    21   am
    19    21    22    1
    20    22    23    1
    21    23    24    1
    22    21    25    1
    23    25    26    1
    24    26    27    1
    25     8     9   ar
    26     9     4   ar
    27    16    17    1
@<TRIPOS>MOLECULE
*****
 27 27 0 0 0
SMALL
GASTEIGER

@<TRIPOS>ATOM
      1 C           4.5305   -0.0946   17.8725 C.3     1  UNL1        0.2969
      2 F           4.1303   -1.4416   17.3476 F       1  UNL1       -0.1981
      3 F           4.9306    1.2523   18.3974 F       1  UNL1       -0.1981
      4 C           0.9969    1.3214   18.9945 C.ar    1  UNL1        0.1384
      5 C           0.5653    0.2664   19.9694 C.ar    1  UNL1        0.0369
      6 C           1.4554   -0.9090   20.2454 C.ar    1  UNL1        0.0030
      7 C           2.7771   -1.0294   19.5465 C.ar    1  UNL1        0.0012
      8 C           3.2087    0.0257   18.5715 C.ar    1  UNL1        0.0422
      9 C           2.3186    1.2011   18.2955 C.ar    1  UNL1        0.0379
     10 O           0.1068    2.4968   18.7185 O.3     1  UNL1       -0.4755
     11 C           0.3663    3.8095   19.3961 C.3     1  UNL1        0.2054
     12 C           1.2733    3.8713   20.5892 C.3     1  UNL1        0.0473
     13 C           1.6897    3.1550   23.0517 C.3     1  UNL1        0.0001
     14 C           0.7435    3.5369   21.9522 C.3     1  UNL1        0.0038
     15 C           5.8522   -0.2149   17.1736 C.3     1  UNL1        0.1409
     16 N           6.6717   -1.4617   17.3282 N.3     1  UNL1       -0.2850
     17 H           7.3766   -1.4440   16.5912 H       1  UNL1        0.1239
     18 C           7.3964   -1.7281   18.6143 C.3     1  UNL1        0.1553
     19 C           6.7054   -1.4997   19.9258 C.2     1  UNL1        0.2418
     20 O           6.8032   -0.1645   20.6026 O.2     1  UNL1       -0.2734
     21 N           5.9165   -2.6062   20.5607 N.am    1  UNL1       -0.2784
     22 C           5.2254   -2.3778   21.8722 C.3     1  UNL1        0.0934
     23 C           5.0047   -3.5246   22.8135 C.3     1  UNL1        0.0215
     24 C           5.9489   -3.7486   23.9573 C.3     1  UNL1        0.0018
     25 C           5.8187   -3.9413   19.8839 C.3     1  UNL1        0.0934
     26 C           4.7137   -4.2067   18.9048 C.3     1  UNL1        0.0215
     27 C           3.3953   -4.7351   19.3869 C.3     1  UNL1        0.0018
@<TRIPOS>BOND
     1    13    14    1
     2    14    12    1
     3    12    11    1
     4    11    10    1
     5    10     4    1
     6     4     5   ar
     7     5     6   ar
     8     6     7   ar
     9     7     8   ar
    10     8     1    1
    11     1     2    1
    12     1     3    1
    13     1    15    1
    14    15    16    1
    15    16    18    1
    16    18    19    1
    17    19    20    2
    18    19    21   am
    19    21    22    1
    20    22    23    1
    21    23    24    1
    22    21    25    1
    23    25    26    1
    24    26    27    1
    25     8     9   ar
    26     9     4   ar
    27    16    17    1
@<TRIPOS>MOLECULE
*****
 27 27 0 0 0
SMALL
GASTEIGER

@<TRIPOS>ATOM
      1 C           3.7340   -0.9865   24.2857 C.3     1  UNL1        0.2969
      2 F           2.4076   -0.4787   23.8034 F       1  UNL1       -0.1981
      3 F           5.0604   -1.4943   24.7681 F       1  UNL1       -0.1981
      4 C           3.4875   -2.0365   20.4664 C.ar    1  UNL1        0.1384
      5 C           4.2105   -3.3505   20.4865 C.ar    1  UNL1        0.0369
      6 C           4.7747   -3.8766   21.7729 C.ar    1  UNL1        0.0030
      7 C           4.6159   -3.0886   23.0393 C.ar    1  UNL1        0.0012
      8 C           3.8929   -1.7746   23.0193 C.ar    1  UNL1        0.0422
      9 C           3.3286   -1.2485   21.7328 C.ar    1  UNL1        0.0379
     10 O           2.9232   -1.5104   19.1800 O.3     1  UNL1       -0.4755
     11 C           3.8297   -0.8755   18.1676 C.3     1  UNL1        0.2054
     12 C           5.1606   -0.3284   18.5911 C.3     1  UNL1        0.0473
     13 C           6.9008   -2.2188   18.2061 C.3     1  UNL1        0.0001
     14 C           6.4173   -0.8242   17.9391 C.3     1  UNL1        0.0038
     15 C           3.5752   -0.1985   25.5521 C.3     1  UNL1        0.1409
     16 N           3.1217   -0.8812   26.8084 N.3     1  UNL1       -0.2850
     17 H           3.6294   -1.7641   26.8635 H       1  UNL1        0.1239
     18 C           3.2908   -0.2010   28.1346 C.3     1  UNL1        0.1553
     19 C           2.1051   -0.0004   29.0312 C.2     1  UNL1        0.2418
     20 O           1.9675   -0.8115   30.2855 O.2     1  UNL1       -0.2734
     21 N           1.0570    1.0113   28.6735 N.am    1  UNL1       -0.2784
     22 C          -0.1287    1.2119   29.5701 C.3     1  UNL1        0.0934
     23 C          -1.4234    0.5172   29.2682 C.3     1  UNL1        0.0215
     24 C          -1.4149   -0.8451   28.6404 C.3     1  UNL1        0.0018
     25 C           1.1946    1.8224   27.4193 C.3     1  UNL1        0.0934
     26 C           0.3849    1.4713   26.2064 C.3     1  UNL1        0.0215
     27 C          -0.9171    2.1691   25.9460 C.3     1  UNL1        0.0018
@<TRIPOS>BOND
     1    13    14    1
     2    14    12    1
     3    12    11    1
     4    11    10    1
     5    10     4    1
     6     4     5   ar
     7     5     6   ar
     8     6     7   ar
     9     7     8   ar
    10     8     1    1
    11     1     2    1
    12     1     3    1
    13     1    15    1
    14    15    16    1
    15    16    18    1
    16    18    19    1
    17    19    20    2
    18    19    21   am
    19    21    22    1
    20    22    23    1
    21    23    24    1
    22    21    25    1
    23    25    26    1
    24    26    27    1
    25     8     9   ar
    26     9     4   ar
    27    16    17    1
