@<TRIPOS>MOLECULE
*****
 27 30 0 0 0
SMALL
GASTEIGER

@<TRIPOS>ATOM
      1 C          -7.3564  -19.0651   21.6886 C.ar    1  UNL1        0.1060
      2 C          -6.2774  -19.8592   22.3633 C.ar    1  UNL1        0.0258
      3 C          -4.9265  -19.9839   21.7233 C.ar    1  UNL1        0.0608
      4 C          -4.6547  -19.3147   20.4087 C.ar    1  UNL1        0.2437
      5 N          -5.7337  -18.5207   19.7340 N.ar    1  UNL1       -0.1103
      6 N          -7.0846  -18.3959   20.3740 N.ar    1  UNL1       -0.1450
      7 O          -8.8655  -16.4781   21.5148 O.3     1  UNL1       -0.5054
      8 C          -9.4619  -17.6469   22.2417 C.ar    1  UNL1        0.1366
      9 C         -10.8127  -17.5222   22.8817 C.ar    1  UNL1        0.0558
     10 C         -11.4090  -18.6910   23.6085 C.ar    1  UNL1        0.0859
     11 C         -10.6546  -19.9844   23.6954 C.ar    1  UNL1        0.0194
     12 C          -9.3037  -20.1091   23.0555 C.ar    1  UNL1        0.0061
     13 C          -8.7074  -18.9404   22.3286 C.ar    1  UNL1        0.0532
     14 H          -9.3368  -15.6701   21.4606 H       1  UNL1        0.2922
     15 N         -12.7600  -18.5662   24.2485 N.ar    1  UNL1       -0.2280
     16 C         -14.0375  -18.2082   23.5487 C.ar    1  UNL1        0.1020
     17 C         -15.1375  -18.1983   24.5684 C.ar    1  UNL1        0.0431
     18 C         -14.5399  -18.5502   25.8985 C.ar    1  UNL1        0.1221
     19 N         -13.0705  -18.7776   25.7008 N.ar    1  UNL1       -0.1635
     20 O          -3.3038  -19.4395   19.7687 O.3     1  UNL1       -0.4629
     21 C          -2.2447  -18.4141   20.0464 C.3     1  UNL1        0.1704
     22 C          -2.5336  -17.2690   20.9712 C.3     1  UNL1        0.0607
     23 C          -1.4745  -16.2437   21.2489 C.3     1  UNL1        0.0723
     24 N          -0.1266  -16.3635   20.6018 N.3     1  UNL1       -0.2973
     25 C           0.1622  -17.5086   19.6770 C.3     1  UNL1        0.0723
     26 C          -0.8968  -18.5339   19.3993 C.3     1  UNL1        0.0607
     27 H           0.5585  -16.4138   21.3557 H       1  UNL1        0.1233
@<TRIPOS>BOND
     1     7     8    1
     2     8     9   ar
     3     9    10   ar
     4    10    15    1
     5    15    16   ar
     6    16    17   ar
     7    17    18   ar
     8    18    19   ar
     9    10    11   ar
    10    11    12   ar
    11    12    13   ar
    12    13     1    1
    13     1     2   ar
    14     2     3   ar
    15     3     4   ar
    16     4    20    1
    17    20    21    1
    18    21    22    1
    19    22    23    1
    20    23    24    1
    21    24    25    1
    22    25    26    1
    23     4     5   ar
    24     5     6   ar
    25    13     8   ar
    26     6     1   ar
    27    19    15   ar
    28    26    21    1
    29     7    14    1
    30    24    27    1
@<TRIPOS>MOLECULE
*****
 27 30 0 0 0
SMALL
GASTEIGER

@<TRIPOS>ATOM
      1 C          -7.4576  -19.0838   21.6717 C.ar    1  UNL1        0.1060
      2 C          -6.4098  -19.9612   22.2900 C.ar    1  UNL1        0.0258
      3 C          -5.0610  -20.0866   21.6458 C.ar    1  UNL1        0.0608
      4 C          -4.7600  -19.3347   20.3832 C.ar    1  UNL1        0.2437
      5 N          -5.8078  -18.4574   19.7649 N.ar    1  UNL1       -0.1103
      6 N          -7.1566  -18.3319   20.4091 N.ar    1  UNL1       -0.1450
      7 O          -9.9361  -19.6863   20.0925 O.3     1  UNL1       -0.5054
      8 C         -10.0457  -19.2596   21.5263 C.ar    1  UNL1        0.1366
      9 C         -11.3944  -19.1342   22.1706 C.ar    1  UNL1        0.0558
     10 C         -11.5039  -18.7075   23.6044 C.ar    1  UNL1        0.0859
     11 C         -10.2647  -18.4063   24.3940 C.ar    1  UNL1        0.0194
     12 C          -8.9159  -18.5317   23.7498 C.ar    1  UNL1        0.0061
     13 C          -8.8064  -18.9584   22.3159 C.ar    1  UNL1        0.0532
     14 H         -10.7103  -19.8745   19.5992 H       1  UNL1        0.2922
     15 N         -12.8527  -18.5821   24.2487 N.ar    1  UNL1       -0.2280
     16 C         -14.1359  -18.2438   23.5493 C.ar    1  UNL1        0.1020
     17 C         -15.2313  -18.2256   24.5738 C.ar    1  UNL1        0.0431
     18 C         -14.6252  -18.5526   25.9064 C.ar    1  UNL1        0.1221
     19 N         -13.1552  -18.7729   25.7055 N.ar    1  UNL1       -0.1635
     20 O          -3.4112  -19.4602   19.7390 O.3     1  UNL1       -0.4629
     21 C          -2.3429  -18.4490   20.0326 C.3     1  UNL1        0.1704
     22 C          -1.0266  -18.5193   19.3168 C.3     1  UNL1        0.0607
     23 C           0.0418  -17.5081   19.6103 C.3     1  UNL1        0.0723
     24 N          -0.2062  -16.4266   20.6197 N.3     1  UNL1       -0.2973
     25 C          -1.5224  -16.3563   21.3355 C.3     1  UNL1        0.0723
     26 C          -2.5908  -17.3675   21.0419 C.3     1  UNL1        0.0607
     27 H          -0.0873  -15.5377   20.1339 H       1  UNL1        0.1233
@<TRIPOS>BOND
     1     7     8    1
     2     8     9   ar
     3     9    10   ar
     4    10    15    1
     5    15    16   ar
     6    16    17   ar
     7    17    18   ar
     8    18    19   ar
     9    10    11   ar
    10    11    12   ar
    11    12    13   ar
    12    13     1    1
    13     1     2   ar
    14     2     3   ar
    15     3     4   ar
    16     4    20    1
    17    20    21    1
    18    21    22    1
    19    22    23    1
    20    23    24    1
    21    24    25    1
    22    25    26    1
    23     4     5   ar
    24     5     6   ar
    25    13     8   ar
    26     6     1   ar
    27    19    15   ar
    28    26    21    1
    29     7    14    1
    30    24    27    1
@<TRIPOS>MOLECULE
*****
 27 30 0 0 0
SMALL
GASTEIGER

@<TRIPOS>ATOM
      1 C          -0.2966    2.5262   19.7270 C.ar    1  UNL1        0.1060
      2 C          -0.6752    3.6026   18.7534 C.ar    1  UNL1        0.0258
      3 C          -1.8558    4.4848   19.0324 C.ar    1  UNL1        0.0608
      4 C          -2.6578    4.2906   20.2851 C.ar    1  UNL1        0.2437
      5 N          -2.2792    3.2141   21.2587 N.ar    1  UNL1       -0.1103
      6 N          -1.0985    2.3319   20.9796 N.ar    1  UNL1       -0.1450
      7 O          -0.3089   -0.3306   20.6427 O.3     1  UNL1       -0.5054
      8 C           0.8779    0.2156   19.9057 C.ar    1  UNL1        0.1366
      9 C           2.0585   -0.6665   19.6266 C.ar    1  UNL1        0.0558
     10 C           3.2453   -0.1203   18.8896 C.ar    1  UNL1        0.0859
     11 C           3.2515    1.3081   18.4317 C.ar    1  UNL1        0.0194
     12 C           2.0709    2.1902   18.7108 C.ar    1  UNL1        0.0061
     13 C           0.8841    1.6440   19.4478 C.ar    1  UNL1        0.0532
     14 H          -0.3127   -1.2229   20.9288 H       1  UNL1        0.2922
     15 N           4.4260   -1.0025   18.6105 N.ar    1  UNL1       -0.2280
     16 C           5.8378   -0.5441   18.3952 C.ar    1  UNL1        0.1020
     17 C           6.6864   -1.7563   18.1493 C.ar    1  UNL1        0.0431
     18 C           5.7990   -2.9640   18.2127 C.ar    1  UNL1        0.1221
     19 N           4.4019   -2.4981   18.4977 N.ar    1  UNL1       -0.1635
     20 O          -3.8384    5.1728   20.5642 O.3     1  UNL1       -0.4629
     21 C          -5.1646    4.8737   19.9304 C.3     1  UNL1        0.1704
     22 C          -6.2387    5.9205   19.9090 C.3     1  UNL1        0.0607
     23 C          -7.5649    5.6214   19.2752 C.3     1  UNL1        0.0723
     24 N          -7.8170    4.2756   18.6627 N.3     1  UNL1       -0.2973
     25 C          -6.7429    3.2289   18.6840 C.3     1  UNL1        0.0723
     26 C          -5.4167    3.5279   19.3178 C.3     1  UNL1        0.0607
     27 H          -8.0514    4.4371   17.6832 H       1  UNL1        0.1233
@<TRIPOS>BOND
     1     7     8    1
     2     8     9   ar
     3     9    10   ar
     4    10    15    1
     5    15    16   ar
     6    16    17   ar
     7    17    18   ar
     8    18    19   ar
     9    10    11   ar
    10    11    12   ar
    11    12    13   ar
    12    13     1    1
    13     1     2   ar
    14     2     3   ar
    15     3     4   ar
    16     4    20    1
    17    20    21    1
    18    21    22    1
    19    22    23    1
    20    23    24    1
    21    24    25    1
    22    25    26    1
    23     4     5   ar
    24     5     6   ar
    25    13     8   ar
    26     6     1   ar
    27    19    15   ar
    28    26    21    1
    29     7    14    1
    30    24    27    1
@<TRIPOS>MOLECULE
*****
 27 30 0 0 0
SMALL
GASTEIGER

@<TRIPOS>ATOM
      1 C           6.1752   -2.5673   32.1602 C.ar    1  UNL1        0.1060
      2 C           7.1140   -1.4662   32.5553 C.ar    1  UNL1        0.0258
      3 C           6.7702   -0.5631   33.7025 C.ar    1  UNL1        0.0608
      4 C           5.4876   -0.7611   34.4547 C.ar    1  UNL1        0.2437
      5 N           4.5488   -1.8622   34.0596 N.ar    1  UNL1       -0.1103
      6 N           4.8926   -2.7654   32.9123 N.ar    1  UNL1       -0.1450
      7 O           6.5509   -5.5071   32.6257 O.3     1  UNL1       -0.5054
      8 C           6.7069   -4.9403   31.2457 C.ar    1  UNL1        0.1366
      9 C           7.0507   -5.8433   30.0984 C.ar    1  UNL1        0.0558
     10 C           7.2066   -5.2765   28.7184 C.ar    1  UNL1        0.0859
     11 C           7.0188   -3.8067   28.4856 C.ar    1  UNL1        0.0194
     12 C           6.6750   -2.9037   29.6329 C.ar    1  UNL1        0.0061
     13 C           6.5190   -3.4705   31.0129 C.ar    1  UNL1        0.0532
     14 H           6.6683   -6.4253   32.7710 H       1  UNL1        0.2922
     15 N           7.5505   -6.1797   27.5711 N.ar    1  UNL1       -0.2280
     16 C           8.2975   -7.4771   27.6635 C.ar    1  UNL1        0.1020
     17 C           8.4163   -8.0432   26.2795 C.ar    1  UNL1        0.0431
     18 C           7.7427   -7.0955   25.3317 C.ar    1  UNL1        0.1221
     19 N           7.2076   -5.9438   26.1299 N.ar    1  UNL1       -0.1635
     20 O           5.1438    0.1420   35.6020 O.3     1  UNL1       -0.4629
     21 C           4.0622    1.1700   35.4492 C.3     1  UNL1        0.1704
     22 C           3.4166    1.3865   34.1127 C.3     1  UNL1        0.0607
     23 C           2.3350    2.4145   33.9600 C.3     1  UNL1        0.0723
     24 N           1.8990    3.2261   35.1437 N.3     1  UNL1       -0.2973
     25 C           2.5446    3.0096   36.4802 C.3     1  UNL1        0.0723
     26 C           3.6262    1.9816   36.6330 C.3     1  UNL1        0.0607
     27 H           0.9013    3.0539   35.2674 H       1  UNL1        0.1233
@<TRIPOS>BOND
     1     7     8    1
     2     8     9   ar
     3     9    10   ar
     4    10    15    1
     5    15    16   ar
     6    16    17   ar
     7    17    18   ar
     8    18    19   ar
     9    10    11   ar
    10    11    12   ar
    11    12    13   ar
    12    13     1    1
    13     1     2   ar
    14     2     3   ar
    15     3     4   ar
    16     4    20    1
    17    20    21    1
    18    21    22    1
    19    22    23    1
    20    23    24    1
    21    24    25    1
    22    25    26    1
    23     4     5   ar
    24     5     6   ar
    25    13     8   ar
    26     6     1   ar
    27    19    15   ar
    28    26    21    1
    29     7    14    1
    30    24    27    1
@<TRIPOS>MOLECULE
*****
 27 30 0 0 0
SMALL
GASTEIGER

@<TRIPOS>ATOM
      1 C          -0.1369    2.3102   19.4991 C.ar    1  UNL1        0.1060
      2 C          -0.4742    3.3233   18.4456 C.ar    1  UNL1        0.0258
      3 C          -1.7023    4.1726   18.5877 C.ar    1  UNL1        0.0608
      4 C          -2.5932    4.0089   19.7834 C.ar    1  UNL1        0.2437
      5 N          -2.2559    2.9959   20.8369 N.ar    1  UNL1       -0.1103
      6 N          -1.0277    2.1465   20.6947 N.ar    1  UNL1       -0.1450
      7 O          -0.1292   -0.5025   20.5424 O.3     1  UNL1       -0.5054
      8 C           1.0952    0.0545   19.8786 C.ar    1  UNL1        0.1366
      9 C           2.3234   -0.7947   19.7364 C.ar    1  UNL1        0.0558
     10 C           3.5477   -0.2377   19.0725 C.ar    1  UNL1        0.0859
     11 C           3.5439    1.1687   18.5509 C.ar    1  UNL1        0.0194
     12 C           2.3157    2.0179   18.6931 C.ar    1  UNL1        0.0061
     13 C           1.0914    1.4609   19.3569 C.ar    1  UNL1        0.0532
     14 H          -0.1268   -1.3810   20.8682 H       1  UNL1        0.2922
     15 N           4.7759   -1.0871   18.9303 N.ar    1  UNL1       -0.2280
     16 C           5.6327   -1.5931   20.0527 C.ar    1  UNL1        0.1020
     17 C           6.7493   -2.3982   19.4569 C.ar    1  UNL1        0.0431
     18 C           6.5825   -2.3898   17.9661 C.ar    1  UNL1        0.1221
     19 N           5.3629   -1.5795   17.6408 N.ar    1  UNL1       -0.1635
     20 O          -3.8214    4.8583   19.9255 O.3     1  UNL1       -0.4629
     21 C          -4.5613    4.8947   21.2299 C.3     1  UNL1        0.1704
     22 C          -5.7773    4.0388   21.4265 C.3     1  UNL1        0.0607
     23 C          -6.5172    4.0752   22.7308 C.3     1  UNL1        0.0723
     24 N          -6.0411    4.9675   23.8385 N.3     1  UNL1       -0.2973
     25 C          -4.8251    5.8234   23.6419 C.3     1  UNL1        0.0723
     26 C          -4.0852    5.7870   22.3376 C.3     1  UNL1        0.0607
     27 H          -5.8513    4.3660   24.6401 H       1  UNL1        0.1233
@<TRIPOS>BOND
     1     7     8    1
     2     8     9   ar
     3     9    10   ar
     4    10    15    1
     5    15    16   ar
     6    16    17   ar
     7    17    18   ar
     8    18    19   ar
     9    10    11   ar
    10    11    12   ar
    11    12    13   ar
    12    13     1    1
    13     1     2   ar
    14     2     3   ar
    15     3     4   ar
    16     4    20    1
    17    20    21    1
    18    21    22    1
    19    22    23    1
    20    23    24    1
    21    24    25    1
    22    25    26    1
    23     4     5   ar
    24     5     6   ar
    25    13     8   ar
    26     6     1   ar
    27    19    15   ar
    28    26    21    1
    29     7    14    1
    30    24    27    1
@<TRIPOS>MOLECULE
*****
 27 30 0 0 0
SMALL
GASTEIGER

@<TRIPOS>ATOM
      1 C           0.6311    1.4469   23.1107 C.ar    1  UNL1        0.1060
      2 C           0.3665    1.1262   24.5519 C.ar    1  UNL1        0.0258
      3 C          -0.4442    2.0669   25.3931 C.ar    1  UNL1        0.0608
      4 C          -0.9904    3.3286   24.7930 C.ar    1  UNL1        0.2437
      5 N          -0.7259    3.6494   23.3518 N.ar    1  UNL1       -0.1103
      6 N           0.0849    2.7085   22.5106 N.ar    1  UNL1       -0.1450
      7 O          -0.4527    0.4626   20.4921 O.3     1  UNL1       -0.5054
      8 C           0.8999    0.0139   20.9602 C.ar    1  UNL1        0.1366
      9 C           1.7107   -0.9269   20.1191 C.ar    1  UNL1        0.0558
     10 C           3.0633   -1.3756   20.5873 C.ar    1  UNL1        0.0859
     11 C           3.6051   -0.8835   21.8965 C.ar    1  UNL1        0.0194
     12 C           2.7944    0.0573   22.7376 C.ar    1  UNL1        0.0061
     13 C           1.4418    0.5060   22.2695 C.ar    1  UNL1        0.0532
     14 H          -0.7911    0.1552   19.6743 H       1  UNL1        0.2922
     15 N           3.8740   -2.3165   19.7461 N.ar    1  UNL1       -0.2280
     16 C           3.6388   -3.7902   19.5955 C.ar    1  UNL1        0.1020
     17 C           4.6817   -4.3333   18.6642 C.ar    1  UNL1        0.0431
     18 C           5.5615   -3.1952   18.2391 C.ar    1  UNL1        0.1221
     19 N           5.0623   -1.9487   18.9078 N.ar    1  UNL1       -0.1635
     20 O          -1.8011    4.2694   25.6342 O.3     1  UNL1       -0.4629
     21 C          -3.2842    4.3675   25.4325 C.3     1  UNL1        0.1704
     22 C          -3.9316    3.6672   24.2748 C.3     1  UNL1        0.0607
     23 C          -5.4147    3.7653   24.0730 C.3     1  UNL1        0.0723
     24 N          -6.2505    4.5639   25.0290 N.3     1  UNL1       -0.2973
     25 C          -5.6031    5.2642   26.1867 C.3     1  UNL1        0.0723
     26 C          -4.1199    5.1661   26.3884 C.3     1  UNL1        0.0607
     27 H          -6.9417    3.9243   25.4209 H       1  UNL1        0.1233
@<TRIPOS>BOND
     1     7     8    1
     2     8     9   ar
     3     9    10   ar
     4    10    15    1
     5    15    16   ar
     6    16    17   ar
     7    17    18   ar
     8    18    19   ar
     9    10    11   ar
    10    11    12   ar
    11    12    13   ar
    12    13     1    1
    13     1     2   ar
    14     2     3   ar
    15     3     4   ar
    16     4    20    1
    17    20    21    1
    18    21    22    1
    19    22    23    1
    20    23    24    1
    21    24    25    1
    22    25    26    1
    23     4     5   ar
    24     5     6   ar
    25    13     8   ar
    26     6     1   ar
    27    19    15   ar
    28    26    21    1
    29     7    14    1
    30    24    27    1
@<TRIPOS>MOLECULE
*****
 27 30 0 0 0
SMALL
GASTEIGER

@<TRIPOS>ATOM
      1 C          -8.3797    4.7693   23.9135 C.ar    1  UNL1        0.1060
      2 C          -8.7353    6.1798   24.2797 C.ar    1  UNL1        0.0258
      3 C         -10.1237    6.5070   24.7435 C.ar    1  UNL1        0.0608
      4 C         -11.1567    5.4237   24.8411 C.ar    1  UNL1        0.2437
      5 N         -10.8011    4.0132   24.4750 N.ar    1  UNL1       -0.1103
      6 N          -9.4125    3.6860   24.0112 N.ar    1  UNL1       -0.1450
      7 O          -7.6657    5.0354   21.0119 O.3     1  UNL1       -0.5054
      8 C          -6.6342    4.5752   21.9989 C.ar    1  UNL1        0.1366
      9 C          -5.2457    4.2481   21.5352 C.ar    1  UNL1        0.0558
     10 C          -4.2142    3.7879   22.5223 C.ar    1  UNL1        0.0859
     11 C          -4.5712    3.6549   23.9731 C.ar    1  UNL1        0.0194
     12 C          -5.9597    3.9820   24.4368 C.ar    1  UNL1        0.0061
     13 C          -6.9912    4.4422   23.4497 C.ar    1  UNL1        0.0532
     14 H          -7.4427    5.1185   20.1056 H       1  UNL1        0.2922
     15 N          -2.8257    3.4608   22.0585 N.ar    1  UNL1       -0.2280
     16 C          -1.5586    3.7179   22.8189 C.ar    1  UNL1        0.1020
     17 C          -0.4103    3.2351   21.9832 C.ar    1  UNL1        0.0431
     18 C          -0.9678    2.6796   20.7062 C.ar    1  UNL1        0.1221
     19 N          -2.4606    2.8191   20.7527 N.ar    1  UNL1       -0.1635
     20 O         -12.5451    5.7508   25.3049 O.3     1  UNL1       -0.4629
     21 C         -13.7306    5.2563   24.5303 C.3     1  UNL1        0.1704
     22 C         -14.9067    4.6691   25.2529 C.3     1  UNL1        0.0607
     23 C         -16.0922    4.1745   24.4783 C.3     1  UNL1        0.0723
     24 N         -16.1017    4.2672   22.9812 N.3     1  UNL1       -0.2973
     25 C         -14.9256    4.8543   22.2587 C.3     1  UNL1        0.0723
     26 C         -13.7401    5.3489   23.0333 C.3     1  UNL1        0.0607
     27 H         -16.9142    4.8285   22.7261 H       1  UNL1        0.1233
@<TRIPOS>BOND
     1     7     8    1
     2     8     9   ar
     3     9    10   ar
     4    10    15    1
     5    15    16   ar
     6    16    17   ar
     7    17    18   ar
     8    18    19   ar
     9    10    11   ar
    10    11    12   ar
    11    12    13   ar
    12    13     1    1
    13     1     2   ar
    14     2     3   ar
    15     3     4   ar
    16     4    20    1
    17    20    21    1
    18    21    22    1
    19    22    23    1
    20    23    24    1
    21    24    25    1
    22    25    26    1
    23     4     5   ar
    24     5     6   ar
    25    13     8   ar
    26     6     1   ar
    27    19    15   ar
    28    26    21    1
    29     7    14    1
    30    24    27    1
@<TRIPOS>MOLECULE
*****
 27 30 0 0 0
SMALL
GASTEIGER

@<TRIPOS>ATOM
      1 C         -13.6027   -1.3096   18.5863 C.ar    1  UNL1        0.1060
      2 C         -12.9873   -2.3384   19.4879 C.ar    1  UNL1        0.0258
      3 C         -11.8989   -3.2326   18.9724 C.ar    1  UNL1        0.0608
      4 C         -11.4258   -3.0980   17.5553 C.ar    1  UNL1        0.2437
      5 N         -12.0412   -2.0692   16.6537 N.ar    1  UNL1       -0.1103
      6 N         -13.1296   -1.1750   17.1693 N.ar    1  UNL1       -0.1450
      7 O         -13.4454    1.6534   18.1435 O.3     1  UNL1       -0.5054
      8 C         -14.6125    1.0661   18.8804 C.ar    1  UNL1        0.1366
      9 C         -15.7009    1.9602   19.3960 C.ar    1  UNL1        0.0558
     10 C         -16.8679    1.3729   20.1329 C.ar    1  UNL1        0.0859
     11 C         -16.9466   -0.1085   20.3543 C.ar    1  UNL1        0.0194
     12 C         -15.8582   -1.0027   19.8388 C.ar    1  UNL1        0.0061
     13 C         -14.6911   -0.4154   19.1018 C.ar    1  UNL1        0.0532
     14 H         -13.3963    2.5788   18.0052 H       1  UNL1        0.2922
     15 N         -17.9564    2.2671   20.6484 N.ar    1  UNL1       -0.2280
     16 C         -19.2288    1.8192   21.3043 C.ar    1  UNL1        0.1020
     17 C         -20.0223    3.0415   21.6598 C.ar    1  UNL1        0.0431
     18 C         -19.2402    4.2449   21.2236 C.ar    1  UNL1        0.1221
     19 N         -17.9634    3.7663   20.5985 N.ar    1  UNL1       -0.1635
     20 O         -10.3374   -3.9923   17.0398 O.3     1  UNL1       -0.4629
     21 C         -10.3614   -5.4593   17.3516 C.3     1  UNL1        0.1704
     22 C         -11.2361   -6.3812   16.5548 C.3     1  UNL1        0.0607
     23 C         -11.2601   -7.8482   16.8666 C.3     1  UNL1        0.0723
     24 N         -10.4094   -8.3934   17.9752 N.3     1  UNL1       -0.2973
     25 C          -9.5347   -7.4715   18.7720 C.3     1  UNL1        0.0723
     26 C          -9.5107   -6.0044   18.4602 C.3     1  UNL1        0.0607
     27 H          -9.7963   -9.0941   17.5586 H       1  UNL1        0.1233
@<TRIPOS>BOND
     1     7     8    1
     2     8     9   ar
     3     9    10   ar
     4    10    15    1
     5    15    16   ar
     6    16    17   ar
     7    17    18   ar
     8    18    19   ar
     9    10    11   ar
    10    11    12   ar
    11    12    13   ar
    12    13     1    1
    13     1     2   ar
    14     2     3   ar
    15     3     4   ar
    16     4    20    1
    17    20    21    1
    18    21    22    1
    19    22    23    1
    20    23    24    1
    21    24    25    1
    22    25    26    1
    23     4     5   ar
    24     5     6   ar
    25    13     8   ar
    26     6     1   ar
    27    19    15   ar
    28    26    21    1
    29     7    14    1
    30    24    27    1
@<TRIPOS>MOLECULE
*****
 27 30 0 0 0
SMALL
GASTEIGER

@<TRIPOS>ATOM
      1 C         -14.6507   -3.2354   18.9439 C.ar    1  UNL1        0.1060
      2 C         -13.8425   -3.9527   19.9843 C.ar    1  UNL1        0.0258
      3 C         -13.7361   -5.4486   19.9515 C.ar    1  UNL1        0.0608
      4 C         -14.4378   -6.2271   18.8784 C.ar    1  UNL1        0.2437
      5 N         -15.2460   -5.5097   17.8380 N.ar    1  UNL1       -0.1103
      6 N         -15.3524   -4.0138   17.8708 N.ar    1  UNL1       -0.1450
      7 O         -16.9977   -1.9273   20.2783 O.3     1  UNL1       -0.5054
      8 C         -15.9306   -1.0855   19.6439 C.ar    1  UNL1        0.1366
      9 C         -16.0369    0.4104   19.6767 C.ar    1  UNL1        0.0558
     10 C         -14.9698    1.2522   19.0423 C.ar    1  UNL1        0.0859
     11 C         -13.7963    0.5983   18.3751 C.ar    1  UNL1        0.0194
     12 C         -13.6899   -0.8976   18.3424 C.ar    1  UNL1        0.0061
     13 C         -14.7571   -1.7394   18.9767 C.ar    1  UNL1        0.0532
     14 H         -17.7308   -1.5188   20.6951 H       1  UNL1        0.2922
     15 N         -15.0762    2.7481   19.0751 N.ar    1  UNL1       -0.2280
     16 C         -15.1147    3.6557   17.8815 C.ar    1  UNL1        0.1020
     17 C         -15.2250    5.0675   18.3760 C.ar    1  UNL1        0.0431
     18 C         -15.2547    5.0325   19.8754 C.ar    1  UNL1        0.1221
     19 N         -15.1627    3.5991   20.3074 N.ar    1  UNL1       -0.1635
     20 O         -14.3314   -7.7229   18.8456 O.3     1  UNL1       -0.4629
     21 C         -15.5659   -8.5656   18.9713 C.3     1  UNL1        0.1704
     22 C         -15.6539   -9.8790   18.2522 C.3     1  UNL1        0.0607
     23 C         -16.8885  -10.7217   18.3779 C.3     1  UNL1        0.0723
     24 N         -18.0350  -10.2510   19.2228 N.3     1  UNL1       -0.2973
     25 C         -17.9470   -8.9376   19.9419 C.3     1  UNL1        0.0723
     26 C         -16.7125   -8.0949   19.8162 C.3     1  UNL1        0.0607
     27 H         -18.1901  -10.9660   19.9335 H       1  UNL1        0.1233
@<TRIPOS>BOND
     1     7     8    1
     2     8     9   ar
     3     9    10   ar
     4    10    15    1
     5    15    16   ar
     6    16    17   ar
     7    17    18   ar
     8    18    19   ar
     9    10    11   ar
    10    11    12   ar
    11    12    13   ar
    12    13     1    1
    13     1     2   ar
    14     2     3   ar
    15     3     4   ar
    16     4    20    1
    17    20    21    1
    18    21    22    1
    19    22    23    1
    20    23    24    1
    21    24    25    1
    22    25    26    1
    23     4     5   ar
    24     5     6   ar
    25    13     8   ar
    26     6     1   ar
    27    19    15   ar
    28    26    21    1
    29     7    14    1
    30    24    27    1
