@<TRIPOS>MOLECULE
*****
 22 23 0 0 0
SMALL
GASTEIGER

@<TRIPOS>ATOM
      1 C          -8.5319  -17.5340   22.7540 C.3     1  UNL1        0.0754
      2 C         -10.0246  -17.4716   22.8883 C.ar    1  UNL1       -0.0121
      3 C         -10.7934  -16.3760   22.2110 C.ar    1  UNL1       -0.0034
      4 C         -12.2861  -16.3136   22.3454 C.ar    1  UNL1       -0.0003
      5 C         -13.0099  -17.3468   23.1569 C.ar    1  UNL1       -0.0000
      6 C         -12.2411  -18.4423   23.8342 C.ar    1  UNL1       -0.0003
      7 C         -10.7485  -18.5047   23.6999 C.ar    1  UNL1       -0.0034
      8 S          -7.7061  -16.3032   22.9842 S.3     1  UNL1       -0.1093
      9 C          -5.8049  -15.9435   24.7180 C.ar    1  UNL1        0.0741
     10 C          -5.3634  -15.5853   26.1061 C.ar    1  UNL1        0.0116
     11 C          -6.3814  -15.2287   27.1484 C.ar    1  UNL1        0.0121
     12 C          -7.8410  -15.2302   26.8026 C.ar    1  UNL1        0.0582
     13 CL         -8.8590  -14.8736   27.8449 Cl      1  UNL1       -0.0822
     14 C          -8.2825  -15.5884   25.4146 C.ar    1  UNL1        0.0182
     15 C          -7.2645  -15.9450   24.3723 C.ar    1  UNL1        0.0359
     16 N          -3.7688  -16.6567   22.6334 N.1     1  UNL1       -0.1908
     17 C          -4.7868  -16.3001   23.6757 C.1     1  UNL1        0.1009
     18 C          -7.8651  -18.8274   22.3896 C.3     1  UNL1        0.0324
     19 C          -6.5811  -18.8167   21.6142 C.3     1  UNL1        0.0664
     20 N          -6.5866  -18.4519   20.1593 N.3     1  UNL1       -0.3211
     21 H          -7.0980  -19.1604   19.6331 H       1  UNL1        0.1189
     22 H          -5.6268  -18.4015   19.8178 H       1  UNL1        0.1189
@<TRIPOS>BOND
     1    16    17    3
     2    17     9    1
     3     9    10   ar
     4    10    11   ar
     5    11    12   ar
     6    12    13    1
     7    12    14   ar
     8    14    15   ar
     9    15     8    1
    10     8     1    1
    11     1    18    1
    12    18    19    1
    13    19    20    1
    14     1     2    1
    15     2     3   ar
    16     3     4   ar
    17     4     5   ar
    18     5     6   ar
    19     6     7   ar
    20    15     9   ar
    21     7     2   ar
    22    20    21    1
    23    20    22    1
@<TRIPOS>MOLECULE
*****
 22 23 0 0 0
SMALL
GASTEIGER

@<TRIPOS>ATOM
      1 C          -9.3572  -17.0897   23.9654 C.3     1  UNL1        0.0754
      2 C          -8.3742  -16.4959   24.9304 C.ar    1  UNL1       -0.0121
      3 C          -8.6425  -16.5538   26.4051 C.ar    1  UNL1       -0.0034
      4 C          -7.6596  -15.9600   27.3701 C.ar    1  UNL1       -0.0003
      5 C          -6.4083  -15.3083   26.8603 C.ar    1  UNL1       -0.0000
      6 C          -6.1401  -15.2504   25.3857 C.ar    1  UNL1       -0.0003
      7 C          -7.1230  -15.8442   24.4207 C.ar    1  UNL1       -0.0034
      8 S          -9.3028  -16.7155   22.5139 S.3     1  UNL1       -0.1093
      9 C         -10.1409  -18.1454   20.5132 C.ar    1  UNL1        0.0741
     10 C          -9.8922  -19.1998   19.4756 C.ar    1  UNL1        0.0116
     11 C          -8.5567  -19.8786   19.4013 C.ar    1  UNL1        0.0121
     12 C          -7.4698  -19.5030   20.3644 C.ar    1  UNL1        0.0582
     13 CL         -6.1343  -20.1818   20.2900 Cl      1  UNL1       -0.0822
     14 C          -7.7185  -18.4487   21.4019 C.ar    1  UNL1        0.0182
     15 C          -9.0541  -17.7699   21.4763 C.ar    1  UNL1        0.0359
     16 N         -12.8121  -16.7879   20.6619 N.1     1  UNL1       -0.1908
     17 C         -11.4765  -17.4666   20.5875 C.1     1  UNL1        0.1009
     18 C         -10.3945  -18.0578   24.4520 C.3     1  UNL1        0.0324
     19 C         -10.1990  -19.5312   24.2498 C.3     1  UNL1        0.0664
     20 N         -10.1952  -20.4562   25.4305 N.3     1  UNL1       -0.3211
     21 H          -9.3853  -20.2554   26.0172 H       1  UNL1        0.1189
     22 H         -10.1487  -21.4220   25.1056 H       1  UNL1        0.1189
@<TRIPOS>BOND
     1    16    17    3
     2    17     9    1
     3     9    10   ar
     4    10    11   ar
     5    11    12   ar
     6    12    13    1
     7    12    14   ar
     8    14    15   ar
     9    15     8    1
    10     8     1    1
    11     1    18    1
    12    18    19    1
    13    19    20    1
    14     1     2    1
    15     2     3   ar
    16     3     4   ar
    17     4     5   ar
    18     5     6   ar
    19     6     7   ar
    20    15     9   ar
    21     7     2   ar
    22    20    21    1
    23    20    22    1
@<TRIPOS>MOLECULE
*****
 22 23 0 0 0
SMALL
GASTEIGER

@<TRIPOS>ATOM
      1 C          -7.4074  -18.4344   22.1833 C.3     1  UNL1        0.0754
      2 C          -6.0383  -18.9031   21.7885 C.ar    1  UNL1       -0.0121
      3 C          -4.8453  -18.5090   22.6081 C.ar    1  UNL1       -0.0034
      4 C          -3.4762  -18.9777   22.2133 C.ar    1  UNL1       -0.0003
      5 C          -3.3000  -19.8403   20.9988 C.ar    1  UNL1       -0.0000
      6 C          -4.4930  -20.2343   20.1793 C.ar    1  UNL1       -0.0003
      7 C          -5.8621  -19.7657   20.5741 C.ar    1  UNL1       -0.0034
      8 S          -8.6217  -19.1545   21.6766 S.3     1  UNL1       -0.1093
      9 C         -10.8188  -18.8822   23.0363 C.ar    1  UNL1        0.0741
     10 C         -12.1776  -18.2683   23.1999 C.ar    1  UNL1        0.0116
     11 C         -12.6981  -17.3126   22.1674 C.ar    1  UNL1        0.0121
     12 C         -11.8598  -16.9710   20.9714 C.ar    1  UNL1        0.0582
     13 CL        -12.3802  -16.0154   19.9390 Cl      1  UNL1       -0.0822
     14 C         -10.5010  -17.5849   20.8078 C.ar    1  UNL1        0.0182
     15 C          -9.9805  -18.5406   21.8403 C.ar    1  UNL1        0.0359
     16 N          -9.7779  -20.7935   25.1011 N.1     1  UNL1       -0.1908
     17 C         -10.2984  -19.8378   24.0687 C.1     1  UNL1        0.1009
     18 C          -7.5621  -17.2456   23.0850 C.3     1  UNL1        0.0324
     19 C          -7.7187  -15.8743   22.4977 C.3     1  UNL1        0.0664
     20 N          -7.6680  -14.6674   23.3870 N.3     1  UNL1       -0.3211
     21 H          -8.4698  -14.6757   24.0175 H       1  UNL1        0.1189
     22 H          -7.6935  -13.8228   22.8156 H       1  UNL1        0.1189
@<TRIPOS>BOND
     1    16    17    3
     2    17     9    1
     3     9    10   ar
     4    10    11   ar
     5    11    12   ar
     6    12    13    1
     7    12    14   ar
     8    14    15   ar
     9    15     8    1
    10     8     1    1
    11     1    18    1
    12    18    19    1
    13    19    20    1
    14     1     2    1
    15     2     3   ar
    16     3     4   ar
    17     4     5   ar
    18     5     6   ar
    19     6     7   ar
    20    15     9   ar
    21     7     2   ar
    22    20    21    1
    23    20    22    1
@<TRIPOS>MOLECULE
*****
 22 23 0 0 0
SMALL
GASTEIGER

@<TRIPOS>ATOM
      1 C          -9.0479  -16.8554   23.5511 C.3     1  UNL1        0.0754
      2 C         -10.5046  -17.2130   23.5455 C.ar    1  UNL1       -0.0121
      3 C         -11.4589  -16.4579   22.6683 C.ar    1  UNL1       -0.0034
      4 C         -12.9156  -16.8155   22.6627 C.ar    1  UNL1       -0.0003
      5 C         -13.4181  -17.9282   23.5343 C.ar    1  UNL1       -0.0000
      6 C         -12.4638  -18.6831   24.4114 C.ar    1  UNL1       -0.0003
      7 C         -11.0071  -18.3255   24.4170 C.ar    1  UNL1       -0.0034
      8 S          -8.2797  -16.8186   22.2633 S.3     1  UNL1       -0.1093
      9 C          -8.0048  -19.0155   20.9037 C.ar    1  UNL1        0.0741
     10 C          -7.1719  -20.1936   20.4934 C.ar    1  UNL1        0.0116
     11 C          -5.7811  -20.3530   21.0322 C.ar    1  UNL1        0.0121
     12 C          -5.2232  -19.3343   21.9813 C.ar    1  UNL1        0.0582
     13 CL         -3.8324  -19.4937   22.5201 Cl      1  UNL1       -0.0822
     14 C          -6.0560  -18.1562   22.3917 C.ar    1  UNL1        0.0182
     15 C          -7.4468  -17.9968   21.8529 C.ar    1  UNL1        0.0359
     16 N         -10.7863  -18.6967   19.8261 N.1     1  UNL1       -0.1908
     17 C          -9.3955  -18.8561   20.3649 C.1     1  UNL1        0.1009
     18 C          -8.3593  -16.5345   24.8446 C.3     1  UNL1        0.0324
     19 C          -7.3380  -15.4373   24.8984 C.3     1  UNL1        0.0664
     20 N          -7.5893  -14.1429   24.1835 N.3     1  UNL1       -0.3211
     21 H          -7.6090  -14.3085   23.1772 H       1  UNL1        0.1189
     22 H          -6.8446  -13.4820   24.4048 H       1  UNL1        0.1189
@<TRIPOS>BOND
     1    16    17    3
     2    17     9    1
     3     9    10   ar
     4    10    11   ar
     5    11    12   ar
     6    12    13    1
     7    12    14   ar
     8    14    15   ar
     9    15     8    1
    10     8     1    1
    11     1    18    1
    12    18    19    1
    13    19    20    1
    14     1     2    1
    15     2     3   ar
    16     3     4   ar
    17     4     5   ar
    18     5     6   ar
    19     6     7   ar
    20    15     9   ar
    21     7     2   ar
    22    20    21    1
    23    20    22    1
@<TRIPOS>MOLECULE
*****
 22 23 0 0 0
SMALL
GASTEIGER

@<TRIPOS>ATOM
      1 C          -8.8390  -17.4941   22.9120 C.3     1  UNL1        0.0754
      2 C          -8.7974  -18.2648   21.6258 C.ar    1  UNL1       -0.0121
      3 C         -10.0384  -18.4046   20.7948 C.ar    1  UNL1       -0.0034
      4 C          -9.9969  -19.1753   19.5086 C.ar    1  UNL1       -0.0003
      5 C          -8.7143  -19.8062   19.0534 C.ar    1  UNL1       -0.0000
      6 C          -7.4734  -19.6664   19.8844 C.ar    1  UNL1       -0.0003
      7 C          -7.5150  -18.8957   21.1706 C.ar    1  UNL1       -0.0034
      8 S          -7.9512  -16.2997   23.0997 S.3     1  UNL1       -0.1093
      9 C          -5.9870  -16.0376   24.7800 C.ar    1  UNL1        0.0741
     10 C          -5.4873  -15.6824   26.1489 C.ar    1  UNL1        0.0116
     11 C          -6.4518  -15.2339   27.2065 C.ar    1  UNL1        0.0121
     12 C          -7.9162  -15.1408   26.8952 C.ar    1  UNL1        0.0582
     13 CL         -8.8808  -14.6924   27.9528 Cl      1  UNL1       -0.0822
     14 C          -8.4159  -15.4961   25.5263 C.ar    1  UNL1        0.0182
     15 C          -7.4514  -15.9445   24.4687 C.ar    1  UNL1        0.0359
     16 N          -4.0579  -16.9344   22.6648 N.1     1  UNL1       -0.1908
     17 C          -5.0224  -16.4860   23.7224 C.1     1  UNL1        0.1009
     18 C          -9.7685  -17.9178   24.0105 C.3     1  UNL1        0.0324
     19 C         -10.1778  -19.3555   24.1337 C.3     1  UNL1        0.0664
     20 N         -10.0896  -20.0493   25.4607 N.3     1  UNL1       -0.3211
     21 H          -9.1116  -20.1258   25.7400 H       1  UNL1        0.1189
     22 H         -10.4953  -20.9821   25.3843 H       1  UNL1        0.1189
@<TRIPOS>BOND
     1    16    17    3
     2    17     9    1
     3     9    10   ar
     4    10    11   ar
     5    11    12   ar
     6    12    13    1
     7    12    14   ar
     8    14    15   ar
     9    15     8    1
    10     8     1    1
    11     1    18    1
    12    18    19    1
    13    19    20    1
    14     1     2    1
    15     2     3   ar
    16     3     4   ar
    17     4     5   ar
    18     5     6   ar
    19     6     7   ar
    20    15     9   ar
    21     7     2   ar
    22    20    21    1
    23    20    22    1
@<TRIPOS>MOLECULE
*****
 22 23 0 0 0
SMALL
GASTEIGER

@<TRIPOS>ATOM
      1 C          -9.0899  -16.7006   23.7220 C.3     1  UNL1        0.0754
      2 C         -10.3562  -17.0189   22.9836 C.ar    1  UNL1       -0.0121
      3 C         -10.5237  -16.5811   21.5586 C.ar    1  UNL1       -0.0034
      4 C         -11.7900  -16.8995   20.8202 C.ar    1  UNL1       -0.0003
      5 C         -12.8887  -17.6555   21.5068 C.ar    1  UNL1       -0.0000
      6 C         -12.7211  -18.0932   22.9316 C.ar    1  UNL1       -0.0003
      7 C         -11.4549  -17.7749   23.6700 C.ar    1  UNL1       -0.0034
      8 S          -7.8630  -16.2884   22.9638 S.3     1  UNL1       -0.1093
      9 C          -5.4321  -17.0371   23.4931 C.ar    1  UNL1        0.0741
     10 C          -4.3026  -18.0069   23.3099 C.ar    1  UNL1        0.0116
     11 C          -4.4744  -19.1978   22.4142 C.ar    1  UNL1        0.0121
     12 C          -5.7757  -19.4189   21.7018 C.ar    1  UNL1        0.0582
     13 CL         -5.9475  -20.6098   20.8061 Cl      1  UNL1       -0.0822
     14 C          -6.9052  -18.4491   21.8850 C.ar    1  UNL1        0.0182
     15 C          -6.7334  -17.2582   22.7806 C.ar    1  UNL1        0.0359
     16 N          -5.0885  -14.6553   25.2845 N.1     1  UNL1       -0.1908
     17 C          -5.2603  -15.8462   24.3888 C.1     1  UNL1        0.1009
     18 C          -9.0506  -16.7944   25.2185 C.3     1  UNL1        0.0324
     19 C          -8.4395  -15.6862   26.0237 C.3     1  UNL1        0.0664
     20 N          -8.2779  -15.8381   27.5072 N.3     1  UNL1       -0.3211
     21 H          -9.1973  -15.8815   27.9467 H       1  UNL1        0.1189
     22 H          -7.7619  -15.0395   27.8765 H       1  UNL1        0.1189
@<TRIPOS>BOND
     1    16    17    3
     2    17     9    1
     3     9    10   ar
     4    10    11   ar
     5    11    12   ar
     6    12    13    1
     7    12    14   ar
     8    14    15   ar
     9    15     8    1
    10     8     1    1
    11     1    18    1
    12    18    19    1
    13    19    20    1
    14     1     2    1
    15     2     3   ar
    16     3     4   ar
    17     4     5   ar
    18     5     6   ar
    19     6     7   ar
    20    15     9   ar
    21     7     2   ar
    22    20    21    1
    23    20    22    1
@<TRIPOS>MOLECULE
*****
 22 23 0 0 0
SMALL
GASTEIGER

@<TRIPOS>ATOM
      1 C          -7.5326  -18.6786   21.9452 C.3     1  UNL1        0.0754
      2 C          -6.1544  -19.1611   21.6018 C.ar    1  UNL1       -0.0121
      3 C          -5.9387  -20.0094   20.3836 C.ar    1  UNL1       -0.0034
      4 C          -4.5605  -20.4919   20.0402 C.ar    1  UNL1       -0.0003
      5 C          -3.3981  -20.1259   20.9149 C.ar    1  UNL1       -0.0000
      6 C          -3.6139  -19.2776   22.1330 C.ar    1  UNL1       -0.0003
      7 C          -4.9921  -18.7952   22.4764 C.ar    1  UNL1       -0.0034
      8 S          -7.7967  -17.2100   22.0981 S.3     1  UNL1       -0.1093
      9 C          -9.0121  -16.4022   24.2476 C.ar    1  UNL1        0.0741
     10 C          -8.9646  -15.7692   25.6066 C.ar    1  UNL1        0.0116
     11 C          -7.6544  -15.3109   26.1753 C.ar    1  UNL1        0.0121
     12 C          -6.3916  -15.4857   25.3849 C.ar    1  UNL1        0.0582
     13 CL         -5.0814  -15.0274   25.9535 Cl      1  UNL1       -0.0822
     14 C          -6.4391  -16.1187   24.0258 C.ar    1  UNL1        0.0182
     15 C          -7.7493  -16.5770   23.4572 C.ar    1  UNL1        0.0359
     16 N         -11.6325  -17.3187   23.1104 N.1     1  UNL1       -0.1908
     17 C         -10.3223  -16.8605   23.6790 C.1     1  UNL1        0.1009
     18 C          -8.6467  -19.6649   22.1357 C.3     1  UNL1        0.0324
     19 C          -8.9315  -20.2204   23.4996 C.3     1  UNL1        0.0664
     20 N         -10.3419  -20.2767   24.0069 N.3     1  UNL1       -0.3211
     21 H         -10.6966  -19.3284   24.1313 H       1  UNL1        0.1189
     22 H         -10.3624  -20.7673   24.9009 H       1  UNL1        0.1189
@<TRIPOS>BOND
     1    16    17    3
     2    17     9    1
     3     9    10   ar
     4    10    11   ar
     5    11    12   ar
     6    12    13    1
     7    12    14   ar
     8    14    15   ar
     9    15     8    1
    10     8     1    1
    11     1    18    1
    12    18    19    1
    13    19    20    1
    14     1     2    1
    15     2     3   ar
    16     3     4   ar
    17     4     5   ar
    18     5     6   ar
    19     6     7   ar
    20    15     9   ar
    21     7     2   ar
    22    20    21    1
    23    20    22    1
@<TRIPOS>MOLECULE
*****
 22 23 0 0 0
SMALL
GASTEIGER

@<TRIPOS>ATOM
      1 C          -7.4738  -19.0961   21.3623 C.3     1  UNL1        0.0754
      2 C          -5.9812  -19.2256   21.4362 C.ar    1  UNL1       -0.0121
      3 C          -5.2468  -20.0348   20.4085 C.ar    1  UNL1       -0.0034
      4 C          -3.7542  -20.1643   20.4824 C.ar    1  UNL1       -0.0003
      5 C          -2.9960  -19.4847   21.5839 C.ar    1  UNL1       -0.0000
      6 C          -3.7304  -18.6756   22.6115 C.ar    1  UNL1       -0.0003
      7 C          -5.2230  -18.5461   22.5376 C.ar    1  UNL1       -0.0034
      8 S          -8.1735  -18.0262   22.1469 S.3     1  UNL1       -0.1093
      9 C         -10.6428  -18.4323   22.8452 C.ar    1  UNL1        0.0741
     10 C         -12.1082  -18.1877   22.6386 C.ar    1  UNL1        0.0116
     11 C         -12.5698  -17.2924   21.5271 C.ar    1  UNL1        0.0121
     12 C         -11.5659  -16.6417   20.6222 C.ar    1  UNL1        0.0582
     13 CL        -12.0274  -15.7464   19.5107 Cl      1  UNL1       -0.0822
     14 C         -10.1005  -16.8863   20.8288 C.ar    1  UNL1        0.0182
     15 C          -9.6390  -17.7816   21.9403 C.ar    1  UNL1        0.0359
     16 N          -9.7198  -20.2229   25.0682 N.1     1  UNL1       -0.1908
     17 C         -10.1813  -19.3276   23.9567 C.1     1  UNL1        0.1009
     18 C          -8.2666  -20.0365   20.5037 C.3     1  UNL1        0.0324
     19 C          -8.5532  -19.6857   19.0738 C.3     1  UNL1        0.0664
     20 N          -9.0402  -20.7411   18.1257 N.3     1  UNL1       -0.3211
     21 H          -8.3080  -21.4376   17.9871 H       1  UNL1        0.1189
     22 H          -9.2750  -20.3120   17.2307 H       1  UNL1        0.1189
@<TRIPOS>BOND
     1    16    17    3
     2    17     9    1
     3     9    10   ar
     4    10    11   ar
     5    11    12   ar
     6    12    13    1
     7    12    14   ar
     8    14    15   ar
     9    15     8    1
    10     8     1    1
    11     1    18    1
    12    18    19    1
    13    19    20    1
    14     1     2    1
    15     2     3   ar
    16     3     4   ar
    17     4     5   ar
    18     5     6   ar
    19     6     7   ar
    20    15     9   ar
    21     7     2   ar
    22    20    21    1
    23    20    22    1
@<TRIPOS>MOLECULE
*****
 22 23 0 0 0
SMALL
GASTEIGER

@<TRIPOS>ATOM
      1 C          -8.7813  -16.7044   24.1311 C.3     1  UNL1        0.0754
      2 C         -10.1989  -17.0375   23.7715 C.ar    1  UNL1       -0.0121
      3 C         -10.9785  -16.1253   22.8713 C.ar    1  UNL1       -0.0034
      4 C         -12.3961  -16.4584   22.5117 C.ar    1  UNL1       -0.0003
      5 C         -13.0342  -17.7037   23.0523 C.ar    1  UNL1       -0.0000
      6 C         -12.2547  -18.6158   23.9525 C.ar    1  UNL1       -0.0003
      7 C         -10.8370  -18.2827   24.3121 C.ar    1  UNL1       -0.0034
      8 S          -7.7270  -16.6631   23.0649 S.3     1  UNL1       -0.1093
      9 C          -6.2784  -18.5348   21.9931 C.ar    1  UNL1        0.0741
     10 C          -6.1369  -19.6790   21.0336 C.ar    1  UNL1        0.0116
     11 C          -7.3024  -20.0959   20.1864 C.ar    1  UNL1        0.0121
     12 C          -8.6094  -19.3685   20.2986 C.ar    1  UNL1        0.0582
     13 CL         -9.7749  -19.7854   19.4514 Cl      1  UNL1       -0.0822
     14 C          -8.7509  -18.2243   21.2581 C.ar    1  UNL1        0.0182
     15 C          -7.5854  -17.8074   22.1054 C.ar    1  UNL1        0.0359
     16 N          -3.9474  -17.7010   23.6876 N.1     1  UNL1       -0.1908
     17 C          -5.1129  -18.1179   22.8404 C.1     1  UNL1        0.1009
     18 C          -8.4179  -16.4126   25.5569 C.3     1  UNL1        0.0324
     19 C          -7.2039  -15.5884   25.8679 C.3     1  UNL1        0.0664
     20 N          -7.0920  -14.8869   27.1890 N.3     1  UNL1       -0.3211
     21 H          -7.8095  -14.1647   27.2523 H       1  UNL1        0.1189
     22 H          -6.1699  -14.4582   27.2692 H       1  UNL1        0.1189
@<TRIPOS>BOND
     1    16    17    3
     2    17     9    1
     3     9    10   ar
     4    10    11   ar
     5    11    12   ar
     6    12    13    1
     7    12    14   ar
     8    14    15   ar
     9    15     8    1
    10     8     1    1
    11     1    18    1
    12    18    19    1
    13    19    20    1
    14     1     2    1
    15     2     3   ar
    16     3     4   ar
    17     4     5   ar
    18     5     6   ar
    19     6     7   ar
    20    15     9   ar
    21     7     2   ar
    22    20    21    1
    23    20    22    1
