@<TRIPOS>MOLECULE
*****
 31 32 0 0 0
SMALL
GASTEIGER

@<TRIPOS>ATOM
      1 C         -10.2163  -18.1491   22.4696 C.3     1  UNL1        0.0828
      2 C          -9.8307  -19.1783   23.4905 C.2     1  UNL1        0.2442
      3 O          -8.6310  -20.0490   23.2616 O.2     1  UNL1       -0.2730
      4 N         -10.6449  -19.3366   24.7403 N.am    1  UNL1       -0.1970
      5 O         -10.2594  -20.3657   25.7612 O.3     1  UNL1       -0.2952
      6 H         -11.4323  -18.7651   24.8906 H       1  UNL1        0.1822
      7 H          -9.4673  -20.8384   25.4608 H       1  UNL1        0.2414
      8 C          -9.8753  -16.7057   22.6940 C.3     1  UNL1        0.0355
      9 C          -4.8250  -15.9586   23.6615 C.3     1  UNL1        0.0334
     10 C          -6.2506  -15.9602   24.1279 C.ar    1  UNL1        0.0050
     11 C          -7.3501  -16.3322   23.1778 C.ar    1  UNL1       -0.0063
     12 C          -8.7758  -16.3337   23.6442 C.ar    1  UNL1       -0.0222
     13 C          -9.1019  -15.9633   25.0606 C.ar    1  UNL1       -0.0063
     14 C          -8.0025  -15.5914   26.0107 C.ar    1  UNL1        0.0050
     15 C          -8.3286  -15.2209   27.4272 C.3     1  UNL1        0.0334
     16 C          -6.5768  -15.5898   25.5443 C.ar    1  UNL1        0.1321
     17 F          -5.4773  -15.2178   26.4945 F       1  UNL1       -0.2048
     18 C         -10.9427  -18.5634   21.2244 C.3     1  UNL1        0.0095
     19 C         -10.3496  -19.6034   20.3209 C.3     1  UNL1        0.0019
     20 C          -9.1873  -19.2557   19.4386 C.3     1  UNL1        0.0171
     21 C          -7.8056  -19.7109   19.8042 C.3     1  UNL1        0.0688
     22 N          -7.0067  -18.9444   20.8161 N.3     1  UNL1       -0.2937
     23 H          -7.6571  -18.6541   21.5462 H       1  UNL1        0.1236
     24 C          -5.8453  -19.5972   21.5054 C.3     1  UNL1        0.0956
     25 C          -4.4425  -19.2357   21.1164 C.ar    1  UNL1       -0.0062
     26 C          -3.3919  -19.0633   22.1731 C.ar    1  UNL1       -0.0006
     27 C          -1.9891  -18.7018   21.7840 C.ar    1  UNL1        0.0294
     28 C          -1.6368  -18.5127   20.3383 C.ar    1  UNL1        0.1401
     29 F          -0.2340  -18.1511   19.9492 F       1  UNL1       -0.2042
     30 C          -2.6874  -18.6850   19.2816 C.ar    1  UNL1        0.0294
     31 C          -4.0902  -19.0466   19.6706 C.ar    1  UNL1       -0.0006
@<TRIPOS>BOND
     1     9    10    1
     2    10    11   ar
     3    11    12   ar
     4    12     8    1
     5     1     8    1
     6     1    18    1
     7    18    19    1
     8    19    20    1
     9    20    21    1
    10    21    22    1
    11    22    24    1
    12    24    25    1
    13    25    26   ar
    14    26    27   ar
    15    27    28   ar
    16    28    29    1
    17    28    30   ar
    18    30    31   ar
    19     1     2    1
    20     2     3    2
    21     2     4   am
    22     4     5    1
    23    12    13   ar
    24    13    14   ar
    25    14    15    1
    26    14    16   ar
    27    16    17    1
    28    16    10   ar
    29    31    25   ar
    30    22    23    1
    31     4     6    1
    32     5     7    1
@<TRIPOS>MOLECULE
*****
 31 32 0 0 0
SMALL
GASTEIGER

@<TRIPOS>ATOM
      1 C         -10.2794  -18.0508   22.4803 C.3     1  UNL1        0.0828
      2 C          -9.8841  -19.1006   23.4761 C.2     1  UNL1        0.2442
      3 O          -8.7353  -20.0190   23.1816 O.2     1  UNL1       -0.2730
      4 N         -10.6377  -19.2321   24.7664 N.am    1  UNL1       -0.1970
      5 O         -10.2424  -20.2819   25.7622 O.3     1  UNL1       -0.2952
      6 H         -11.3917  -18.6294   24.9597 H       1  UNL1        0.1822
      7 H          -9.4875  -20.7852   25.4190 H       1  UNL1        0.2414
      8 C          -9.9049  -16.6171   22.7135 C.3     1  UNL1        0.0355
      9 C          -8.3198  -15.2201   27.4607 C.3     1  UNL1        0.0334
     10 C          -8.0040  -15.5782   26.0387 C.ar    1  UNL1        0.0050
     11 C          -9.1123  -15.9186   25.0871 C.ar    1  UNL1       -0.0063
     12 C          -8.7965  -16.2767   23.6651 C.ar    1  UNL1       -0.0222
     13 C          -7.3723  -16.2943   23.1947 C.ar    1  UNL1       -0.0063
     14 C          -6.2639  -15.9539   24.1464 C.ar    1  UNL1        0.0050
     15 C          -4.8396  -15.9716   23.6760 C.3     1  UNL1        0.0334
     16 C          -6.5798  -15.5959   25.5683 C.ar    1  UNL1        0.1321
     17 F          -5.4713  -15.2554   26.5200 F       1  UNL1       -0.2048
     18 C         -11.0492  -18.4346   21.2515 C.3     1  UNL1        0.0095
     19 C         -10.3728  -18.4356   19.9127 C.3     1  UNL1        0.0019
     20 C          -9.6205  -19.6494   19.4534 C.3     1  UNL1        0.0171
     21 C          -8.1206  -19.6398   19.4354 C.3     1  UNL1        0.0688
     22 N          -7.3629  -18.8742   20.4793 N.3     1  UNL1       -0.2937
     23 H          -8.0524  -18.5162   21.1403 H       1  UNL1        0.1236
     24 C          -6.3017  -19.5587   21.2888 C.3     1  UNL1        0.0956
     25 C          -4.8541  -19.2605   21.0329 C.ar    1  UNL1       -0.0062
     26 C          -4.3670  -19.0572   19.6289 C.ar    1  UNL1       -0.0006
     27 C          -2.9193  -18.7589   19.3731 C.ar    1  UNL1        0.0294
     28 C          -1.9588  -18.6641   20.5213 C.ar    1  UNL1        0.1401
     29 F          -0.5112  -18.3659   20.2655 F       1  UNL1       -0.2042
     30 C          -2.4459  -18.8675   21.9254 C.ar    1  UNL1        0.0294
     31 C          -3.8935  -19.1657   22.1812 C.ar    1  UNL1       -0.0006
@<TRIPOS>BOND
     1     9    10    1
     2    10    11   ar
     3    11    12   ar
     4    12     8    1
     5     1     8    1
     6     1    18    1
     7    18    19    1
     8    19    20    1
     9    20    21    1
    10    21    22    1
    11    22    24    1
    12    24    25    1
    13    25    26   ar
    14    26    27   ar
    15    27    28   ar
    16    28    29    1
    17    28    30   ar
    18    30    31   ar
    19     1     2    1
    20     2     3    2
    21     2     4   am
    22     4     5    1
    23    12    13   ar
    24    13    14   ar
    25    14    15    1
    26    14    16   ar
    27    16    17    1
    28    16    10   ar
    29    31    25   ar
    30    22    23    1
    31     4     6    1
    32     5     7    1
@<TRIPOS>MOLECULE
*****
 31 32 0 0 0
SMALL
GASTEIGER

@<TRIPOS>ATOM
      1 C          -7.6443  -19.6175   21.3238 C.3     1  UNL1        0.0828
      2 C          -8.5497  -19.0066   20.2956 C.2     1  UNL1        0.2442
      3 O          -8.3981  -19.3745   18.8493 O.2     1  UNL1       -0.2730
      4 N          -9.6067  -18.0278   20.7137 N.am    1  UNL1       -0.1970
      5 O         -10.5120  -17.4169   19.6855 O.3     1  UNL1       -0.2952
      6 H          -9.7061  -17.7863   21.6629 H       1  UNL1        0.1822
      7 H         -10.2818  -17.7593   18.8076 H       1  UNL1        0.2414
      8 C          -6.3401  -20.2294   20.9059 C.3     1  UNL1        0.0355
      9 C          -2.1473  -18.1403   18.6572 C.3     1  UNL1        0.0334
     10 C          -2.9757  -18.3898   19.8826 C.ar    1  UNL1        0.0050
     11 C          -4.2437  -19.1848   19.7816 C.ar    1  UNL1       -0.0063
     12 C          -5.0721  -19.4343   21.0069 C.ar    1  UNL1       -0.0222
     13 C          -4.6325  -18.8889   22.3333 C.ar    1  UNL1       -0.0063
     14 C          -3.3646  -18.0939   22.4343 C.ar    1  UNL1        0.0050
     15 C          -2.9250  -17.5483   23.7606 C.3     1  UNL1        0.0334
     16 C          -2.5362  -17.8444   21.2089 C.ar    1  UNL1        0.1321
     17 F          -1.2682  -17.0493   21.3099 F       1  UNL1       -0.2048
     18 C          -8.0431  -19.6164   22.7698 C.3     1  UNL1        0.0095
     19 C          -9.2826  -20.3394   23.2065 C.3     1  UNL1        0.0019
     20 C          -9.9284  -19.9972   24.5164 C.3     1  UNL1        0.0171
     21 C         -10.5872  -18.6624   24.7017 C.3     1  UNL1        0.0688
     22 N         -10.6603  -17.6966   23.5563 N.3     1  UNL1       -0.2937
     23 H         -11.6421  -17.6326   23.2874 H       1  UNL1        0.1236
     24 C         -10.1658  -16.2909   23.7277 C.3     1  UNL1        0.0956
     25 C          -8.8055  -16.0400   24.3080 C.ar    1  UNL1       -0.0062
     26 C          -8.6545  -15.7684   25.7755 C.ar    1  UNL1       -0.0006
     27 C          -7.2942  -15.5174   26.3557 C.ar    1  UNL1        0.0294
     28 C          -6.0849  -15.5380   25.4684 C.ar    1  UNL1        0.1401
     29 F          -4.7247  -15.2870   26.0487 F       1  UNL1       -0.2042
     30 C          -6.2359  -15.8095   24.0010 C.ar    1  UNL1        0.0294
     31 C          -7.5962  -16.0605   23.4207 C.ar    1  UNL1       -0.0006
@<TRIPOS>BOND
     1     9    10    1
     2    10    11   ar
     3    11    12   ar
     4    12     8    1
     5     1     8    1
     6     1    18    1
     7    18    19    1
     8    19    20    1
     9    20    21    1
    10    21    22    1
    11    22    24    1
    12    24    25    1
    13    25    26   ar
    14    26    27   ar
    15    27    28   ar
    16    28    29    1
    17    28    30   ar
    18    30    31   ar
    19     1     2    1
    20     2     3    2
    21     2     4   am
    22     4     5    1
    23    12    13   ar
    24    13    14   ar
    25    14    15    1
    26    14    16   ar
    27    16    17    1
    28    16    10   ar
    29    31    25   ar
    30    22    23    1
    31     4     6    1
    32     5     7    1
@<TRIPOS>MOLECULE
*****
 31 32 0 0 0
SMALL
GASTEIGER

@<TRIPOS>ATOM
      1 C          -7.5932  -19.7580   20.5156 C.3     1  UNL1        0.0828
      2 C          -8.5090  -19.8190   19.3291 C.2     1  UNL1        0.2442
      3 O          -9.4783  -18.7036   19.0717 O.2     1  UNL1       -0.2730
      4 N          -8.4554  -20.9954   18.4000 N.am    1  UNL1       -0.1970
      5 O          -9.3712  -21.0564   17.2136 O.3     1  UNL1       -0.2952
      6 H          -7.8192  -21.7275   18.5689 H       1  UNL1        0.1822
      7 H          -9.9286  -20.2628   17.1943 H       1  UNL1        0.2414
      8 C          -6.2181  -20.3514   20.4328 C.3     1  UNL1        0.0355
      9 C          -3.2892  -17.6735   23.7871 C.3     1  UNL1        0.0334
     10 C          -3.5513  -18.1614   22.3931 C.ar    1  UNL1        0.0050
     11 C          -4.7536  -19.0124   22.1100 C.ar    1  UNL1       -0.0063
     12 C          -5.0157  -19.5002   20.7159 C.ar    1  UNL1       -0.0222
     13 C          -4.0756  -19.1370   19.6050 C.ar    1  UNL1       -0.0063
     14 C          -2.8733  -18.2859   19.8882 C.ar    1  UNL1        0.0050
     15 C          -1.9331  -17.9226   18.7772 C.3     1  UNL1        0.0334
     16 C          -2.6112  -17.7981   21.2822 C.ar    1  UNL1        0.1321
     17 F          -1.4089  -16.9470   21.5653 F       1  UNL1       -0.2048
     18 C          -8.0526  -19.1037   21.7848 C.3     1  UNL1        0.0095
     19 C          -8.2687  -19.9291   23.0185 C.3     1  UNL1        0.0019
     20 C          -9.6616  -20.2707   23.4579 C.3     1  UNL1        0.0171
     21 C         -10.1030  -19.9628   24.8581 C.3     1  UNL1        0.0688
     22 N         -11.0336  -18.8150   25.1159 N.3     1  UNL1       -0.2937
     23 H         -10.4550  -17.9787   25.1939 H       1  UNL1        0.1236
     24 C         -12.1231  -18.4979   24.1348 C.3     1  UNL1        0.0956
     25 C         -11.8227  -17.6659   22.9235 C.ar    1  UNL1       -0.0062
     26 C         -10.5764  -16.8324   22.8762 C.ar    1  UNL1       -0.0006
     27 C         -10.2760  -16.0004   21.6648 C.ar    1  UNL1        0.0294
     28 C         -11.2219  -16.0018   20.5006 C.ar    1  UNL1        0.1401
     29 F         -10.9215  -15.1698   19.2893 F       1  UNL1       -0.2042
     30 C         -12.4681  -16.8352   20.5478 C.ar    1  UNL1        0.0294
     31 C         -12.7686  -17.6672   21.7592 C.ar    1  UNL1       -0.0006
@<TRIPOS>BOND
     1     9    10    1
     2    10    11   ar
     3    11    12   ar
     4    12     8    1
     5     1     8    1
     6     1    18    1
     7    18    19    1
     8    19    20    1
     9    20    21    1
    10    21    22    1
    11    22    24    1
    12    24    25    1
    13    25    26   ar
    14    26    27   ar
    15    27    28   ar
    16    28    29    1
    17    28    30   ar
    18    30    31   ar
    19     1     2    1
    20     2     3    2
    21     2     4   am
    22     4     5    1
    23    12    13   ar
    24    13    14   ar
    25    14    15    1
    26    14    16   ar
    27    16    17    1
    28    16    10   ar
    29    31    25   ar
    30    22    23    1
    31     4     6    1
    32     5     7    1
@<TRIPOS>MOLECULE
*****
 31 32 0 0 0
SMALL
GASTEIGER

@<TRIPOS>ATOM
      1 C          -7.5801  -19.8018   20.4045 C.3     1  UNL1        0.0828
      2 C          -8.5055  -19.8957   19.2277 C.2     1  UNL1        0.2442
      3 O          -9.5341  -18.8290   18.9955 O.2     1  UNL1       -0.2730
      4 N          -8.4021  -21.0562   18.2830 N.am    1  UNL1       -0.1970
      5 O          -9.3274  -21.1501   17.1062 O.3     1  UNL1       -0.2952
      6 H          -7.7269  -21.7563   18.4354 H       1  UNL1        0.1822
      7 H          -9.9254  -20.3863   17.1033 H       1  UNL1        0.2414
      8 C          -6.1969  -20.3759   20.3186 C.3     1  UNL1        0.0355
      9 C          -3.3508  -17.7331   23.7704 C.3     1  UNL1        0.0334
     10 C          -3.5849  -18.1974   22.3634 C.ar    1  UNL1        0.0050
     11 C          -4.7738  -19.0545   22.0445 C.ar    1  UNL1       -0.0063
     12 C          -5.0080  -19.5187   20.6375 C.ar    1  UNL1       -0.0222
     13 C          -4.0532  -19.1258   19.5494 C.ar    1  UNL1       -0.0063
     14 C          -2.8643  -18.2687   19.8683 C.ar    1  UNL1        0.0050
     15 C          -1.9094  -17.8757   18.7802 C.3     1  UNL1        0.0334
     16 C          -2.6301  -17.8045   21.2753 C.ar    1  UNL1        0.1321
     17 F          -1.4412  -16.9473   21.5942 F       1  UNL1       -0.2048
     18 C          -8.0378  -19.1339   21.6672 C.3     1  UNL1        0.0095
     19 C          -8.2542  -19.9463   22.9094 C.3     1  UNL1        0.0019
     20 C          -9.6379  -20.1152   23.4635 C.3     1  UNL1        0.0171
     21 C         -10.0612  -19.3371   24.6740 C.3     1  UNL1        0.0688
     22 N         -10.7742  -18.0274   24.5122 N.3     1  UNL1       -0.2937
     23 H         -11.0270  -17.7120   25.4487 H       1  UNL1        0.1236
     24 C         -10.0860  -16.8770   23.8390 C.3     1  UNL1        0.0956
     25 C          -8.7821  -16.3651   24.3754 C.ar    1  UNL1       -0.0062
     26 C          -8.6151  -16.1364   25.8485 C.ar    1  UNL1       -0.0006
     27 C          -7.3111  -15.6245   26.3849 C.ar    1  UNL1        0.0294
     28 C          -6.1742  -15.3414   25.4482 C.ar    1  UNL1        0.1401
     29 F          -4.8703  -14.8295   25.9847 F       1  UNL1       -0.2042
     30 C          -6.3412  -15.5701   23.9752 C.ar    1  UNL1        0.0294
     31 C          -7.6451  -16.0819   23.4388 C.ar    1  UNL1       -0.0006
@<TRIPOS>BOND
     1     9    10    1
     2    10    11   ar
     3    11    12   ar
     4    12     8    1
     5     1     8    1
     6     1    18    1
     7    18    19    1
     8    19    20    1
     9    20    21    1
    10    21    22    1
    11    22    24    1
    12    24    25    1
    13    25    26   ar
    14    26    27   ar
    15    27    28   ar
    16    28    29    1
    17    28    30   ar
    18    30    31   ar
    19     1     2    1
    20     2     3    2
    21     2     4   am
    22     4     5    1
    23    12    13   ar
    24    13    14   ar
    25    14    15    1
    26    14    16   ar
    27    16    17    1
    28    16    10   ar
    29    31    25   ar
    30    22    23    1
    31     4     6    1
    32     5     7    1
@<TRIPOS>MOLECULE
*****
 31 32 0 0 0
SMALL
GASTEIGER

@<TRIPOS>ATOM
      1 C          -9.2789  -19.2710   21.7483 C.3     1  UNL1        0.0828
      2 C          -9.1769  -19.9101   23.1016 C.2     1  UNL1        0.2442
      3 O          -8.0806  -20.8935   23.3859 O.2     1  UNL1       -0.2730
      4 N         -10.1712  -19.5655   24.1705 N.am    1  UNL1       -0.1970
      5 O         -10.0693  -20.2045   25.5238 O.3     1  UNL1       -0.2952
      6 H         -10.8908  -18.9200   23.9839 H       1  UNL1        0.1822
      7 H          -9.3114  -20.8097   25.5393 H       1  UNL1        0.2414
      8 C          -8.2026  -18.3391   21.2759 C.3     1  UNL1        0.0355
      9 C          -3.6947  -17.9096   23.8243 C.3     1  UNL1        0.0334
     10 C          -4.5059  -18.5022   22.7104 C.ar    1  UNL1        0.0050
     11 C          -5.9486  -18.1244   22.5501 C.ar    1  UNL1       -0.0063
     12 C          -6.7598  -18.7170   21.4362 C.ar    1  UNL1       -0.0222
     13 C          -6.1283  -19.6874   20.4826 C.ar    1  UNL1       -0.0063
     14 C          -4.6855  -20.0652   20.6429 C.ar    1  UNL1        0.0050
     15 C          -4.0539  -21.0356   19.6892 C.3     1  UNL1        0.0334
     16 C          -3.8744  -19.4726   21.7568 C.ar    1  UNL1        0.1321
     17 F          -2.4315  -19.8504   21.9170 F       1  UNL1       -0.2048
     18 C         -10.4571  -19.5640   20.8674 C.3     1  UNL1        0.0095
     19 C         -11.4205  -18.4696   20.5150 C.3     1  UNL1        0.0019
     20 C         -12.5404  -18.1258   21.4518 C.3     1  UNL1        0.0171
     21 C         -12.4200  -16.9388   22.3610 C.3     1  UNL1        0.0688
     22 N         -11.2483  -16.8215   23.2901 N.3     1  UNL1       -0.2937
     23 H         -10.9341  -17.7713   23.4891 H       1  UNL1        0.1236
     24 C         -10.0358  -16.0428   22.8736 C.3     1  UNL1        0.0956
     25 C          -8.8936  -15.8653   23.8295 C.ar    1  UNL1       -0.0062
     26 C          -7.6103  -15.2478   23.3583 C.ar    1  UNL1       -0.0006
     27 C          -6.4681  -15.0702   24.3143 C.ar    1  UNL1        0.0294
     28 C          -6.6091  -15.5103   25.7413 C.ar    1  UNL1        0.1401
     29 F          -5.4669  -15.3327   26.6973 F       1  UNL1       -0.2042
     30 C          -7.8923  -16.1278   26.2125 C.ar    1  UNL1        0.0294
     31 C          -9.0346  -16.3053   25.2566 C.ar    1  UNL1       -0.0006
@<TRIPOS>BOND
     1     9    10    1
     2    10    11   ar
     3    11    12   ar
     4    12     8    1
     5     1     8    1
     6     1    18    1
     7    18    19    1
     8    19    20    1
     9    20    21    1
    10    21    22    1
    11    22    24    1
    12    24    25    1
    13    25    26   ar
    14    26    27   ar
    15    27    28   ar
    16    28    29    1
    17    28    30   ar
    18    30    31   ar
    19     1     2    1
    20     2     3    2
    21     2     4   am
    22     4     5    1
    23    12    13   ar
    24    13    14   ar
    25    14    15    1
    26    14    16   ar
    27    16    17    1
    28    16    10   ar
    29    31    25   ar
    30    22    23    1
    31     4     6    1
    32     5     7    1
@<TRIPOS>MOLECULE
*****
 31 32 0 0 0
SMALL
GASTEIGER

@<TRIPOS>ATOM
      1 C          -7.5843  -19.8475   20.4190 C.3     1  UNL1        0.0828
      2 C          -8.4917  -19.9083   19.2261 C.2     1  UNL1        0.2442
      3 O          -9.4830  -18.8095   18.9810 O.2     1  UNL1       -0.2730
      4 N          -8.4078  -21.0679   18.2783 N.am    1  UNL1       -0.1970
      5 O          -9.3152  -21.1288   17.0855 O.3     1  UNL1       -0.2952
      6 H          -7.7572  -21.7891   18.4392 H       1  UNL1        0.1822
      7 H          -9.8893  -20.3469   17.0757 H       1  UNL1        0.2414
      8 C          -6.2033  -20.4278   20.3411 C.3     1  UNL1        0.0355
      9 C          -1.9737  -17.8969   18.6962 C.3     1  UNL1        0.0334
     10 C          -2.8954  -18.3007   19.8086 C.ar    1  UNL1        0.0050
     11 C          -4.0885  -19.1623   19.5187 C.ar    1  UNL1       -0.0063
     12 C          -5.0102  -19.5661   20.6311 C.ar    1  UNL1       -0.0222
     13 C          -4.7388  -19.1082   22.0334 C.ar    1  UNL1       -0.0063
     14 C          -3.5458  -18.2465   22.3234 C.ar    1  UNL1        0.0050
     15 C          -3.2744  -17.7885   23.7258 C.3     1  UNL1        0.0334
     16 C          -2.6241  -17.8427   21.2110 C.ar    1  UNL1        0.1321
     17 F          -1.4310  -16.9810   21.5009 F       1  UNL1       -0.2048
     18 C          -8.0578  -19.2064   21.6896 C.3     1  UNL1        0.0095
     19 C          -8.0741  -19.9938   22.9662 C.3     1  UNL1        0.0019
     20 C          -9.3708  -20.5206   23.5060 C.3     1  UNL1        0.0171
     21 C          -9.8948  -20.0206   24.8195 C.3     1  UNL1        0.0688
     22 N         -11.3352  -19.6232   24.9501 N.3     1  UNL1       -0.2937
     23 H         -11.5246  -19.5261   25.9476 H       1  UNL1        0.1236
     24 C         -11.8301  -18.3697   24.2913 C.3     1  UNL1        0.0956
     25 C         -10.8680  -17.4684   23.5759 C.ar    1  UNL1       -0.0062
     26 C          -9.6837  -16.9059   24.3047 C.ar    1  UNL1       -0.0006
     27 C          -8.7216  -16.0045   23.5892 C.ar    1  UNL1        0.0294
     28 C          -8.9438  -15.6656   22.1450 C.ar    1  UNL1        0.1401
     29 F          -7.9817  -14.7642   21.4296 F       1  UNL1       -0.2042
     30 C         -10.1281  -16.2280   21.4163 C.ar    1  UNL1        0.0294
     31 C         -11.0902  -17.1294   22.1317 C.ar    1  UNL1       -0.0006
@<TRIPOS>BOND
     1     9    10    1
     2    10    11   ar
     3    11    12   ar
     4    12     8    1
     5     1     8    1
     6     1    18    1
     7    18    19    1
     8    19    20    1
     9    20    21    1
    10    21    22    1
    11    22    24    1
    12    24    25    1
    13    25    26   ar
    14    26    27   ar
    15    27    28   ar
    16    28    29    1
    17    28    30   ar
    18    30    31   ar
    19     1     2    1
    20     2     3    2
    21     2     4   am
    22     4     5    1
    23    12    13   ar
    24    13    14   ar
    25    14    15    1
    26    14    16   ar
    27    16    17    1
    28    16    10   ar
    29    31    25   ar
    30    22    23    1
    31     4     6    1
    32     5     7    1
@<TRIPOS>MOLECULE
*****
 31 32 0 0 0
SMALL
GASTEIGER

@<TRIPOS>ATOM
      1 C         -12.8758   -6.7191   18.6805 C.3     1  UNL1        0.0828
      2 C         -11.8994   -7.5800   17.9352 C.2     1  UNL1        0.2442
      3 O         -12.2115   -8.0326   16.5396 O.2     1  UNL1       -0.2730
      4 N         -10.6108   -7.9883   18.5855 N.am    1  UNL1       -0.1970
      5 O          -9.6344   -8.8492   17.8403 O.3     1  UNL1       -0.2952
      6 H         -10.4060   -7.6912   19.5015 H       1  UNL1        0.1822
      7 H          -9.9874   -9.0504   16.9594 H       1  UNL1        0.2414
      8 C         -12.3893   -5.5276   19.4509 C.3     1  UNL1        0.0355
      9 C         -12.3916   -0.4320   18.4333 C.3     1  UNL1        0.0334
     10 C         -11.8163   -1.8000   18.2152 C.ar    1  UNL1        0.0050
     11 C         -12.3904   -2.9798   18.9421 C.ar    1  UNL1       -0.0063
     12 C         -11.8151   -4.3478   18.7239 C.ar    1  UNL1       -0.0222
     13 C         -10.6657   -4.5360   17.7788 C.ar    1  UNL1       -0.0063
     14 C         -10.0915   -3.3562   17.0519 C.ar    1  UNL1        0.0050
     15 C          -8.9420   -3.5444   16.1067 C.3     1  UNL1        0.0334
     16 C         -10.6669   -1.9882   17.2700 C.ar    1  UNL1        0.1321
     17 F         -10.0927   -0.8084   16.5431 F       1  UNL1       -0.2048
     18 C         -14.3387   -7.0497   18.6553 C.3     1  UNL1        0.0095
     19 C         -15.2554   -6.3248   17.7150 C.3     1  UNL1        0.0019
     20 C         -15.8035   -4.9797   18.0899 C.3     1  UNL1        0.0171
     21 C         -16.6327   -4.8270   19.3305 C.3     1  UNL1        0.0688
     22 N         -18.1297   -4.8189   19.2358 N.3     1  UNL1       -0.2937
     23 H         -18.3627   -4.5526   18.2792 H       1  UNL1        0.1236
     24 C         -18.9072   -6.0650   19.5400 C.3     1  UNL1        0.0956
     25 C         -18.3253   -7.4095   19.2181 C.ar    1  UNL1       -0.0062
     26 C         -17.5465   -8.1583   20.2587 C.ar    1  UNL1       -0.0006
     27 C         -16.9646   -9.5029   19.9368 C.ar    1  UNL1        0.0294
     28 C         -17.1613  -10.0985   18.5743 C.ar    1  UNL1        0.1401
     29 F         -16.5794  -11.4430   18.2524 F       1  UNL1       -0.2042
     30 C         -17.9400   -9.3497   17.5337 C.ar    1  UNL1        0.0294
     31 C         -18.5220   -8.0052   17.8556 C.ar    1  UNL1       -0.0006
@<TRIPOS>BOND
     1     9    10    1
     2    10    11   ar
     3    11    12   ar
     4    12     8    1
     5     1     8    1
     6     1    18    1
     7    18    19    1
     8    19    20    1
     9    20    21    1
    10    21    22    1
    11    22    24    1
    12    24    25    1
    13    25    26   ar
    14    26    27   ar
    15    27    28   ar
    16    28    29    1
    17    28    30   ar
    18    30    31   ar
    19     1     2    1
    20     2     3    2
    21     2     4   am
    22     4     5    1
    23    12    13   ar
    24    13    14   ar
    25    14    15    1
    26    14    16   ar
    27    16    17    1
    28    16    10   ar
    29    31    25   ar
    30    22    23    1
    31     4     6    1
    32     5     7    1
@<TRIPOS>MOLECULE
*****
 31 32 0 0 0
SMALL
GASTEIGER

@<TRIPOS>ATOM
      1 C          -7.7378  -19.5405   20.4542 C.3     1  UNL1        0.0828
      2 C          -7.3431  -18.5137   21.4741 C.2     1  UNL1        0.2442
      3 O          -6.5026  -18.9103   22.6514 O.2     1  UNL1       -0.2730
      4 N          -7.7891  -17.0902   21.3165 N.am    1  UNL1       -0.1970
      5 O          -7.3945  -16.0634   22.3362 O.3     1  UNL1       -0.2952
      6 H          -8.3407  -16.8299   20.5437 H       1  UNL1        0.1822
      7 H          -6.8566  -16.4827   23.0259 H       1  UNL1        0.2414
      8 C          -9.1871  -19.8529   20.2265 C.3     1  UNL1        0.0355
      9 C         -12.7295  -16.0516   20.1850 C.3     1  UNL1        0.0334
     10 C         -12.0168  -17.1553   20.9089 C.ar    1  UNL1        0.0050
     11 C         -10.9583  -17.9523   20.2058 C.ar    1  UNL1       -0.0063
     12 C         -10.2456  -19.0559   20.9297 C.ar    1  UNL1       -0.0222
     13 C         -10.5913  -19.3625   22.3567 C.ar    1  UNL1       -0.0063
     14 C         -11.6498  -18.5656   23.0598 C.ar    1  UNL1        0.0050
     15 C         -11.9956  -18.8722   24.4869 C.3     1  UNL1        0.0334
     16 C         -12.3625  -17.4619   22.3359 C.ar    1  UNL1        0.1321
     17 F         -13.4210  -16.6649   23.0391 F       1  UNL1       -0.2048
     18 C          -6.6831  -20.2550   19.6623 C.3     1  UNL1        0.0095
     19 C          -5.4837  -20.8287   20.3567 C.3     1  UNL1        0.0019
     20 C          -4.1145  -20.2981   20.0503 C.3     1  UNL1        0.0171
     21 C          -3.6853  -18.9692   20.5980 C.3     1  UNL1        0.0688
     22 N          -3.6259  -18.7531   22.0811 N.3     1  UNL1       -0.2937
     23 H          -2.9533  -19.4254   22.4499 H       1  UNL1        0.1236
     24 C          -3.2411  -17.4107   22.6286 C.3     1  UNL1        0.0956
     25 C          -3.9798  -16.8397   23.8025 C.ar    1  UNL1       -0.0062
     26 C          -4.7802  -15.5809   23.6449 C.ar    1  UNL1       -0.0006
     27 C          -5.5189  -15.0099   24.8189 C.ar    1  UNL1        0.0294
     28 C          -5.4572  -15.6976   26.1505 C.ar    1  UNL1        0.1401
     29 F          -6.1959  -15.1266   27.3245 F       1  UNL1       -0.2042
     30 C          -4.6567  -16.9563   26.3082 C.ar    1  UNL1        0.0294
     31 C          -3.9180  -17.5274   25.1342 C.ar    1  UNL1       -0.0006
@<TRIPOS>BOND
     1     9    10    1
     2    10    11   ar
     3    11    12   ar
     4    12     8    1
     5     1     8    1
     6     1    18    1
     7    18    19    1
     8    19    20    1
     9    20    21    1
    10    21    22    1
    11    22    24    1
    12    24    25    1
    13    25    26   ar
    14    26    27   ar
    15    27    28   ar
    16    28    29    1
    17    28    30   ar
    18    30    31   ar
    19     1     2    1
    20     2     3    2
    21     2     4   am
    22     4     5    1
    23    12    13   ar
    24    13    14   ar
    25    14    15    1
    26    14    16   ar
    27    16    17    1
    28    16    10   ar
    29    31    25   ar
    30    22    23    1
    31     4     6    1
    32     5     7    1
