@<TRIPOS>MOLECULE
*****
 19 22 0 0 0
SMALL
GASTEIGER

@<TRIPOS>ATOM
      1 C          -9.3936  -16.7559   22.8121 C.ar    1  UNL1       -0.0215
      2 C          -8.2568  -15.9194   22.3039 C.ar    1  UNL1       -0.0042
      3 C          -7.2518  -15.3566   23.2647 C.ar    1  UNL1       -0.0003
      4 C          -7.3834  -15.6303   24.7337 C.ar    1  UNL1       -0.0000
      5 C          -6.3784  -15.0675   25.6944 C.ar    1  UNL1       -0.0000
      6 C          -6.5101  -15.3412   27.1633 C.ar    1  UNL1       -0.0000
      7 C          -7.6468  -16.1776   27.6715 C.ar    1  UNL1       -0.0000
      8 C          -8.6518  -16.7404   26.7107 C.ar    1  UNL1       -0.0000
      9 C          -8.5201  -16.4668   25.2418 C.ar    1  UNL1       -0.0003
     10 C          -9.5252  -17.0296   24.2810 C.ar    1  UNL1       -0.0042
     11 C          -8.1409  -19.5693   19.6369 C.3     1  UNL1        0.0896
     12 N          -9.2282  -18.7936   20.3199 N.3     1  UNL1       -0.2712
     13 C         -10.6803  -18.7930   19.9440 C.3     1  UNL1        0.0725
     14 C         -11.4037  -17.8814   20.8905 C.3     1  UNL1        0.0210
     15 C         -12.7482  -17.3177   21.2431 C.3     1  UNL1        0.0018
     16 C         -12.5741  -16.4065   22.4218 C.3     1  UNL1        0.0004
     17 C         -11.1220  -16.4071   22.7977 C.3     1  UNL1        0.0054
     18 C         -10.3986  -17.3187   21.8512 C.3     1  UNL1        0.0349
     19 C          -9.0541  -17.8824   21.4987 C.3     1  UNL1        0.0762
@<TRIPOS>BOND
     1    11    12    1
     2    12    13    1
     3    14    13    1
     4    14    15    1
     5    15    16    1
     6    16    17    1
     7    17    18    1
     8    18     1    1
     9     1     2   ar
    10     2     3   ar
    11     3     4   ar
    12     4     5   ar
    13     5     6   ar
    14     6     7   ar
    15     7     8   ar
    16     8     9   ar
    17     9    10   ar
    18    18    19    1
    19    19    12    1
    20    18    14    1
    21    10     1   ar
    22     9     4   ar
@<TRIPOS>MOLECULE
*****
 19 22 0 0 0
SMALL
GASTEIGER

@<TRIPOS>ATOM
      1 C          -9.3089  -17.1336   22.9882 C.ar    1  UNL1       -0.0215
      2 C          -8.8426  -15.9701   23.8121 C.ar    1  UNL1       -0.0042
      3 C          -7.3783  -15.7728   24.0701 C.ar    1  UNL1       -0.0003
      4 C          -6.3801  -16.7390   23.5043 C.ar    1  UNL1       -0.0000
      5 C          -4.9157  -16.5417   23.7624 C.ar    1  UNL1       -0.0000
      6 C          -3.9176  -17.5079   23.1966 C.ar    1  UNL1       -0.0000
      7 C          -4.3839  -18.6714   22.3727 C.ar    1  UNL1       -0.0000
      8 C          -5.8482  -18.8687   22.1146 C.ar    1  UNL1       -0.0000
      9 C          -6.8463  -17.9025   22.6804 C.ar    1  UNL1       -0.0003
     10 C          -8.3108  -18.0998   22.4224 C.ar    1  UNL1       -0.0042
     11 C         -11.1914  -15.4927   19.3373 C.3     1  UNL1        0.0896
     12 N         -11.3151  -16.2556   20.6229 N.3     1  UNL1       -0.2712
     13 C         -12.5726  -16.8637   21.1697 C.3     1  UNL1        0.0725
     14 C         -12.2377  -17.5283   22.4721 C.3     1  UNL1        0.0210
     15 C         -12.8079  -18.3148   23.6150 C.3     1  UNL1        0.0018
     16 C         -11.6959  -18.6036   24.5794 C.3     1  UNL1        0.0004
     17 C         -10.4384  -17.9956   24.0325 C.3     1  UNL1        0.0054
     18 C         -10.7733  -17.3310   22.7301 C.3     1  UNL1        0.0349
     19 C         -10.2031  -16.5444   21.5873 C.3     1  UNL1        0.0762
@<TRIPOS>BOND
     1    11    12    1
     2    12    13    1
     3    14    13    1
     4    14    15    1
     5    15    16    1
     6    16    17    1
     7    17    18    1
     8    18     1    1
     9     1     2   ar
    10     2     3   ar
    11     3     4   ar
    12     4     5   ar
    13     5     6   ar
    14     6     7   ar
    15     7     8   ar
    16     8     9   ar
    17     9    10   ar
    18    18    19    1
    19    19    12    1
    20    18    14    1
    21    10     1   ar
    22     9     4   ar
@<TRIPOS>MOLECULE
*****
 19 22 0 0 0
SMALL
GASTEIGER

@<TRIPOS>ATOM
      1 C          -7.6977  -18.9503   22.1772 C.ar    1  UNL1       -0.0215
      2 C          -8.3905  -20.0530   22.9216 C.ar    1  UNL1       -0.0042
      3 C          -9.8397  -19.9181   23.2839 C.ar    1  UNL1       -0.0003
      4 C         -10.5964  -18.6805   22.9019 C.ar    1  UNL1       -0.0000
      5 C         -12.0456  -18.5456   23.2642 C.ar    1  UNL1       -0.0000
      6 C         -12.8022  -17.3081   22.8822 C.ar    1  UNL1       -0.0000
      7 C         -12.1094  -16.2053   22.1378 C.ar    1  UNL1       -0.0000
      8 C         -10.6601  -16.3402   21.7755 C.ar    1  UNL1       -0.0000
      9 C          -9.9036  -17.5778   22.1575 C.ar    1  UNL1       -0.0003
     10 C          -8.4542  -17.7127   21.7952 C.ar    1  UNL1       -0.0042
     11 C          -4.6788  -16.2306   23.9252 C.3     1  UNL1        0.0896
     12 N          -5.0116  -17.3816   23.0226 N.3     1  UNL1       -0.2712
     13 C          -4.0347  -18.1673   22.1989 C.3     1  UNL1        0.0725
     14 C          -4.7991  -19.2201   21.4525 C.3     1  UNL1        0.0210
     15 C          -4.6678  -20.3564   20.4822 C.3     1  UNL1        0.0018
     16 C          -6.0359  -20.9238   20.2448 C.3     1  UNL1        0.0004
     17 C          -7.0128  -20.1381   21.0685 C.3     1  UNL1        0.0054
     18 C          -6.2483  -19.0852   21.8149 C.3     1  UNL1        0.0349
     19 C          -6.3797  -17.9489   22.7852 C.3     1  UNL1        0.0762
@<TRIPOS>BOND
     1    11    12    1
     2    12    13    1
     3    14    13    1
     4    14    15    1
     5    15    16    1
     6    16    17    1
     7    17    18    1
     8    18     1    1
     9     1     2   ar
    10     2     3   ar
    11     3     4   ar
    12     4     5   ar
    13     5     6   ar
    14     6     7   ar
    15     7     8   ar
    16     8     9   ar
    17     9    10   ar
    18    18    19    1
    19    19    12    1
    20    18    14    1
    21    10     1   ar
    22     9     4   ar
@<TRIPOS>MOLECULE
*****
 19 22 0 0 0
SMALL
GASTEIGER

@<TRIPOS>ATOM
      1 C          -8.7496  -18.8226   21.8476 C.ar    1  UNL1       -0.0215
      2 C          -8.7041  -19.4700   20.4953 C.ar    1  UNL1       -0.0042
      3 C          -7.3834  -19.8044   19.8679 C.ar    1  UNL1       -0.0003
      4 C          -6.1079  -19.4914   20.5927 C.ar    1  UNL1       -0.0000
      5 C          -4.7872  -19.8257   19.9653 C.ar    1  UNL1       -0.0000
      6 C          -3.5119  -19.5127   20.6902 C.ar    1  UNL1       -0.0000
      7 C          -3.5573  -18.8653   22.0425 C.ar    1  UNL1       -0.0000
      8 C          -4.8780  -18.5309   22.6699 C.ar    1  UNL1       -0.0000
      9 C          -6.1534  -18.8439   21.9451 C.ar    1  UNL1       -0.0003
     10 C          -7.4742  -18.5096   22.5725 C.ar    1  UNL1       -0.0042
     11 C         -11.5065  -15.9642   19.8998 C.3     1  UNL1        0.0896
     12 N         -11.2010  -16.8925   21.0378 N.3     1  UNL1       -0.2712
     13 C         -12.0899  -17.1677   22.2142 C.3     1  UNL1        0.0725
     14 C         -11.3912  -18.1539   23.1025 C.3     1  UNL1        0.0210
     15 C         -11.5087  -18.9335   24.3786 C.3     1  UNL1        0.0018
     16 C         -10.2605  -19.7497   24.5399 C.3     1  UNL1        0.0004
     17 C          -9.3716  -19.4745   23.3634 C.3     1  UNL1        0.0054
     18 C         -10.0704  -18.4882   22.4751 C.3     1  UNL1        0.0349
     19 C          -9.9528  -17.7087   21.1990 C.3     1  UNL1        0.0762
@<TRIPOS>BOND
     1    11    12    1
     2    12    13    1
     3    14    13    1
     4    14    15    1
     5    15    16    1
     6    16    17    1
     7    17    18    1
     8    18     1    1
     9     1     2   ar
    10     2     3   ar
    11     3     4   ar
    12     4     5   ar
    13     5     6   ar
    14     6     7   ar
    15     7     8   ar
    16     8     9   ar
    17     9    10   ar
    18    18    19    1
    19    19    12    1
    20    18    14    1
    21    10     1   ar
    22     9     4   ar
@<TRIPOS>MOLECULE
*****
 19 22 0 0 0
SMALL
GASTEIGER

@<TRIPOS>ATOM
      1 C          -9.0127  -17.3968   23.0833 C.ar    1  UNL1       -0.0215
      2 C          -7.6850  -17.0305   22.4891 C.ar    1  UNL1       -0.0042
      3 C          -6.6638  -16.3122   23.3204 C.ar    1  UNL1       -0.0003
      4 C          -6.9701  -15.9603   24.7460 C.ar    1  UNL1       -0.0000
      5 C          -5.9489  -15.2421   25.5774 C.ar    1  UNL1       -0.0000
      6 C          -6.2553  -14.8902   27.0029 C.ar    1  UNL1       -0.0000
      7 C          -7.5829  -15.2565   27.5971 C.ar    1  UNL1       -0.0000
      8 C          -8.6042  -15.9747   26.7658 C.ar    1  UNL1       -0.0000
      9 C          -8.2978  -16.3266   25.3403 C.ar    1  UNL1       -0.0003
     10 C          -9.3191  -17.0449   24.5089 C.ar    1  UNL1       -0.0042
     11 C         -10.9197  -15.3906   19.6331 C.3     1  UNL1        0.0896
     12 N         -10.7720  -16.6052   20.5009 N.3     1  UNL1       -0.2712
     13 C         -11.5113  -17.9002   20.3384 C.3     1  UNL1        0.0725
     14 C         -11.0552  -18.8333   21.4206 C.3     1  UNL1        0.0210
     15 C         -11.2302  -20.2103   21.9891 C.3     1  UNL1        0.0018
     16 C         -10.3172  -20.3431   23.1717 C.3     1  UNL1        0.0004
     17 C          -9.5778  -19.0482   23.3342 C.3     1  UNL1        0.0054
     18 C         -10.0340  -18.1150   22.2519 C.3     1  UNL1        0.0349
     19 C          -9.8589  -16.7380   21.6836 C.3     1  UNL1        0.0762
@<TRIPOS>BOND
     1    11    12    1
     2    12    13    1
     3    14    13    1
     4    14    15    1
     5    15    16    1
     6    16    17    1
     7    17    18    1
     8    18     1    1
     9     1     2   ar
    10     2     3   ar
    11     3     4   ar
    12     4     5   ar
    13     5     6   ar
    14     6     7   ar
    15     7     8   ar
    16     8     9   ar
    17     9    10   ar
    18    18    19    1
    19    19    12    1
    20    18    14    1
    21    10     1   ar
    22     9     4   ar
@<TRIPOS>MOLECULE
*****
 19 22 0 0 0
SMALL
GASTEIGER

@<TRIPOS>ATOM
      1 C          -9.6817  -17.1849   23.2654 C.ar    1  UNL1       -0.0215
      2 C         -10.2241  -17.8325   24.5049 C.ar    1  UNL1       -0.0042
      3 C          -9.5695  -17.5803   25.8307 C.ar    1  UNL1       -0.0003
      4 C          -8.3724  -16.6805   25.9170 C.ar    1  UNL1       -0.0000
      5 C          -7.7178  -16.4283   27.2428 C.ar    1  UNL1       -0.0000
      6 C          -6.5208  -15.5285   27.3291 C.ar    1  UNL1       -0.0000
      7 C          -5.9784  -14.8809   26.0896 C.ar    1  UNL1       -0.0000
      8 C          -6.6330  -15.1331   24.7638 C.ar    1  UNL1       -0.0000
      9 C          -7.8300  -16.0329   24.6775 C.ar    1  UNL1       -0.0003
     10 C          -8.4847  -16.2852   23.3516 C.ar    1  UNL1       -0.0042
     11 C          -7.6216  -19.5604   20.1543 C.3     1  UNL1        0.0896
     12 N          -8.8199  -18.7738   20.5964 N.3     1  UNL1       -0.2712
     13 C         -10.0539  -18.5154   19.7836 C.3     1  UNL1        0.0725
     14 C         -10.9911  -17.6894   20.6137 C.3     1  UNL1        0.0210
     15 C         -12.3330  -17.0192   20.6245 C.3     1  UNL1        0.0018
     16 C         -12.5077  -16.3527   21.9569 C.3     1  UNL1        0.0004
     17 C         -11.2737  -16.6111   22.7697 C.3     1  UNL1        0.0054
     18 C         -10.3364  -17.4372   21.9395 C.3     1  UNL1        0.0349
     19 C          -8.9946  -18.1073   21.9288 C.3     1  UNL1        0.0762
@<TRIPOS>BOND
     1    11    12    1
     2    12    13    1
     3    14    13    1
     4    14    15    1
     5    15    16    1
     6    16    17    1
     7    17    18    1
     8    18     1    1
     9     1     2   ar
    10     2     3   ar
    11     3     4   ar
    12     4     5   ar
    13     5     6   ar
    14     6     7   ar
    15     7     8   ar
    16     8     9   ar
    17     9    10   ar
    18    18    19    1
    19    19    12    1
    20    18    14    1
    21    10     1   ar
    22     9     4   ar
@<TRIPOS>MOLECULE
*****
 19 22 0 0 0
SMALL
GASTEIGER

@<TRIPOS>ATOM
      1 C          -6.1648  -19.1620   21.2760 C.ar    1  UNL1       -0.0215
      2 C          -6.6158  -19.1595   19.8454 C.ar    1  UNL1       -0.0042
      3 C          -8.0683  -19.3386   19.5166 C.ar    1  UNL1       -0.0003
      4 C          -9.0699  -19.5202   20.6185 C.ar    1  UNL1       -0.0000
      5 C         -10.5224  -19.6992   20.2897 C.ar    1  UNL1       -0.0000
      6 C         -11.5238  -19.8809   21.3915 C.ar    1  UNL1       -0.0000
      7 C         -11.0728  -19.8834   22.8221 C.ar    1  UNL1       -0.0000
      8 C          -9.6203  -19.7043   23.1508 C.ar    1  UNL1       -0.0000
      9 C          -8.6189  -19.5227   22.0490 C.ar    1  UNL1       -0.0003
     10 C          -7.1663  -19.3436   22.3778 C.ar    1  UNL1       -0.0042
     11 C          -4.8844  -16.1354   24.2367 C.3     1  UNL1        0.0896
     12 N          -4.5305  -17.2218   23.2648 N.3     1  UNL1       -0.2712
     13 C          -3.1474  -17.7154   22.9594 C.3     1  UNL1        0.0725
     14 C          -3.2597  -18.8039   21.9335 C.3     1  UNL1        0.0210
     15 C          -2.4743  -19.7818   21.1107 C.3     1  UNL1        0.0018
     16 C          -3.4415  -20.5651   20.2734 C.3     1  UNL1        0.0004
     17 C          -4.8246  -20.0715   20.5788 C.3     1  UNL1        0.0054
     18 C          -4.7122  -18.9830   21.6048 C.3     1  UNL1        0.0349
     19 C          -5.4976  -18.0052   22.4275 C.3     1  UNL1        0.0762
@<TRIPOS>BOND
     1    11    12    1
     2    12    13    1
     3    14    13    1
     4    14    15    1
     5    15    16    1
     6    16    17    1
     7    17    18    1
     8    18     1    1
     9     1     2   ar
    10     2     3   ar
    11     3     4   ar
    12     4     5   ar
    13     5     6   ar
    14     6     7   ar
    15     7     8   ar
    16     8     9   ar
    17     9    10   ar
    18    18    19    1
    19    19    12    1
    20    18    14    1
    21    10     1   ar
    22     9     4   ar
@<TRIPOS>MOLECULE
*****
 19 22 0 0 0
SMALL
GASTEIGER

@<TRIPOS>ATOM
      1 C          -8.2269  -17.9524   22.4674 C.ar    1  UNL1       -0.0215
      2 C          -8.8086  -16.9198   21.5479 C.ar    1  UNL1       -0.0042
      3 C         -10.2700  -16.5894   21.6199 C.ar    1  UNL1       -0.0003
      4 C         -11.1497  -17.2916   22.6114 C.ar    1  UNL1       -0.0000
      5 C         -12.6111  -16.9612   22.6833 C.ar    1  UNL1       -0.0000
      6 C         -13.4908  -17.6635   23.6747 C.ar    1  UNL1       -0.0000
      7 C         -12.9091  -18.6960   24.5942 C.ar    1  UNL1       -0.0000
      8 C         -11.4478  -19.0264   24.5223 C.ar    1  UNL1       -0.0000
      9 C         -10.5681  -18.3242   23.5308 C.ar    1  UNL1       -0.0003
     10 C          -9.1066  -18.6546   23.4588 C.ar    1  UNL1       -0.0042
     11 C          -5.2283  -15.3200   24.3765 C.3     1  UNL1        0.0896
     12 N          -5.5460  -16.5520   23.5819 N.3     1  UNL1       -0.2712
     13 C          -4.5504  -17.5435   23.0567 C.3     1  UNL1        0.0725
     14 C          -5.3041  -18.6131   22.3234 C.3     1  UNL1        0.0210
     15 C          -5.1547  -19.8869   21.5455 C.3     1  UNL1        0.0018
     16 C          -6.5237  -20.3438   21.1368 C.3     1  UNL1        0.0004
     17 C          -7.5193  -19.3524   21.6620 C.3     1  UNL1        0.0054
     18 C          -6.7655  -18.2827   22.3954 C.3     1  UNL1        0.0349
     19 C          -6.9150  -17.0089   23.1732 C.3     1  UNL1        0.0762
@<TRIPOS>BOND
     1    11    12    1
     2    12    13    1
     3    14    13    1
     4    14    15    1
     5    15    16    1
     6    16    17    1
     7    17    18    1
     8    18     1    1
     9     1     2   ar
    10     2     3   ar
    11     3     4   ar
    12     4     5   ar
    13     5     6   ar
    14     6     7   ar
    15     7     8   ar
    16     8     9   ar
    17     9    10   ar
    18    18    19    1
    19    19    12    1
    20    18    14    1
    21    10     1   ar
    22     9     4   ar
@<TRIPOS>MOLECULE
*****
 19 22 0 0 0
SMALL
GASTEIGER

@<TRIPOS>ATOM
      1 C          -8.1982  -17.2224   22.9214 C.ar    1  UNL1       -0.0215
      2 C          -8.8251  -16.2863   21.9312 C.ar    1  UNL1       -0.0042
      3 C         -10.3186  -16.1825   21.8387 C.ar    1  UNL1       -0.0003
      4 C         -11.1853  -17.0148   22.7366 C.ar    1  UNL1       -0.0000
      5 C         -12.6788  -16.9110   22.6442 C.ar    1  UNL1       -0.0000
      6 C         -13.5454  -17.7434   23.5421 C.ar    1  UNL1       -0.0000
      7 C         -12.9185  -18.6795   24.5324 C.ar    1  UNL1       -0.0000
      8 C         -11.4250  -18.7833   24.6248 C.ar    1  UNL1       -0.0000
      9 C         -10.5584  -17.9509   23.7269 C.ar    1  UNL1       -0.0003
     10 C          -9.0648  -18.0547   23.8193 C.ar    1  UNL1       -0.0042
     11 C          -6.0503  -20.5642   20.9761 C.3     1  UNL1        0.0896
     12 N          -6.0138  -19.3092   21.7969 N.3     1  UNL1       -0.2712
     13 C          -4.7842  -18.6555   22.3541 C.3     1  UNL1        0.0725
     14 C          -5.2111  -17.4299   23.1062 C.3     1  UNL1        0.0210
     15 C          -4.7150  -16.2684   23.9154 C.3     1  UNL1        0.0018
     16 C          -5.9019  -15.4468   24.3231 C.3     1  UNL1        0.0004
     17 C          -7.1316  -16.1005   23.7659 C.3     1  UNL1        0.0054
     18 C          -6.7046  -17.3261   23.0138 C.3     1  UNL1        0.0349
     19 C          -7.2008  -18.4876   22.2047 C.3     1  UNL1        0.0762
@<TRIPOS>BOND
     1    11    12    1
     2    12    13    1
     3    14    13    1
     4    14    15    1
     5    15    16    1
     6    16    17    1
     7    17    18    1
     8    18     1    1
     9     1     2   ar
    10     2     3   ar
    11     3     4   ar
    12     4     5   ar
    13     5     6   ar
    14     6     7   ar
    15     7     8   ar
    16     8     9   ar
    17     9    10   ar
    18    18    19    1
    19    19    12    1
    20    18    14    1
    21    10     1   ar
    22     9     4   ar
