@<TRIPOS>MOLECULE
*****
 37 40 0 0 0
SMALL
GASTEIGER

@<TRIPOS>ATOM
      1 C           6.9794   -4.5644   29.6527 C.ar    1  UNL1        0.0067
      2 C           6.5025   -3.5676   28.6385 C.ar    1  UNL1        0.0156
      3 C           6.6585   -3.8540   27.1743 C.ar    1  UNL1        0.0673
      4 C           7.2914   -5.1373   26.7245 C.ar    1  UNL1        0.0295
      5 C           7.7683   -6.1342   27.7387 C.ar    1  UNL1        0.0315
      6 C           7.6123   -5.8478   29.2028 C.ar    1  UNL1        0.1362
      7 F           8.0893   -6.8448   30.2171 F       1  UNL1       -0.2045
      8 C           7.3108   -5.1437   25.2246 C.ar    1  UNL1        0.0875
      9 C           6.6898   -3.8643   24.7475 C.ar    1  UNL1        0.0939
     10 N           6.2867   -3.0672   25.9525 N.ar    1  UNL1       -0.2745
     11 C           6.5046   -3.4541   23.3166 C.ar    1  UNL1        0.0982
     12 C           5.1617   -3.5962   22.6635 C.ar    1  UNL1        0.0220
     13 C           4.9765   -3.1860   21.2326 C.ar    1  UNL1        0.0231
     14 C           6.1341   -2.6338   20.4549 C.ar    1  UNL1        0.1410
     15 C           7.4770   -2.4917   21.1080 C.ar    1  UNL1        0.1187
     16 N           7.6622   -2.9019   22.5388 N.ar    1  UNL1       -0.2409
     17 S           5.9489   -2.2236   19.0239 S.O2    1  UNL1        0.0619
     18 O           4.8850   -3.2687   18.8621 O.2     1  UNL1       -0.1529
     19 O           7.0126   -1.1785   19.1858 O.2     1  UNL1       -0.1529
     20 N           5.7636   -1.8134   17.5931 N.3     1  UNL1       -0.1723
     21 H           5.1635   -2.5157   17.1608 H       1  UNL1        0.1491
     22 C           5.1685   -0.4755   17.2674 C.3     1  UNL1        0.1701
     23 C           6.0295    0.6071   16.6872 C.3     1  UNL1        0.0278
     24 C           3.7125   -0.2203   17.5219 C.3     1  UNL1        0.4118
     25 F           2.2564    0.0348   17.7764 F       1  UNL1       -0.1685
     26 F           3.3562   -1.0802   16.3455 F       1  UNL1       -0.1685
     27 F           4.0688    0.6394   18.6982 F       1  UNL1       -0.1685
     28 C           5.6275   -1.7199   25.9382 C.ar    1  UNL1        0.2369
     29 N           4.1790   -1.5976   25.5684 N.ar    1  UNL1       -0.2095
     30 C           3.5197   -0.2503   25.5541 C.ar    1  UNL1        0.1037
     31 C           4.3090    0.9746   25.9097 C.ar    1  UNL1        0.0415
     32 C           5.7575    0.8523   26.2795 C.ar    1  UNL1        0.1037
     33 N           6.4168   -0.4949   26.2938 N.ar    1  UNL1       -0.2095
     34 C           6.0930   -3.0475   31.5666 C.3     1  UNL1        0.0051
     35 C           6.8234   -4.2780   31.1168 C.3     1  UNL1        0.0287
     36 C           7.8555   -6.2375   24.3546 C.1     1  UNL1        0.1020
     37 N           8.4002   -7.3314   23.4846 N.1     1  UNL1       -0.1908
@<TRIPOS>BOND
     1    34    35    1
     2    35     1    1
     3     1     2   ar
     4     2     3   ar
     5     3     4   ar
     6     4     5   ar
     7     5     6   ar
     8     6     7    1
     9     4     8   ar
    10     8    36    1
    11    36    37    3
    12     8     9   ar
    13     9    11    1
    14    11    12   ar
    15    12    13   ar
    16    13    14   ar
    17    14    17    1
    18    17    18    2
    19    17    19    2
    20    17    20    1
    21    20    22    1
    22    22    23    1
    23    22    24    1
    24    24    25    1
    25    24    26    1
    26    24    27    1
    27    14    15   ar
    28    15    16   ar
    29     9    10   ar
    30    10    28    1
    31    28    29   ar
    32    29    30   ar
    33    30    31   ar
    34    31    32   ar
    35    32    33   ar
    36     6     1   ar
    37    16    11   ar
    38    33    28   ar
    39    10     3   ar
    40    20    21    1
@<TRIPOS>MOLECULE
*****
 37 40 0 0 0
SMALL
GASTEIGER

@<TRIPOS>ATOM
      1 C           2.0943   -0.5653   20.5353 C.ar    1  UNL1        0.0067
      2 C           1.8634    0.1043   21.8575 C.ar    1  UNL1        0.0156
      3 C           2.6618   -0.3103   23.0578 C.ar    1  UNL1        0.0673
      4 C           3.6911   -1.3945   22.9358 C.ar    1  UNL1        0.0295
      5 C           3.9220   -2.0641   21.6136 C.ar    1  UNL1        0.0315
      6 C           3.1236   -1.6495   20.4133 C.ar    1  UNL1        0.1362
      7 F           3.3546   -2.3192   19.0911 F       1  UNL1       -0.2045
      8 C           4.3208   -1.5895   24.2832 C.ar    1  UNL1        0.0875
      9 C           3.6806   -0.6258   25.2379 C.ar    1  UNL1        0.0939
     10 N           2.6553    0.1648   24.4806 N.ar    1  UNL1       -0.2745
     11 C           4.0083   -0.4786   26.6943 C.ar    1  UNL1        0.0982
     12 C           3.0092   -0.8931   27.7335 C.ar    1  UNL1        0.0220
     13 C           3.3369   -0.7458   29.1898 C.ar    1  UNL1        0.0231
     14 C           4.6637   -0.1841   29.6069 C.ar    1  UNL1        0.1410
     15 C           5.6628    0.2303   28.5678 C.ar    1  UNL1        0.1187
     16 N           5.3351    0.0831   27.1115 N.ar    1  UNL1       -0.2409
     17 S           4.9914   -0.0369   31.0633 S.O2    1  UNL1        0.0619
     18 O           3.5383   -0.1853   31.4053 O.2     1  UNL1       -0.1529
     19 O           6.4443    0.1114   30.7214 O.2     1  UNL1       -0.1529
     20 N           5.3191    0.1103   32.5197 N.3     1  UNL1       -0.1723
     21 H           4.7117    0.8436   32.8855 H       1  UNL1        0.1491
     22 C           5.1826   -1.0650   33.4417 C.3     1  UNL1        0.1701
     23 C           4.6236   -0.8755   34.8206 C.3     1  UNL1        0.0278
     24 C           5.6050   -2.4298   32.9847 C.3     1  UNL1        0.4118
     25 F           6.0275   -3.7946   32.5277 F       1  UNL1       -0.1685
     26 F           7.0402   -1.9944   33.0114 F       1  UNL1       -0.1685
     27 F           4.1698   -2.8651   32.9580 F       1  UNL1       -0.1685
     28 C           1.7776    1.2415   25.0466 C.ar    1  UNL1        0.2369
     29 N           2.3824    2.5285   25.5239 N.ar    1  UNL1       -0.2095
     30 C           1.5047    3.6052   26.0899 C.ar    1  UNL1        0.1037
     31 C           0.0222    3.3948   26.1786 C.ar    1  UNL1        0.0415
     32 C          -0.5826    2.1079   25.7013 C.ar    1  UNL1        0.1037
     33 N           0.2950    1.0311   25.1353 N.ar    1  UNL1       -0.2095
     34 C           1.9434    0.6479   18.2428 C.3     1  UNL1        0.0051
     35 C           1.2959   -0.1507   19.3350 C.3     1  UNL1        0.0287
     36 C           5.4010   -2.5752   24.6172 C.1     1  UNL1        0.1020
     37 N           6.4812   -3.5609   24.9513 N.1     1  UNL1       -0.1908
@<TRIPOS>BOND
     1    34    35    1
     2    35     1    1
     3     1     2   ar
     4     2     3   ar
     5     3     4   ar
     6     4     5   ar
     7     5     6   ar
     8     6     7    1
     9     4     8   ar
    10     8    36    1
    11    36    37    3
    12     8     9   ar
    13     9    11    1
    14    11    12   ar
    15    12    13   ar
    16    13    14   ar
    17    14    17    1
    18    17    18    2
    19    17    19    2
    20    17    20    1
    21    20    22    1
    22    22    23    1
    23    22    24    1
    24    24    25    1
    25    24    26    1
    26    24    27    1
    27    14    15   ar
    28    15    16   ar
    29     9    10   ar
    30    10    28    1
    31    28    29   ar
    32    29    30   ar
    33    30    31   ar
    34    31    32   ar
    35    32    33   ar
    36     6     1   ar
    37    16    11   ar
    38    33    28   ar
    39    10     3   ar
    40    20    21    1
@<TRIPOS>MOLECULE
*****
 37 40 0 0 0
SMALL
GASTEIGER

@<TRIPOS>ATOM
      1 C           2.1280    3.3760   34.3709 C.ar    1  UNL1        0.0067
      2 C           3.3049    2.4649   34.5573 C.ar    1  UNL1        0.0156
      3 C           3.5933    1.3957   33.5456 C.ar    1  UNL1        0.0673
      4 C           2.7049    1.2376   32.3474 C.ar    1  UNL1        0.0295
      5 C           1.5280    2.1487   32.1610 C.ar    1  UNL1        0.0315
      6 C           1.2396    3.2179   33.1727 C.ar    1  UNL1        0.1362
      7 F           0.0626    4.1291   32.9863 F       1  UNL1       -0.2045
      8 C           3.2349    0.1014   31.5240 C.ar    1  UNL1        0.0875
      9 C           4.4510   -0.4428   32.2133 C.ar    1  UNL1        0.0939
     10 N           4.6725    0.3571   33.4627 N.ar    1  UNL1       -0.2745
     11 C           5.2970   -1.5862   31.7368 C.ar    1  UNL1        0.0982
     12 C           5.9464   -1.5267   30.3859 C.ar    1  UNL1        0.0220
     13 C           6.7923   -2.6700   29.9095 C.ar    1  UNL1        0.0231
     14 C           6.9889   -3.8729   30.7838 C.ar    1  UNL1        0.1410
     15 C           6.3396   -3.9324   32.1347 C.ar    1  UNL1        0.1187
     16 N           5.4937   -2.7890   32.6111 N.ar    1  UNL1       -0.2409
     17 S           7.8350   -5.0162   30.3073 S.O2    1  UNL1        0.0619
     18 O           9.0709   -4.2758   30.7248 O.2     1  UNL1       -0.1529
     19 O           6.5991   -5.7566   29.8898 O.2     1  UNL1       -0.1529
     20 N           8.6809   -6.1596   29.8308 N.3     1  UNL1       -0.1723
     21 H           8.3510   -6.9929   30.3177 H       1  UNL1        0.1491
     22 C           8.7271   -6.5009   28.3709 C.3     1  UNL1        0.1701
     23 C           9.0702   -5.4435   27.3639 C.3     1  UNL1        0.0278
     24 C           8.4301   -7.8997   27.9179 C.3     1  UNL1        0.4118
     25 F           8.1331   -9.2986   27.4650 F       1  UNL1       -0.1685
     26 F           9.5353   -8.4168   28.7904 F       1  UNL1       -0.1685
     27 F           7.3249   -7.3825   27.0455 F       1  UNL1       -0.1685
     28 C           5.7789    0.1542   34.4550 C.ar    1  UNL1        0.2369
     29 N           5.4617    0.0203   35.9149 N.ar    1  UNL1       -0.2095
     30 C           6.5681   -0.1827   36.9073 C.ar    1  UNL1        0.1037
     31 C           7.9916   -0.2517   36.4397 C.ar    1  UNL1        0.0415
     32 C           8.3088   -0.1178   34.9797 C.ar    1  UNL1        0.1037
     33 N           7.2025    0.0851   33.9874 N.ar    1  UNL1       -0.2095
     34 C           1.6431    4.0803   36.8242 C.3     1  UNL1        0.0051
     35 C           1.8396    4.4452   35.3826 C.3     1  UNL1        0.0287
     36 C           2.6514   -0.4022   30.2372 C.1     1  UNL1        0.1020
     37 N           2.0678   -0.9060   28.9504 N.1     1  UNL1       -0.1908
@<TRIPOS>BOND
     1    34    35    1
     2    35     1    1
     3     1     2   ar
     4     2     3   ar
     5     3     4   ar
     6     4     5   ar
     7     5     6   ar
     8     6     7    1
     9     4     8   ar
    10     8    36    1
    11    36    37    3
    12     8     9   ar
    13     9    11    1
    14    11    12   ar
    15    12    13   ar
    16    13    14   ar
    17    14    17    1
    18    17    18    2
    19    17    19    2
    20    17    20    1
    21    20    22    1
    22    22    23    1
    23    22    24    1
    24    24    25    1
    25    24    26    1
    26    24    27    1
    27    14    15   ar
    28    15    16   ar
    29     9    10   ar
    30    10    28    1
    31    28    29   ar
    32    29    30   ar
    33    30    31   ar
    34    31    32   ar
    35    32    33   ar
    36     6     1   ar
    37    16    11   ar
    38    33    28   ar
    39    10     3   ar
    40    20    21    1
@<TRIPOS>MOLECULE
*****
 37 40 0 0 0
SMALL
GASTEIGER

@<TRIPOS>ATOM
      1 C          -5.5022    4.8212   24.8113 C.ar    1  UNL1        0.0067
      2 C          -4.9985    4.5463   23.4254 C.ar    1  UNL1        0.0156
      3 C          -3.6175    3.9962   23.2247 C.ar    1  UNL1        0.0673
      4 C          -2.7402    3.7210   24.4098 C.ar    1  UNL1        0.0295
      5 C          -3.2440    3.9958   25.7957 C.ar    1  UNL1        0.0315
      6 C          -4.6249    4.5459   25.9964 C.ar    1  UNL1        0.1362
      7 F          -5.1286    4.8207   27.3824 F       1  UNL1       -0.2045
      8 C          -1.4343    3.1829   23.9048 C.ar    1  UNL1        0.0875
      9 C          -1.5045    3.1257   22.4075 C.ar    1  UNL1        0.0939
     10 N          -2.8538    3.6283   21.9871 N.ar    1  UNL1       -0.2745
     11 C          -0.4163    2.6494   21.4914 C.ar    1  UNL1        0.0982
     12 C           0.7796    3.5171   21.2327 C.ar    1  UNL1        0.0220
     13 C           1.8677    3.0408   20.3167 C.ar    1  UNL1        0.0231
     14 C           1.7599    1.6968   19.6594 C.ar    1  UNL1        0.1410
     15 C           0.5640    0.8291   19.9181 C.ar    1  UNL1        0.1187
     16 N          -0.5241    1.3054   20.8341 N.ar    1  UNL1       -0.2409
     17 S           2.8481    1.2205   18.7433 S.O2    1  UNL1        0.0619
     18 O           1.8428    0.4283   17.9610 O.2     1  UNL1       -0.1529
     19 O           3.8533    2.0127   19.5256 O.2     1  UNL1       -0.1529
     20 N           3.9362    0.7443   17.8273 N.3     1  UNL1       -0.1723
     21 H           4.4859    1.5646   17.5716 H       1  UNL1        0.1491
     22 C           4.9072   -0.2990   18.2950 C.3     1  UNL1        0.1701
     23 C           6.3489   -0.2174   17.8892 C.3     1  UNL1        0.0278
     24 C           4.4365   -1.4238   19.1686 C.3     1  UNL1        0.4118
     25 F           3.9658   -2.5486   20.0423 F       1  UNL1       -0.1685
     26 F           5.0760   -0.7685   20.3568 F       1  UNL1       -0.1685
     27 F           3.7970   -2.0790   17.9805 F       1  UNL1       -0.1685
     28 C          -3.3519    3.7430   20.5769 C.ar    1  UNL1        0.2369
     29 N          -4.7397    3.2900   20.2326 N.ar    1  UNL1       -0.2095
     30 C          -5.2379    3.4046   18.8224 C.ar    1  UNL1        0.1037
     31 C          -4.3482    3.9723   17.7565 C.ar    1  UNL1        0.0415
     32 C          -2.9603    4.4253   18.1009 C.ar    1  UNL1        0.1037
     33 N          -2.4621    4.3107   19.5110 N.ar    1  UNL1       -0.2095
     34 C          -7.9166    5.2147   23.9362 C.3     1  UNL1        0.0051
     35 C          -6.8832    5.3713   25.0121 C.3     1  UNL1        0.0287
     36 C          -0.2638    2.7740   24.7489 C.1     1  UNL1        0.1020
     37 N           0.9069    2.3649   25.5929 N.1     1  UNL1       -0.1908
@<TRIPOS>BOND
     1    34    35    1
     2    35     1    1
     3     1     2   ar
     4     2     3   ar
     5     3     4   ar
     6     4     5   ar
     7     5     6   ar
     8     6     7    1
     9     4     8   ar
    10     8    36    1
    11    36    37    3
    12     8     9   ar
    13     9    11    1
    14    11    12   ar
    15    12    13   ar
    16    13    14   ar
    17    14    17    1
    18    17    18    2
    19    17    19    2
    20    17    20    1
    21    20    22    1
    22    22    23    1
    23    22    24    1
    24    24    25    1
    25    24    26    1
    26    24    27    1
    27    14    15   ar
    28    15    16   ar
    29     9    10   ar
    30    10    28    1
    31    28    29   ar
    32    29    30   ar
    33    30    31   ar
    34    31    32   ar
    35    32    33   ar
    36     6     1   ar
    37    16    11   ar
    38    33    28   ar
    39    10     3   ar
    40    20    21    1
@<TRIPOS>MOLECULE
*****
 37 40 0 0 0
SMALL
GASTEIGER

@<TRIPOS>ATOM
      1 C           4.7253   -2.9965   20.5293 C.ar    1  UNL1        0.0067
      2 C           5.4306   -3.1454   21.8447 C.ar    1  UNL1        0.0156
      3 C           4.9678   -2.3615   23.0369 C.ar    1  UNL1        0.0673
      4 C           3.7996   -1.4286   22.9136 C.ar    1  UNL1        0.0295
      5 C           3.0944   -1.2797   21.5982 C.ar    1  UNL1        0.0315
      6 C           3.5572   -2.0636   20.4061 C.ar    1  UNL1        0.1362
      7 F           2.8519   -1.9147   19.0906 F       1  UNL1       -0.2045
      8 C           3.5718   -0.7917   24.2524 C.ar    1  UNL1        0.0875
      9 C           4.5992   -1.3309   25.2031 C.ar    1  UNL1        0.0939
     10 N           5.4619   -2.3011   24.4519 N.ar    1  UNL1       -0.2745
     11 C           4.7392   -0.9642   26.6509 C.ar    1  UNL1        0.0982
     12 C           3.6480   -1.3089   27.6208 C.ar    1  UNL1        0.0220
     13 C           3.7880   -0.9422   29.0685 C.ar    1  UNL1        0.0231
     14 C           5.0192   -0.2309   29.5464 C.ar    1  UNL1        0.1410
     15 C           6.1103    0.1137   28.5765 C.ar    1  UNL1        0.1187
     16 N           5.9703   -0.2530   27.1288 N.ar    1  UNL1       -0.2409
     17 S           5.1592    0.1357   30.9942 S.O2    1  UNL1        0.0619
     18 O           6.6439   -0.0556   30.8991 O.2     1  UNL1       -0.1529
     19 O           3.6745    0.3270   31.0892 O.2     1  UNL1       -0.1529
     20 N           5.2991    0.5024   32.4419 N.3     1  UNL1       -0.1723
     21 H           4.3923    0.8581   32.7445 H       1  UNL1        0.1491
     22 C           5.7124   -0.5363   33.4421 C.3     1  UNL1        0.1701
     23 C           6.8597   -0.2688   34.3705 C.3     1  UNL1        0.0278
     24 C           4.9784   -1.8424   33.5138 C.3     1  UNL1        0.4118
     25 F           4.2443   -3.1486   33.5855 F       1  UNL1       -0.1685
     26 F           3.7914   -1.1428   34.1067 F       1  UNL1       -0.1685
     27 F           6.1654   -2.5420   32.9209 F       1  UNL1       -0.1685
     28 C           6.6162   -3.0750   25.0165 C.ar    1  UNL1        0.2369
     29 N           7.8843   -2.3657   25.3888 N.ar    1  UNL1       -0.2095
     30 C           9.0386   -3.1395   25.9534 C.ar    1  UNL1        0.1037
     31 C           8.9246   -4.6228   26.1457 C.ar    1  UNL1        0.0415
     32 C           7.6565   -5.3321   25.7734 C.ar    1  UNL1        0.1037
     33 N           6.5022   -4.5583   25.2088 N.ar    1  UNL1       -0.2095
     34 C           4.3764   -4.9401   18.8409 C.3     1  UNL1        0.0051
     35 C           5.1881   -3.7804   19.3372 C.3     1  UNL1        0.0287
     36 C           2.5041    0.2088   24.5825 C.1     1  UNL1        0.1020
     37 N           1.4364    1.2094   24.9127 N.1     1  UNL1       -0.1908
@<TRIPOS>BOND
     1    34    35    1
     2    35     1    1
     3     1     2   ar
     4     2     3   ar
     5     3     4   ar
     6     4     5   ar
     7     5     6   ar
     8     6     7    1
     9     4     8   ar
    10     8    36    1
    11    36    37    3
    12     8     9   ar
    13     9    11    1
    14    11    12   ar
    15    12    13   ar
    16    13    14   ar
    17    14    17    1
    18    17    18    2
    19    17    19    2
    20    17    20    1
    21    20    22    1
    22    22    23    1
    23    22    24    1
    24    24    25    1
    25    24    26    1
    26    24    27    1
    27    14    15   ar
    28    15    16   ar
    29     9    10   ar
    30    10    28    1
    31    28    29   ar
    32    29    30   ar
    33    30    31   ar
    34    31    32   ar
    35    32    33   ar
    36     6     1   ar
    37    16    11   ar
    38    33    28   ar
    39    10     3   ar
    40    20    21    1
@<TRIPOS>MOLECULE
*****
 37 40 0 0 0
SMALL
GASTEIGER

@<TRIPOS>ATOM
      1 C           3.9629    2.3312   37.3618 C.ar    1  UNL1        0.0067
      2 C           4.0934    1.5488   36.0887 C.ar    1  UNL1        0.0156
      3 C           3.2684    1.9201   34.8923 C.ar    1  UNL1        0.0673
      4 C           2.3128    3.0737   34.9690 C.ar    1  UNL1        0.0295
      5 C           2.1822    3.8560   36.2421 C.ar    1  UNL1        0.0315
      6 C           3.0073    3.4848   37.4385 C.ar    1  UNL1        0.1362
      7 F           2.8767    4.2672   38.7117 F       1  UNL1       -0.2045
      8 C           1.6361    3.2044   33.6367 C.ar    1  UNL1        0.0875
      9 C           2.1736    2.1316   32.7366 C.ar    1  UNL1        0.0939
     10 N           3.1824    1.3378   33.5126 N.ar    1  UNL1       -0.2745
     11 C           1.7726    1.8942   31.3107 C.ar    1  UNL1        0.0982
     12 C           2.7063    2.2660   30.1972 C.ar    1  UNL1        0.0220
     13 C           2.3053    2.0286   28.7715 C.ar    1  UNL1        0.0231
     14 C           0.9705    1.4195   28.4592 C.ar    1  UNL1        0.1410
     15 C           0.0368    1.0478   29.5727 C.ar    1  UNL1        0.1187
     16 N           0.4378    1.2851   30.9985 N.ar    1  UNL1       -0.2409
     17 S           0.5695    1.1822   27.0334 S.O2    1  UNL1        0.0619
     18 O          -0.7005    0.5336   27.4986 O.2     1  UNL1       -0.1529
     19 O           1.8395    1.8308   26.5683 O.2     1  UNL1       -0.1529
     20 N           0.1686    0.9449   25.6076 N.3     1  UNL1       -0.1723
     21 H          -0.6101    0.2864   25.6264 H       1  UNL1        0.1491
     22 C          -0.2590    2.0967   24.7471 C.3     1  UNL1        0.1701
     23 C          -1.2477    3.0965   25.2693 C.3     1  UNL1        0.0278
     24 C           0.3022    2.2487   23.3644 C.3     1  UNL1        0.4118
     25 F           0.8634    2.4007   21.9816 F       1  UNL1       -0.1685
     26 F           1.0214    0.9407   23.5125 F       1  UNL1       -0.1685
     27 F          -0.4170    3.5567   23.2163 F       1  UNL1       -0.1685
     28 C           3.9673    0.1673   32.9991 C.ar    1  UNL1        0.2369
     29 N           5.0082    0.3697   31.9381 N.ar    1  UNL1       -0.2095
     30 C           5.7932   -0.8008   31.4246 C.ar    1  UNL1        0.1037
     31 C           5.5373   -2.1737   31.9720 C.ar    1  UNL1        0.0415
     32 C           4.4964   -2.3761   33.0329 C.ar    1  UNL1        0.1037
     33 N           3.7114   -1.2056   33.5465 N.ar    1  UNL1       -0.2095
     34 C           5.9169    2.8458   38.9950 C.3     1  UNL1        0.0051
     35 C           4.7880    1.9599   38.5583 C.3     1  UNL1        0.0287
     36 C           0.6034    4.2282   33.2691 C.1     1  UNL1        0.1020
     37 N          -0.4295    5.2521   32.9015 N.1     1  UNL1       -0.1908
@<TRIPOS>BOND
     1    34    35    1
     2    35     1    1
     3     1     2   ar
     4     2     3   ar
     5     3     4   ar
     6     4     5   ar
     7     5     6   ar
     8     6     7    1
     9     4     8   ar
    10     8    36    1
    11    36    37    3
    12     8     9   ar
    13     9    11    1
    14    11    12   ar
    15    12    13   ar
    16    13    14   ar
    17    14    17    1
    18    17    18    2
    19    17    19    2
    20    17    20    1
    21    20    22    1
    22    22    23    1
    23    22    24    1
    24    24    25    1
    25    24    26    1
    26    24    27    1
    27    14    15   ar
    28    15    16   ar
    29     9    10   ar
    30    10    28    1
    31    28    29   ar
    32    29    30   ar
    33    30    31   ar
    34    31    32   ar
    35    32    33   ar
    36     6     1   ar
    37    16    11   ar
    38    33    28   ar
    39    10     3   ar
    40    20    21    1
@<TRIPOS>MOLECULE
*****
 37 40 0 0 0
SMALL
GASTEIGER

@<TRIPOS>ATOM
      1 C           2.5362   -0.3048   21.1764 C.ar    1  UNL1        0.0067
      2 C           3.1143   -0.4413   22.5537 C.ar    1  UNL1        0.0156
      3 C           2.4073    0.1685   23.7277 C.ar    1  UNL1        0.0673
      4 C           1.1222    0.9149   23.5243 C.ar    1  UNL1        0.0295
      5 C           0.5441    1.0514   22.1470 C.ar    1  UNL1        0.0315
      6 C           1.2511    0.4415   20.9730 C.ar    1  UNL1        0.1362
      7 F           0.6729    0.5781   19.5956 F       1  UNL1       -0.2045
      8 C           0.6543    1.4054   24.8624 C.ar    1  UNL1        0.0875
      9 C           1.6503    0.9622   25.8928 C.ar    1  UNL1        0.0939
     10 N           2.7337    0.1978   25.1915 N.ar    1  UNL1       -0.2745
     11 C           1.5758    1.2355   27.3658 C.ar    1  UNL1        0.0982
     12 C           0.5235    0.5675   28.2003 C.ar    1  UNL1        0.0220
     13 C           0.4491    0.8409   29.6733 C.ar    1  UNL1        0.0231
     14 C           1.4270    1.7821   30.3118 C.ar    1  UNL1        0.1410
     15 C           2.4793    2.4501   29.4773 C.ar    1  UNL1        0.1187
     16 N           2.5537    2.1768   28.0043 N.ar    1  UNL1       -0.2409
     17 S           1.3525    2.0555   31.7848 S.O2    1  UNL1        0.0619
     18 O           0.5398    3.2871   31.5153 O.2     1  UNL1       -0.1529
     19 O           2.1652    0.8239   32.0544 O.2     1  UNL1       -0.1529
     20 N           1.2781    2.3287   33.2578 N.3     1  UNL1       -0.1723
     21 H           1.5699    1.4735   33.7311 H       1  UNL1        0.1491
     22 C           2.0786    3.4483   33.8543 C.3     1  UNL1        0.1701
     23 C           3.4577    3.7402   33.3418 C.3     1  UNL1        0.0278
     24 C           1.4999    4.2760   34.9634 C.3     1  UNL1        0.4118
     25 F           0.9211    5.1038   36.0724 F       1  UNL1       -0.1685
     26 F           0.9840    5.2624   33.9579 F       1  UNL1       -0.1685
     27 F           2.0157    3.2896   35.9687 F       1  UNL1       -0.1685
     28 C           3.9329   -0.4277   25.8401 C.ar    1  UNL1        0.2369
     29 N           3.7523   -1.4507   26.9221 N.ar    1  UNL1       -0.2095
     30 C           4.9514   -2.0761   27.5708 C.ar    1  UNL1        0.1037
     31 C           6.3313   -1.6785   27.1373 C.ar    1  UNL1        0.0415
     32 C           6.5119   -0.6555   26.0553 C.ar    1  UNL1        0.1037
     33 N           5.3128   -0.0301   25.4067 N.ar    1  UNL1       -0.2095
     34 C           3.1567   -2.3923   19.7596 C.3     1  UNL1        0.0051
     35 C           3.2432   -0.9147   20.0024 C.3     1  UNL1        0.0287
     36 C          -0.5909    2.1997   25.1241 C.1     1  UNL1        0.1020
     37 N          -1.8362    2.9941   25.3858 N.1     1  UNL1       -0.1908
@<TRIPOS>BOND
     1    34    35    1
     2    35     1    1
     3     1     2   ar
     4     2     3   ar
     5     3     4   ar
     6     4     5   ar
     7     5     6   ar
     8     6     7    1
     9     4     8   ar
    10     8    36    1
    11    36    37    3
    12     8     9   ar
    13     9    11    1
    14    11    12   ar
    15    12    13   ar
    16    13    14   ar
    17    14    17    1
    18    17    18    2
    19    17    19    2
    20    17    20    1
    21    20    22    1
    22    22    23    1
    23    22    24    1
    24    24    25    1
    25    24    26    1
    26    24    27    1
    27    14    15   ar
    28    15    16   ar
    29     9    10   ar
    30    10    28    1
    31    28    29   ar
    32    29    30   ar
    33    30    31   ar
    34    31    32   ar
    35    32    33   ar
    36     6     1   ar
    37    16    11   ar
    38    33    28   ar
    39    10     3   ar
    40    20    21    1
@<TRIPOS>MOLECULE
*****
 37 40 0 0 0
SMALL
GASTEIGER

@<TRIPOS>ATOM
      1 C           3.6669    2.0291   37.4507 C.ar    1  UNL1        0.0067
      2 C           4.0172    1.2236   36.2348 C.ar    1  UNL1        0.0156
      3 C           3.3897    1.5505   34.9122 C.ar    1  UNL1        0.0673
      4 C           2.4118    2.6828   34.8054 C.ar    1  UNL1        0.0295
      5 C           2.0615    3.4884   36.0212 C.ar    1  UNL1        0.0315
      6 C           2.6890    3.1615   37.3439 C.ar    1  UNL1        0.1362
      7 F           2.3386    3.9671   38.5598 F       1  UNL1       -0.2045
      8 C           1.9575    2.7699   33.3785 C.ar    1  UNL1        0.0875
      9 C           2.6546    1.6913   32.6034 C.ar    1  UNL1        0.0939
     10 N           3.5397    0.9376   33.5512 N.ar    1  UNL1       -0.2745
     11 C           2.4946    1.4150   31.1377 C.ar    1  UNL1        0.0982
     12 C           3.4955    1.9541   30.1592 C.ar    1  UNL1        0.0220
     13 C           3.3354    1.6777   28.6937 C.ar    1  UNL1        0.0231
     14 C           2.1744    0.8623   28.2066 C.ar    1  UNL1        0.1410
     15 C           1.1735    0.3232   29.1851 C.ar    1  UNL1        0.1187
     16 N           1.3336    0.5995   30.6507 N.ar    1  UNL1       -0.2409
     17 S           2.0144    0.5859   26.7409 S.O2    1  UNL1        0.0619
     18 O           2.7990   -0.6833   26.8946 O.2     1  UNL1       -0.1529
     19 O           1.2298    1.8551   26.5874 O.2     1  UNL1       -0.1529
     20 N           1.8544    0.3096   25.2753 N.3     1  UNL1       -0.1723
     21 H           1.2467    1.0393   24.9028 H       1  UNL1        0.1491
     22 C           3.0612    0.2554   24.3862 C.3     1  UNL1        0.1701
     23 C           4.1651    1.2562   24.5582 C.3     1  UNL1        0.0278
     24 C           3.1641   -0.7997   23.3250 C.3     1  UNL1        0.4118
     25 F           3.2671   -1.8549   22.2638 F       1  UNL1       -0.1685
     26 F           4.0199   -1.6308   24.2344 F       1  UNL1       -0.1685
     27 F           2.3084    0.0314   22.4157 F       1  UNL1       -0.1685
     28 C           4.4203   -0.2247   33.1999 C.ar    1  UNL1        0.2369
     29 N           5.8101    0.0147   32.6890 N.ar    1  UNL1       -0.2095
     30 C           6.6908   -1.1476   32.3377 C.ar    1  UNL1        0.1037
     31 C           6.1815   -2.5494   32.4973 C.ar    1  UNL1        0.0415
     32 C           4.7917   -2.7889   33.0082 C.ar    1  UNL1        0.1037
     33 N           3.9111   -1.6266   33.3595 N.ar    1  UNL1       -0.2095
     34 C           5.2923    2.6418   39.3827 C.3     1  UNL1        0.0051
     35 C           4.2944    1.7022   38.7733 C.3     1  UNL1        0.0287
     36 C           0.9781    3.7615   32.8241 C.1     1  UNL1        0.1020
     37 N          -0.0015    4.7532   32.2697 N.1     1  UNL1       -0.1908
@<TRIPOS>BOND
     1    34    35    1
     2    35     1    1
     3     1     2   ar
     4     2     3   ar
     5     3     4   ar
     6     4     5   ar
     7     5     6   ar
     8     6     7    1
     9     4     8   ar
    10     8    36    1
    11    36    37    3
    12     8     9   ar
    13     9    11    1
    14    11    12   ar
    15    12    13   ar
    16    13    14   ar
    17    14    17    1
    18    17    18    2
    19    17    19    2
    20    17    20    1
    21    20    22    1
    22    22    23    1
    23    22    24    1
    24    24    25    1
    25    24    26    1
    26    24    27    1
    27    14    15   ar
    28    15    16   ar
    29     9    10   ar
    30    10    28    1
    31    28    29   ar
    32    29    30   ar
    33    30    31   ar
    34    31    32   ar
    35    32    33   ar
    36     6     1   ar
    37    16    11   ar
    38    33    28   ar
    39    10     3   ar
    40    20    21    1
@<TRIPOS>MOLECULE
*****
 37 40 0 0 0
SMALL
GASTEIGER

@<TRIPOS>ATOM
      1 C          -6.5211    5.4094   25.0323 C.ar    1  UNL1        0.0067
      2 C          -5.0571    5.0903   24.9638 C.ar    1  UNL1        0.0156
      3 C          -4.4614    4.5712   23.6888 C.ar    1  UNL1        0.0673
      4 C          -5.3298    4.3713   22.4822 C.ar    1  UNL1        0.0295
      5 C          -6.7938    4.6905   22.5506 C.ar    1  UNL1        0.0315
      6 C          -7.3895    5.2095   23.8257 C.ar    1  UNL1        0.1362
      7 F          -8.8536    5.5286   23.8941 F       1  UNL1       -0.2045
      8 C          -4.4671    3.8493   21.3716 C.ar    1  UNL1        0.0875
      9 C          -3.0655    3.7266   21.8919 C.ar    1  UNL1        0.0939
     10 N          -3.0620    4.1728   23.3240 N.ar    1  UNL1       -0.2745
     11 C          -1.8763    3.2427   21.1162 C.ar    1  UNL1        0.0982
     12 C          -1.5501    3.8528   19.7853 C.ar    1  UNL1        0.0220
     13 C          -0.3610    3.3689   19.0097 C.ar    1  UNL1        0.0231
     14 C           0.5020    2.2748   19.5649 C.ar    1  UNL1        0.1410
     15 C           0.1757    1.6646   20.8958 C.ar    1  UNL1        0.1187
     16 N          -1.0134    2.1485   21.6714 N.ar    1  UNL1       -0.2409
     17 S           1.6912    1.7908   18.7892 S.O2    1  UNL1        0.0619
     18 O           0.8415    0.7359   18.1448 O.2     1  UNL1       -0.1529
     19 O           2.5408    2.8457   19.4336 O.2     1  UNL1       -0.1529
     20 N           2.8804    1.3070   18.0135 N.3     1  UNL1       -0.1723
     21 H           3.6396    1.9623   18.1993 H       1  UNL1        0.1491
     22 C           3.4262   -0.0686   18.2581 C.3     1  UNL1        0.1701
     23 C           3.7724   -0.9552   17.0988 C.3     1  UNL1        0.0278
     24 C           3.6257   -0.5577   19.6620 C.3     1  UNL1        0.4118
     25 F           3.8254   -1.0468   21.0660 F       1  UNL1       -0.1685
     26 F           4.6877    0.4806   19.8727 F       1  UNL1       -0.1685
     27 F           2.5639   -1.5959   19.4513 F       1  UNL1       -0.1685
     28 C          -1.8687    4.2134   24.2319 C.ar    1  UNL1        0.2369
     29 N          -0.9506    5.3994   24.2112 N.ar    1  UNL1       -0.2095
     30 C           0.2428    5.4401   25.1190 C.ar    1  UNL1        0.1037
     31 C           0.5180    4.2947   26.0476 C.ar    1  UNL1        0.0415
     32 C          -0.4001    3.1087   26.0683 C.ar    1  UNL1        0.1037
     33 N          -1.5934    3.0680   25.1605 N.ar    1  UNL1       -0.2095
     34 C          -6.2373    6.1905   27.4939 C.3     1  UNL1        0.0051
     35 C          -7.1168    5.9285   26.3074 C.3     1  UNL1        0.0287
     36 C          -4.9255    3.5097   19.9844 C.1     1  UNL1        0.1020
     37 N          -5.3840    3.1699   18.5971 N.1     1  UNL1       -0.1908
@<TRIPOS>BOND
     1    34    35    1
     2    35     1    1
     3     1     2   ar
     4     2     3   ar
     5     3     4   ar
     6     4     5   ar
     7     5     6   ar
     8     6     7    1
     9     4     8   ar
    10     8    36    1
    11    36    37    3
    12     8     9   ar
    13     9    11    1
    14    11    12   ar
    15    12    13   ar
    16    13    14   ar
    17    14    17    1
    18    17    18    2
    19    17    19    2
    20    17    20    1
    21    20    22    1
    22    22    23    1
    23    22    24    1
    24    24    25    1
    25    24    26    1
    26    24    27    1
    27    14    15   ar
    28    15    16   ar
    29     9    10   ar
    30    10    28    1
    31    28    29   ar
    32    29    30   ar
    33    30    31   ar
    34    31    32   ar
    35    32    33   ar
    36     6     1   ar
    37    16    11   ar
    38    33    28   ar
    39    10     3   ar
    40    20    21    1
