@<TRIPOS>MOLECULE
*****
 33 35 0 0 0
SMALL
GASTEIGER

@<TRIPOS>ATOM
      1 C          -6.7083  -15.8350   25.2312 C.3     1  UNL1        0.0949
      2 C          -6.1624  -15.1225   26.4330 C.3     1  UNL1        0.0233
      3 C          -7.1402  -15.2943   27.5575 C.3     1  UNL1        0.0233
      4 C          -8.2903  -16.1130   27.0507 C.3     1  UNL1        0.0935
      5 N          -8.0235  -16.4472   25.6129 N.am    1  UNL1       -0.2794
      6 C          -8.9151  -17.2522   24.7147 C.2     1  UNL1        0.2270
      7 O          -8.5142  -17.5060   23.2917 O.2     1  UNL1       -0.2748
      8 C          -6.0540  -15.9204   23.8841 C.3     1  UNL1        0.1082
      9 N          -5.7858  -17.2597   23.2641 N.pl3   1  UNL1       -0.3167
     10 H          -6.4591  -17.9752   23.3275 H       1  UNL1        0.1482
     11 C          -1.9039  -18.0071   21.1142 C.ar    1  UNL1        0.0877
     12 C          -2.9267  -19.0995   21.2170 C.ar    1  UNL1        0.0147
     13 C          -4.2207  -18.8503   21.9337 C.ar    1  UNL1        0.0348
     14 C          -4.4918  -17.5088   22.5475 C.ar    1  UNL1        0.1286
     15 N          -3.4690  -16.4165   22.4447 N.ar    1  UNL1       -0.2287
     16 C          -2.1751  -16.6656   21.7280 C.ar    1  UNL1        0.1105
     17 N           0.6840  -18.5054   19.6809 N.1     1  UNL1       -0.1908
     18 C          -0.6099  -18.2563   20.3976 C.1     1  UNL1        0.1020
     19 C         -10.2077  -17.8036   25.2394 C.3     1  UNL1        0.1010
     20 C         -10.6720  -19.1639   24.8105 C.3     1  UNL1        0.0644
     21 N         -10.0422  -20.3914   25.3991 N.3     1  UNL1       -0.3215
     22 H          -9.3227  -20.1169   26.0679 H       1  UNL1        0.1188
     23 H          -9.6207  -20.9473   24.6551 H       1  UNL1        0.1188
     24 C         -11.7661  -19.2966   23.7930 C.3     1  UNL1        0.0447
     25 C         -11.7059  -18.5063   22.5194 C.ar    1  UNL1        0.0090
     26 C         -10.8403  -18.9737   21.3871 C.ar    1  UNL1        0.0300
     27 C         -10.7800  -18.1834   20.1135 C.ar    1  UNL1        0.1672
     28 F          -9.9144  -18.6507   18.9811 F       1  UNL1       -0.2018
     29 C         -11.5853  -16.9259   19.9724 C.ar    1  UNL1        0.1696
     30 F         -11.5251  -16.1356   18.6989 F       1  UNL1       -0.2017
     31 C         -12.4510  -16.4585   21.1048 C.ar    1  UNL1        0.0612
     32 C         -12.5113  -17.2488   22.3783 C.ar    1  UNL1        0.1386
     33 F         -13.3769  -16.7815   23.5107 F       1  UNL1       -0.2044
@<TRIPOS>BOND
     1    17    18    3
     2    18    11    1
     3    11    12   ar
     4    12    13   ar
     5    13    14   ar
     6    14     9    1
     7     9     8    1
     8     1     8    1
     9     1     2    1
    10     2     3    1
    11     3     4    1
    12     4     5    1
    13     5     6   am
    14     6     7    2
    15     6    19    1
    16    19    20    1
    17    20    21    1
    18    20    24    1
    19    24    25    1
    20    25    26   ar
    21    26    27   ar
    22    27    28    1
    23    27    29   ar
    24    29    30    1
    25    29    31   ar
    26    31    32   ar
    27    32    33    1
    28    14    15   ar
    29    15    16   ar
    30    16    11   ar
    31     5     1    1
    32    32    25   ar
    33     9    10    1
    34    21    22    1
    35    21    23    1
@<TRIPOS>MOLECULE
*****
 33 35 0 0 0
SMALL
GASTEIGER

@<TRIPOS>ATOM
      1 C          -8.7006  -19.3091   20.0835 C.3     1  UNL1        0.0949
      2 C          -9.8075  -19.5238   19.0943 C.3     1  UNL1        0.0233
      3 C         -11.0736  -19.7675   19.8610 C.3     1  UNL1        0.0233
      4 C         -10.7490  -19.7035   21.3240 C.3     1  UNL1        0.0935
      5 N          -9.2824  -19.4201   21.4616 N.am    1  UNL1       -0.2794
      6 C          -8.5299  -19.2736   22.7508 C.2     1  UNL1        0.2270
      7 O          -7.0572  -18.9892   22.7315 O.2     1  UNL1       -0.2748
      8 C          -7.2640  -19.0320   19.7527 C.3     1  UNL1        0.1082
      9 N          -6.1906  -19.9631   20.2332 N.pl3   1  UNL1       -0.3167
     10 H          -6.4258  -20.8682   20.5413 H       1  UNL1        0.1482
     11 C          -1.8959  -18.6199   20.2668 C.ar    1  UNL1        0.0877
     12 C          -2.3633  -19.6625   21.2386 C.ar    1  UNL1        0.0147
     13 C          -3.7948  -20.1102   21.2274 C.ar    1  UNL1        0.0348
     14 C          -4.7591  -19.5154   20.2444 C.ar    1  UNL1        0.1286
     15 N          -4.2917  -18.4727   19.2726 N.ar    1  UNL1       -0.2287
     16 C          -2.8602  -18.0250   19.2838 C.ar    1  UNL1        0.1105
     17 N           0.9672  -17.7243   20.2892 N.1     1  UNL1       -0.1908
     18 C          -0.4644  -18.1721   20.2780 C.1     1  UNL1        0.1020
     19 C          -9.2499  -19.4113   24.0595 C.3     1  UNL1        0.1010
     20 C         -10.2907  -18.4053   24.4525 C.3     1  UNL1        0.0644
     21 N         -11.5922  -18.8635   25.0410 N.3     1  UNL1       -0.3215
     22 H         -11.5983  -19.8817   25.1012 H       1  UNL1        0.1188
     23 H         -12.3616  -18.5533   24.4476 H       1  UNL1        0.1188
     24 C         -10.0301  -16.9411   24.2571 C.3     1  UNL1        0.0447
     25 C          -8.7189  -16.3494   24.6821 C.ar    1  UNL1        0.0090
     26 C          -8.3775  -16.2515   26.1394 C.ar    1  UNL1        0.0300
     27 C          -7.0662  -15.6598   26.5645 C.ar    1  UNL1        0.1672
     28 F          -6.7248  -15.5618   28.0218 F       1  UNL1       -0.2018
     29 C          -6.0965  -15.1661   25.5321 C.ar    1  UNL1        0.1696
     30 F          -4.7852  -14.5745   25.9571 F       1  UNL1       -0.2017
     31 C          -6.4378  -15.2641   24.0747 C.ar    1  UNL1        0.0612
     32 C          -7.7491  -15.8557   23.6498 C.ar    1  UNL1        0.1386
     33 F          -8.0905  -15.9537   22.1924 F       1  UNL1       -0.2044
@<TRIPOS>BOND
     1    17    18    3
     2    18    11    1
     3    11    12   ar
     4    12    13   ar
     5    13    14   ar
     6    14     9    1
     7     9     8    1
     8     1     8    1
     9     1     2    1
    10     2     3    1
    11     3     4    1
    12     4     5    1
    13     5     6   am
    14     6     7    2
    15     6    19    1
    16    19    20    1
    17    20    21    1
    18    20    24    1
    19    24    25    1
    20    25    26   ar
    21    26    27   ar
    22    27    28    1
    23    27    29   ar
    24    29    30    1
    25    29    31   ar
    26    31    32   ar
    27    32    33    1
    28    14    15   ar
    29    15    16   ar
    30    16    11   ar
    31     5     1    1
    32    32    25   ar
    33     9    10    1
    34    21    22    1
    35    21    23    1
@<TRIPOS>MOLECULE
*****
 33 35 0 0 0
SMALL
GASTEIGER

@<TRIPOS>ATOM
      1 C         -11.1732  -18.7882   22.3648 C.3     1  UNL1        0.0949
      2 C         -12.2678  -18.0490   21.6540 C.3     1  UNL1        0.0233
      3 C         -11.7365  -17.5994   20.3252 C.3     1  UNL1        0.0233
      4 C         -10.3135  -18.0607   20.2148 C.3     1  UNL1        0.0935
      5 N          -9.9653  -18.7955   21.4754 N.am    1  UNL1       -0.2794
      6 C          -8.6418  -19.4267   21.7911 C.2     1  UNL1        0.2270
      7 O          -8.4401  -20.1317   23.0997 O.2     1  UNL1       -0.2748
      8 C         -11.2695  -19.4108   23.7261 C.3     1  UNL1        0.1082
      9 N         -11.1717  -18.5523   24.9521 N.pl3   1  UNL1       -0.3167
     10 H         -11.9072  -18.5429   25.6065 H       1  UNL1        0.1482
     11 C          -7.5163  -16.0193   25.6394 C.ar    1  UNL1        0.0877
     12 C          -8.2516  -15.9366   24.3347 C.ar    1  UNL1        0.0147
     13 C          -9.4701  -16.7809   24.1056 C.ar    1  UNL1        0.0348
     14 C          -9.9532  -17.7080   25.1812 C.ar    1  UNL1        0.1286
     15 N          -9.2179  -17.7907   26.4860 N.ar    1  UNL1       -0.2287
     16 C          -7.9994  -16.9464   26.7151 C.ar    1  UNL1        0.1105
     17 N          -5.0794  -14.3307   26.0976 N.1     1  UNL1       -0.1908
     18 C          -6.2978  -15.1750   25.8685 C.1     1  UNL1        0.1020
     19 C          -7.5198  -19.3530   20.7983 C.3     1  UNL1        0.1010
     20 C          -6.2616  -20.1365   21.0287 C.3     1  UNL1        0.0644
     21 N          -6.0080  -21.3937   20.2509 N.3     1  UNL1       -0.3215
     22 H          -6.7881  -21.5640   19.6162 H       1  UNL1        0.1188
     23 H          -5.9160  -22.1793   20.8950 H       1  UNL1        0.1188
     24 C          -5.2570  -19.6627   22.0369 C.3     1  UNL1        0.0447
     25 C          -4.0880  -18.8318   21.5975 C.ar    1  UNL1        0.0090
     26 C          -3.5587  -18.9617   20.2001 C.ar    1  UNL1        0.0300
     27 C          -2.3897  -18.1308   19.7606 C.ar    1  UNL1        0.1672
     28 F          -1.8603  -18.2606   18.3632 F       1  UNL1       -0.2018
     29 C          -1.7501  -17.1700   20.7187 C.ar    1  UNL1        0.1696
     30 F          -0.5811  -16.3391   20.2793 F       1  UNL1       -0.2017
     31 C          -2.2795  -17.0401   22.1162 C.ar    1  UNL1        0.0612
     32 C          -3.4485  -17.8711   22.5556 C.ar    1  UNL1        0.1386
     33 F          -3.9779  -17.7413   23.9530 F       1  UNL1       -0.2044
@<TRIPOS>BOND
     1    17    18    3
     2    18    11    1
     3    11    12   ar
     4    12    13   ar
     5    13    14   ar
     6    14     9    1
     7     9     8    1
     8     1     8    1
     9     1     2    1
    10     2     3    1
    11     3     4    1
    12     4     5    1
    13     5     6   am
    14     6     7    2
    15     6    19    1
    16    19    20    1
    17    20    21    1
    18    20    24    1
    19    24    25    1
    20    25    26   ar
    21    26    27   ar
    22    27    28    1
    23    27    29   ar
    24    29    30    1
    25    29    31   ar
    26    31    32   ar
    27    32    33    1
    28    14    15   ar
    29    15    16   ar
    30    16    11   ar
    31     5     1    1
    32    32    25   ar
    33     9    10    1
    34    21    22    1
    35    21    23    1
@<TRIPOS>MOLECULE
*****
 33 35 0 0 0
SMALL
GASTEIGER

@<TRIPOS>ATOM
      1 C         -10.9603  -18.3697   20.1088 C.3     1  UNL1        0.0949
      2 C         -11.3441  -17.1739   19.2886 C.3     1  UNL1        0.0233
      3 C         -11.8369  -16.1094   20.2234 C.3     1  UNL1        0.0233
      4 C         -11.7577  -16.6472   21.6214 C.3     1  UNL1        0.0935
      5 N         -11.2160  -18.0442   21.5507 N.am    1  UNL1       -0.2794
      6 C         -10.9726  -18.9556   22.7168 C.2     1  UNL1        0.2270
      7 O         -10.4241  -20.3333   22.4903 O.2     1  UNL1       -0.2748
      8 C         -10.4165  -19.6638   19.5801 C.3     1  UNL1        0.1082
      9 N          -8.9945  -19.7432   19.1092 N.pl3   1  UNL1       -0.3167
     10 H          -8.7980  -19.9866   18.1758 H       1  UNL1        0.1482
     11 C          -5.6271  -18.8685   21.9633 C.ar    1  UNL1        0.0877
     12 C          -5.5537  -20.0641   21.0604 C.ar    1  UNL1        0.0147
     13 C          -6.6761  -20.3557   20.1091 C.ar    1  UNL1        0.0348
     14 C          -7.8721  -19.4516   20.0606 C.ar    1  UNL1        0.1286
     15 N          -7.9455  -18.2560   20.9634 N.ar    1  UNL1       -0.2287
     16 C          -6.8230  -17.9645   21.9147 C.ar    1  UNL1        0.1105
     17 N          -3.3822  -18.2854   23.8659 N.1     1  UNL1       -0.1908
     18 C          -4.5046  -18.5770   22.9146 C.1     1  UNL1        0.1020
     19 C         -11.2776  -18.4895   24.1095 C.3     1  UNL1        0.1010
     20 C         -10.1827  -17.9340   24.9713 C.3     1  UNL1        0.0644
     21 N          -9.4924  -18.8167   25.9685 N.3     1  UNL1       -0.3215
     22 H          -9.8909  -19.7546   25.9256 H       1  UNL1        0.1188
     23 H          -9.6203  -18.4355   26.9059 H       1  UNL1        0.1188
     24 C          -9.7782  -16.4960   24.8359 C.3     1  UNL1        0.0447
     25 C          -8.3865  -16.0709   25.1999 C.ar    1  UNL1        0.0090
     26 C          -7.3995  -15.7333   24.1221 C.ar    1  UNL1        0.0300
     27 C          -6.0077  -15.3082   24.4859 C.ar    1  UNL1        0.1672
     28 F          -5.0206  -14.9706   23.4082 F       1  UNL1       -0.2018
     29 C          -5.6031  -15.2206   25.9277 C.ar    1  UNL1        0.1696
     30 F          -4.2115  -14.7955   26.2916 F       1  UNL1       -0.2017
     31 C          -6.5902  -15.5582   27.0056 C.ar    1  UNL1        0.0612
     32 C          -7.9819  -15.9833   26.6416 C.ar    1  UNL1        0.1386
     33 F          -8.9691  -16.3209   27.7194 F       1  UNL1       -0.2044
@<TRIPOS>BOND
     1    17    18    3
     2    18    11    1
     3    11    12   ar
     4    12    13   ar
     5    13    14   ar
     6    14     9    1
     7     9     8    1
     8     1     8    1
     9     1     2    1
    10     2     3    1
    11     3     4    1
    12     4     5    1
    13     5     6   am
    14     6     7    2
    15     6    19    1
    16    19    20    1
    17    20    21    1
    18    20    24    1
    19    24    25    1
    20    25    26   ar
    21    26    27   ar
    22    27    28    1
    23    27    29   ar
    24    29    30    1
    25    29    31   ar
    26    31    32   ar
    27    32    33    1
    28    14    15   ar
    29    15    16   ar
    30    16    11   ar
    31     5     1    1
    32    32    25   ar
    33     9    10    1
    34    21    22    1
    35    21    23    1
@<TRIPOS>MOLECULE
*****
 33 35 0 0 0
SMALL
GASTEIGER

@<TRIPOS>ATOM
      1 C         -10.4287  -19.5394   21.2031 C.3     1  UNL1        0.0949
      2 C         -10.8530  -19.1397   19.8211 C.3     1  UNL1        0.0233
      3 C          -9.6262  -19.0731   18.9605 C.3     1  UNL1        0.0233
      4 C          -8.4436  -19.4318   19.8108 C.3     1  UNL1        0.0935
      5 N          -8.9395  -19.7200   21.1968 N.am    1  UNL1       -0.2794
      6 C          -8.0948  -20.1188   22.3703 C.2     1  UNL1        0.2270
      7 O          -8.7349  -20.3758   23.7024 O.2     1  UNL1       -0.2748
      8 C         -11.3344  -19.7259   22.3842 C.3     1  UNL1        0.1082
      9 N         -11.7169  -18.5473   23.2295 N.pl3   1  UNL1       -0.3167
     10 H         -12.6523  -18.2412   23.2528 H       1  UNL1        0.1482
     11 C          -8.5889  -16.4110   25.6588 C.ar    1  UNL1        0.0877
     12 C          -9.0144  -15.8579   24.3311 C.ar    1  UNL1        0.0147
     13 C         -10.0571  -16.5700   23.5213 C.ar    1  UNL1        0.0348
     14 C         -10.6742  -17.8352   24.0393 C.ar    1  UNL1        0.1286
     15 N         -10.2487  -18.3883   25.3670 N.ar    1  UNL1       -0.2287
     16 C          -9.2061  -17.6762   26.1768 C.ar    1  UNL1        0.1105
     17 N          -6.5035  -14.9868   27.2784 N.1     1  UNL1       -0.1908
     18 C          -7.5462  -15.6989   26.4686 C.1     1  UNL1        0.1020
     19 C          -6.6099  -20.2606   22.2120 C.3     1  UNL1        0.1010
     20 C          -5.7188  -19.0678   22.3944 C.3     1  UNL1        0.0644
     21 N          -6.3163  -17.6981   22.5233 N.3     1  UNL1       -0.3215
     22 H          -7.3325  -17.7636   22.4653 H       1  UNL1        0.1188
     23 H          -5.9703  -17.1039   21.7699 H       1  UNL1        0.1188
     24 C          -4.2303  -19.2449   22.4479 C.3     1  UNL1        0.0447
     25 C          -3.3816  -18.8142   21.2885 C.ar    1  UNL1        0.0090
     26 C          -2.3929  -17.6988   21.4563 C.ar    1  UNL1        0.0300
     27 C          -1.5442  -17.2680   20.2969 C.ar    1  UNL1        0.1672
     28 F          -0.5555  -16.1525   20.4647 F       1  UNL1       -0.2018
     29 C          -1.6842  -17.9527   18.9697 C.ar    1  UNL1        0.1696
     30 F          -0.8356  -17.5220   17.8103 F       1  UNL1       -0.2017
     31 C          -2.6730  -19.0683   18.8018 C.ar    1  UNL1        0.0612
     32 C          -3.5216  -19.4990   19.9613 C.ar    1  UNL1        0.1386
     33 F          -4.5104  -20.6144   19.7935 F       1  UNL1       -0.2044
@<TRIPOS>BOND
     1    17    18    3
     2    18    11    1
     3    11    12   ar
     4    12    13   ar
     5    13    14   ar
     6    14     9    1
     7     9     8    1
     8     1     8    1
     9     1     2    1
    10     2     3    1
    11     3     4    1
    12     4     5    1
    13     5     6   am
    14     6     7    2
    15     6    19    1
    16    19    20    1
    17    20    21    1
    18    20    24    1
    19    24    25    1
    20    25    26   ar
    21    26    27   ar
    22    27    28    1
    23    27    29   ar
    24    29    30    1
    25    29    31   ar
    26    31    32   ar
    27    32    33    1
    28    14    15   ar
    29    15    16   ar
    30    16    11   ar
    31     5     1    1
    32    32    25   ar
    33     9    10    1
    34    21    22    1
    35    21    23    1
@<TRIPOS>MOLECULE
*****
 33 35 0 0 0
SMALL
GASTEIGER

@<TRIPOS>ATOM
      1 C         -10.9256  -18.6452   20.8570 C.3     1  UNL1        0.0949
      2 C         -11.8049  -17.6455   20.1660 C.3     1  UNL1        0.0233
      3 C         -12.4992  -16.8331   21.2186 C.3     1  UNL1        0.0233
      4 C         -12.0491  -17.3307   22.5602 C.3     1  UNL1        0.0935
      5 N         -11.0765  -18.4507   22.3367 N.am    1  UNL1       -0.2794
      6 C         -10.3776  -19.2378   23.4053 C.2     1  UNL1        0.2270
      7 O          -9.4268  -20.3350   23.0280 O.2     1  UNL1       -0.2748
      8 C         -10.0493  -19.6611   20.1862 C.3     1  UNL1        0.1082
      9 N          -8.9067  -19.2133   19.3236 N.pl3   1  UNL1       -0.3167
     10 H          -9.0841  -18.7805   18.4573 H       1  UNL1        0.1482
     11 C          -4.6683  -19.8480   20.6957 C.ar    1  UNL1        0.0877
     12 C          -5.4386  -20.9837   20.0902 C.ar    1  UNL1        0.0147
     13 C          -6.8514  -20.7721   19.6328 C.ar    1  UNL1        0.0348
     14 C          -7.4939  -19.4248   19.7810 C.ar    1  UNL1        0.1286
     15 N          -6.7236  -18.2891   20.3866 N.ar    1  UNL1       -0.2287
     16 C          -5.3108  -18.5007   20.8440 C.ar    1  UNL1        0.1105
     17 N          -1.8426  -20.2711   21.6105 N.1     1  UNL1       -0.1908
     18 C          -3.2554  -20.0596   21.1531 C.1     1  UNL1        0.1020
     19 C         -10.6294  -18.9280   24.8511 C.3     1  UNL1        0.1010
     20 C          -9.8607  -17.8324   25.5284 C.3     1  UNL1        0.0644
     21 N          -9.2973  -18.0498   26.9015 N.3     1  UNL1       -0.3215
     22 H          -9.5302  -18.9905   27.2195 H       1  UNL1        0.1188
     23 H          -9.6952  -17.3653   27.5446 H       1  UNL1        0.1188
     24 C          -9.6554  -16.5195   24.8327 C.3     1  UNL1        0.0447
     25 C          -8.2721  -16.0791   24.4549 C.ar    1  UNL1        0.0090
     26 C          -7.2693  -15.7583   25.5232 C.ar    1  UNL1        0.0300
     27 C          -5.8860  -15.3179   25.1455 C.ar    1  UNL1        0.1672
     28 F          -4.8831  -14.9970   26.2137 F       1  UNL1       -0.2018
     29 C          -5.5057  -15.1984   23.6994 C.ar    1  UNL1        0.1696
     30 F          -4.1224  -14.7580   23.3216 F       1  UNL1       -0.2017
     31 C          -6.5086  -15.5192   22.6310 C.ar    1  UNL1        0.0612
     32 C          -7.8918  -15.9596   23.0088 C.ar    1  UNL1        0.1386
     33 F          -8.8947  -16.2804   21.9406 F       1  UNL1       -0.2044
@<TRIPOS>BOND
     1    17    18    3
     2    18    11    1
     3    11    12   ar
     4    12    13   ar
     5    13    14   ar
     6    14     9    1
     7     9     8    1
     8     1     8    1
     9     1     2    1
    10     2     3    1
    11     3     4    1
    12     4     5    1
    13     5     6   am
    14     6     7    2
    15     6    19    1
    16    19    20    1
    17    20    21    1
    18    20    24    1
    19    24    25    1
    20    25    26   ar
    21    26    27   ar
    22    27    28    1
    23    27    29   ar
    24    29    30    1
    25    29    31   ar
    26    31    32   ar
    27    32    33    1
    28    14    15   ar
    29    15    16   ar
    30    16    11   ar
    31     5     1    1
    32    32    25   ar
    33     9    10    1
    34    21    22    1
    35    21    23    1
@<TRIPOS>MOLECULE
*****
 33 35 0 0 0
SMALL
GASTEIGER

@<TRIPOS>ATOM
      1 C         -11.2651   -6.5045   17.9831 C.3     1  UNL1        0.0949
      2 C         -10.3920   -7.2090   18.9788 C.3     1  UNL1        0.0233
      3 C          -9.2359   -6.3089   19.3002 C.3     1  UNL1        0.0233
      4 C          -9.3944   -5.0482   18.5030 C.3     1  UNL1        0.0935
      5 N         -10.6486   -5.1690   17.6889 N.am    1  UNL1       -0.2794
      6 C         -11.1909   -4.1360   16.7464 C.2     1  UNL1        0.2270
      7 O         -12.4633   -4.3989   15.9968 O.2     1  UNL1       -0.2748
      8 C         -12.5323   -7.0413   17.3862 C.3     1  UNL1        0.1082
      9 N         -13.1522   -8.2897   17.9403 N.pl3   1  UNL1       -0.3167
     10 H         -12.6570   -9.1401   17.9110 H       1  UNL1        0.1482
     11 C         -17.2759   -8.1482   19.7363 C.ar    1  UNL1        0.0877
     12 C         -16.5827   -6.8758   19.3484 C.ar    1  UNL1        0.0147
     13 C         -15.2081   -6.9230   18.7497 C.ar    1  UNL1        0.0348
     14 C         -14.5268   -8.2425   18.5389 C.ar    1  UNL1        0.1286
     15 N         -15.2199   -9.5149   18.9268 N.ar    1  UNL1       -0.2287
     16 C         -16.5945   -9.4678   19.5255 C.ar    1  UNL1        0.1105
     17 N         -20.0249   -8.0539   20.9336 N.1     1  UNL1       -0.1908
     18 C         -18.6504   -8.1011   20.3350 C.1     1  UNL1        0.1020
     19 C         -10.4609   -2.8399   16.5533 C.3     1  UNL1        0.1010
     20 C         -11.0789   -1.5544   17.0178 C.3     1  UNL1        0.0644
     21 N         -11.3054   -0.4363   16.0439 N.3     1  UNL1       -0.3215
     22 H         -10.9831   -0.7207   15.1189 H       1  UNL1        0.1188
     23 H         -10.7865    0.3882   16.3462 H       1  UNL1        0.1188
     24 C         -11.4703   -1.3872   18.4561 C.3     1  UNL1        0.0447
     25 C         -12.7459   -1.9933   18.9616 C.ar    1  UNL1        0.0090
     26 C         -12.7031   -3.2187   19.8255 C.ar    1  UNL1        0.0300
     27 C         -13.9787   -3.8249   20.3311 C.ar    1  UNL1        0.1672
     28 F         -13.9360   -5.0503   21.1950 F       1  UNL1       -0.2018
     29 C         -15.2970   -3.2055   19.9727 C.ar    1  UNL1        0.1696
     30 F         -16.5726   -3.8116   20.4782 F       1  UNL1       -0.2017
     31 C         -15.3398   -1.9800   19.1087 C.ar    1  UNL1        0.0612
     32 C         -14.0642   -1.3739   18.6032 C.ar    1  UNL1        0.1386
     33 F         -14.1069   -0.1484   17.7393 F       1  UNL1       -0.2044
@<TRIPOS>BOND
     1    17    18    3
     2    18    11    1
     3    11    12   ar
     4    12    13   ar
     5    13    14   ar
     6    14     9    1
     7     9     8    1
     8     1     8    1
     9     1     2    1
    10     2     3    1
    11     3     4    1
    12     4     5    1
    13     5     6   am
    14     6     7    2
    15     6    19    1
    16    19    20    1
    17    20    21    1
    18    20    24    1
    19    24    25    1
    20    25    26   ar
    21    26    27   ar
    22    27    28    1
    23    27    29   ar
    24    29    30    1
    25    29    31   ar
    26    31    32   ar
    27    32    33    1
    28    14    15   ar
    29    15    16   ar
    30    16    11   ar
    31     5     1    1
    32    32    25   ar
    33     9    10    1
    34    21    22    1
    35    21    23    1
@<TRIPOS>MOLECULE
*****
 33 35 0 0 0
SMALL
GASTEIGER

@<TRIPOS>ATOM
      1 C         -11.5400   -6.8953   17.0750 C.3     1  UNL1        0.0949
      2 C         -10.6531   -7.9160   17.7241 C.3     1  UNL1        0.0233
      3 C          -9.6202   -7.1867   18.5311 C.3     1  UNL1        0.0233
      4 C          -9.8689   -5.7151   18.3808 C.3     1  UNL1        0.0935
      5 N         -11.0554   -5.5349   17.4809 N.am    1  UNL1       -0.2794
      6 C         -11.6524   -4.2247   17.0607 C.2     1  UNL1        0.2270
      7 O         -12.8454   -4.2012   16.1516 O.2     1  UNL1       -0.2748
      8 C         -12.7068   -7.1841   16.1776 C.3     1  UNL1        0.1082
      9 N         -13.5327   -8.4172   16.3947 N.pl3   1  UNL1       -0.3167
     10 H         -13.2805   -9.2620   15.9566 H       1  UNL1        0.1482
     11 C         -17.1633   -8.2552   19.0484 C.ar    1  UNL1        0.0877
     12 C         -17.1873   -7.5918   17.7034 C.ar    1  UNL1        0.0147
     13 C         -15.9771   -7.6458   16.8188 C.ar    1  UNL1        0.0348
     14 C         -14.7429   -8.3632   17.2793 C.ar    1  UNL1        0.1286
     15 N         -14.7189   -9.0266   18.6244 N.ar    1  UNL1       -0.2287
     16 C         -15.9292   -8.9725   19.5089 C.ar    1  UNL1        0.1105
     17 N         -19.5837   -8.1472   20.8176 N.1     1  UNL1       -0.1908
     18 C         -18.3735   -8.2012   19.9330 C.1     1  UNL1        0.1020
     19 C         -11.0566   -2.9378   17.5494 C.3     1  UNL1        0.1010
     20 C         -11.8138   -2.0818   18.5210 C.3     1  UNL1        0.0644
     21 N         -12.0018   -0.6196   18.2441 N.3     1  UNL1       -0.3215
     22 H         -11.5534   -0.3807   17.3596 H       1  UNL1        0.1188
     23 H         -11.5814   -0.0743   18.9966 H       1  UNL1        0.1188
     24 C         -12.3830   -2.6880   19.7694 C.3     1  UNL1        0.0447
     25 C         -13.7837   -3.2248   19.7713 C.ar    1  UNL1        0.0090
     26 C         -14.9464   -2.2869   19.6356 C.ar    1  UNL1        0.0300
     27 C         -16.3471   -2.8237   19.6375 C.ar    1  UNL1        0.1672
     28 F         -17.5099   -1.8858   19.5018 F       1  UNL1       -0.2018
     29 C         -16.5850   -4.2983   19.7751 C.ar    1  UNL1        0.1696
     30 F         -17.9856   -4.8351   19.7770 F       1  UNL1       -0.2017
     31 C         -15.4222   -5.2362   19.9108 C.ar    1  UNL1        0.0612
     32 C         -14.0215   -4.6994   19.9089 C.ar    1  UNL1        0.1386
     33 F         -12.8588   -5.6372   20.0446 F       1  UNL1       -0.2044
@<TRIPOS>BOND
     1    17    18    3
     2    18    11    1
     3    11    12   ar
     4    12    13   ar
     5    13    14   ar
     6    14     9    1
     7     9     8    1
     8     1     8    1
     9     1     2    1
    10     2     3    1
    11     3     4    1
    12     4     5    1
    13     5     6   am
    14     6     7    2
    15     6    19    1
    16    19    20    1
    17    20    21    1
    18    20    24    1
    19    24    25    1
    20    25    26   ar
    21    26    27   ar
    22    27    28    1
    23    27    29   ar
    24    29    30    1
    25    29    31   ar
    26    31    32   ar
    27    32    33    1
    28    14    15   ar
    29    15    16   ar
    30    16    11   ar
    31     5     1    1
    32    32    25   ar
    33     9    10    1
    34    21    22    1
    35    21    23    1
@<TRIPOS>MOLECULE
*****
 33 35 0 0 0
SMALL
GASTEIGER

@<TRIPOS>ATOM
      1 C         -13.7256   -0.3303   17.5708 C.3     1  UNL1        0.0949
      2 C         -13.7750    1.0373   18.1850 C.3     1  UNL1        0.0233
      3 C         -15.0317    1.1351   18.9982 C.3     1  UNL1        0.0233
      4 C         -15.7590   -0.1720   18.8865 C.3     1  UNL1        0.0935
      5 N         -14.9519   -1.0777   18.0044 N.am    1  UNL1       -0.2794
      6 C         -15.3083   -2.4838   17.6228 C.2     1  UNL1        0.2270
      7 O         -14.3981   -3.2717   16.7277 O.2     1  UNL1       -0.2748
      8 C         -12.6406   -0.8579   16.6795 C.3     1  UNL1        0.1082
      9 N         -11.2748   -1.1260   17.2387 N.pl3   1  UNL1       -0.3167
     10 H         -10.6551   -0.3790   17.4037 H       1  UNL1        0.1482
     11 C         -10.0099   -5.3447   18.1621 C.ar    1  UNL1        0.0877
     12 C         -11.0647   -4.6786   18.9950 C.ar    1  UNL1        0.0147
     13 C         -11.4863   -3.2724   18.6872 C.ar    1  UNL1        0.0348
     14 C         -10.8532   -2.5322   17.5465 C.ar    1  UNL1        0.1286
     15 N          -9.7984   -3.1983   16.7136 N.ar    1  UNL1       -0.2287
     16 C          -9.3768   -4.6045   17.0214 C.ar    1  UNL1        0.1105
     17 N          -9.1667   -8.1572   18.7778 N.1     1  UNL1       -0.1908
     18 C          -9.5883   -6.7509   18.4699 C.1     1  UNL1        0.1020
     19 C         -16.5748   -3.1023   18.1361 C.3     1  UNL1        0.1010
     20 C         -16.6416   -3.6164   19.5436 C.3     1  UNL1        0.0644
     21 N         -17.7727   -3.2057   20.4391 N.3     1  UNL1       -0.3215
     22 H         -18.3982   -2.5800   19.9315 H       1  UNL1        0.1188
     23 H         -17.4007   -2.7241   21.2576 H       1  UNL1        0.1188
     24 C         -15.5774   -4.5413   20.0556 C.3     1  UNL1        0.0447
     25 C         -15.4116   -5.9030   19.4487 C.ar    1  UNL1        0.0090
     26 C         -14.0816   -6.3203   18.8950 C.ar    1  UNL1        0.0300
     27 C         -13.9157   -7.6820   18.2880 C.ar    1  UNL1        0.1672
     28 F         -12.5856   -8.0994   17.7342 F       1  UNL1       -0.2018
     29 C         -15.0799   -8.6262   18.2349 C.ar    1  UNL1        0.1696
     30 F         -14.9142   -9.9879   17.6280 F       1  UNL1       -0.2017
     31 C         -16.4101   -8.2089   18.7887 C.ar    1  UNL1        0.0612
     32 C         -16.5759   -6.8472   19.3956 C.ar    1  UNL1        0.1386
     33 F         -17.9059   -6.4298   19.9494 F       1  UNL1       -0.2044
@<TRIPOS>BOND
     1    17    18    3
     2    18    11    1
     3    11    12   ar
     4    12    13   ar
     5    13    14   ar
     6    14     9    1
     7     9     8    1
     8     1     8    1
     9     1     2    1
    10     2     3    1
    11     3     4    1
    12     4     5    1
    13     5     6   am
    14     6     7    2
    15     6    19    1
    16    19    20    1
    17    20    21    1
    18    20    24    1
    19    24    25    1
    20    25    26   ar
    21    26    27   ar
    22    27    28    1
    23    27    29   ar
    24    29    30    1
    25    29    31   ar
    26    31    32   ar
    27    32    33    1
    28    14    15   ar
    29    15    16   ar
    30    16    11   ar
    31     5     1    1
    32    32    25   ar
    33     9    10    1
    34    21    22    1
    35    21    23    1
