@<TRIPOS>MOLECULE
*****
 21 23 0 0 0
SMALL
GASTEIGER

@<TRIPOS>ATOM
      1 C          -8.9589  -17.1001   23.6231 C.3     1  UNL1        0.0475
      2 C          -8.0848  -17.7836   22.6137 C.2     1  UNL1        0.0019
      3 C          -6.5872  -17.8590   22.6513 C.2     1  UNL1        0.0945
      4 N          -6.1318  -18.6338   21.4503 N.2     1  UNL1       -0.2481
      5 C          -7.3480  -19.0373   20.6705 C.2     1  UNL1        0.0631
      6 C          -7.5123  -19.8153   19.3986 C.3     1  UNL1        0.0717
      7 C          -8.8836  -20.0678   18.8458 C.2     1  UNL1       -0.0198
      8 C         -10.0906  -19.5424   19.5648 C.2     1  UNL1       -0.0042
      9 C          -9.9264  -18.7644   20.8367 C.2     1  UNL1        0.0006
     10 C          -8.5551  -18.5119   21.3895 C.2     1  UNL1        0.0117
     11 C         -10.4438  -17.3094   23.5936 C.ar    1  UNL1       -0.0183
     12 C         -11.0571  -18.4420   24.3626 C.ar    1  UNL1       -0.0040
     13 C         -12.5421  -18.6513   24.3331 C.ar    1  UNL1       -0.0003
     14 C         -13.4139  -17.7280   23.5347 C.ar    1  UNL1       -0.0000
     15 C         -12.8007  -16.5955   22.7657 C.ar    1  UNL1       -0.0003
     16 C         -11.3157  -16.3861   22.7952 C.ar    1  UNL1       -0.0040
     17 C          -8.3478  -16.2071   24.6620 C.3     1  UNL1        0.0259
     18 C          -7.7394  -14.8962   24.2604 C.3     1  UNL1        0.0693
     19 C          -5.5108  -15.5077   25.4475 C.3     1  UNL1        0.0859
     20 N          -6.4092  -14.4846   24.8182 N.3     1  UNL1       -0.2963
     21 H          -5.8851  -14.0648   24.0504 H       1  UNL1        0.1233
@<TRIPOS>BOND
     1    19    20    1
     2    20    18    1
     3    18    17    1
     4    17     1    1
     5     1    11    1
     6    11    12   ar
     7    12    13   ar
     8    13    14   ar
     9    14    15   ar
    10    15    16   ar
    11     1     2    1
    12     2     3    2
    13     3     4    1
    14     4     5    2
    15     5     6    1
    16     6     7    1
    17     7     8    2
    18     8     9    1
    19     9    10    2
    20    16    11   ar
    21    10     2    1
    22    10     5    1
    23    20    21    1
@<TRIPOS>MOLECULE
*****
 21 23 0 0 0
SMALL
GASTEIGER

@<TRIPOS>ATOM
      1 C          -7.7360  -16.8533   23.3161 C.3     1  UNL1        0.0475
      2 C          -9.0841  -16.5915   22.7126 C.2     1  UNL1        0.0019
      3 C          -9.3732  -15.6650   21.5690 C.2     1  UNL1        0.0945
      4 N         -10.8475  -15.7111   21.2964 N.2     1  UNL1       -0.2481
      5 C         -11.4695  -16.6662   22.2716 C.2     1  UNL1        0.0631
      6 C         -12.8875  -17.1106   22.4756 C.3     1  UNL1        0.0717
      7 C         -13.2157  -18.0992   23.5549 C.2     1  UNL1       -0.0198
      8 C         -12.1258  -18.6433   24.4302 C.2     1  UNL1       -0.0042
      9 C         -10.7078  -18.1989   24.2262 C.2     1  UNL1        0.0006
     10 C         -10.3797  -17.2103   23.1469 C.2     1  UNL1        0.0117
     11 C          -7.3722  -16.2378   24.6347 C.ar    1  UNL1       -0.0183
     12 C          -5.9749  -15.7472   24.8733 C.ar    1  UNL1       -0.0040
     13 C          -5.6110  -15.1316   26.1919 C.ar    1  UNL1       -0.0003
     14 C          -6.6444  -15.0068   27.2719 C.ar    1  UNL1       -0.0000
     15 C          -8.0417  -15.4974   27.0333 C.ar    1  UNL1       -0.0003
     16 C          -8.4056  -16.1129   25.7148 C.ar    1  UNL1       -0.0040
     17 C          -6.7517  -17.7307   22.6010 C.3     1  UNL1        0.0259
     18 C          -7.2005  -18.5734   21.4440 C.3     1  UNL1        0.0693
     19 C          -5.1609  -19.2348   19.9769 C.3     1  UNL1        0.0859
     20 N          -6.4636  -18.5090   20.1391 N.3     1  UNL1       -0.2963
     21 H          -7.0949  -18.8743   19.4261 H       1  UNL1        0.1233
@<TRIPOS>BOND
     1    19    20    1
     2    20    18    1
     3    18    17    1
     4    17     1    1
     5     1    11    1
     6    11    12   ar
     7    12    13   ar
     8    13    14   ar
     9    14    15   ar
    10    15    16   ar
    11     1     2    1
    12     2     3    2
    13     3     4    1
    14     4     5    2
    15     5     6    1
    16     6     7    1
    17     7     8    2
    18     8     9    1
    19     9    10    2
    20    16    11   ar
    21    10     2    1
    22    10     5    1
    23    20    21    1
@<TRIPOS>MOLECULE
*****
 21 23 0 0 0
SMALL
GASTEIGER

@<TRIPOS>ATOM
      1 C          -8.2239  -17.3580   22.5361 C.3     1  UNL1        0.0475
      2 C          -7.4340  -18.3359   21.7177 C.2     1  UNL1        0.0019
      3 C          -7.9690  -19.1919   20.6082 C.2     1  UNL1        0.0945
      4 N          -6.8361  -20.0145   20.0699 N.2     1  UNL1       -0.2481
      5 C          -5.6008  -19.6669   20.8467 C.2     1  UNL1        0.0631
      6 C          -4.1874  -20.1610   20.7583 C.3     1  UNL1        0.0717
      7 C          -3.1434  -19.6177   21.6883 C.2     1  UNL1       -0.0198
      8 C          -3.5130  -18.5802   22.7067 C.2     1  UNL1       -0.0042
      9 C          -4.9265  -18.0861   22.7951 C.2     1  UNL1        0.0006
     10 C          -5.9704  -18.6294   21.8651 C.2     1  UNL1        0.0117
     11 C          -9.5702  -17.7441   23.0727 C.ar    1  UNL1       -0.0183
     12 C         -10.8030  -17.0472   22.5779 C.ar    1  UNL1       -0.0040
     13 C         -12.1494  -17.4333   23.1145 C.ar    1  UNL1       -0.0003
     14 C         -12.2632  -18.5164   24.1460 C.ar    1  UNL1       -0.0000
     15 C         -11.0306  -19.2133   24.6408 C.ar    1  UNL1       -0.0003
     16 C          -9.6841  -18.8272   24.1042 C.ar    1  UNL1       -0.0040
     17 C          -7.6673  -15.9938   22.8179 C.3     1  UNL1        0.0259
     18 C          -7.7961  -15.3998   24.1892 C.3     1  UNL1        0.0693
     19 C          -5.5432  -15.2494   25.4742 C.3     1  UNL1        0.0859
     20 N          -6.6779  -14.5782   24.7587 N.3     1  UNL1       -0.2963
     21 H          -6.2697  -14.0579   23.9821 H       1  UNL1        0.1233
@<TRIPOS>BOND
     1    19    20    1
     2    20    18    1
     3    18    17    1
     4    17     1    1
     5     1    11    1
     6    11    12   ar
     7    12    13   ar
     8    13    14   ar
     9    14    15   ar
    10    15    16   ar
    11     1     2    1
    12     2     3    2
    13     3     4    1
    14     4     5    2
    15     5     6    1
    16     6     7    1
    17     7     8    2
    18     8     9    1
    19     9    10    2
    20    16    11   ar
    21    10     2    1
    22    10     5    1
    23    20    21    1
@<TRIPOS>MOLECULE
*****
 21 23 0 0 0
SMALL
GASTEIGER

@<TRIPOS>ATOM
      1 C          -7.7840  -17.3881   22.8920 C.3     1  UNL1        0.0475
      2 C          -9.1547  -17.7741   23.3634 C.2     1  UNL1        0.0019
      3 C          -9.4819  -18.4569   24.6583 C.2     1  UNL1        0.0945
      4 N         -10.9682  -18.6500   24.7179 N.2     1  UNL1       -0.2481
      5 C         -11.5596  -18.0865   23.4598 C.2     1  UNL1        0.0631
      6 C         -12.9739  -17.9964   22.9683 C.3     1  UNL1        0.0717
      7 C         -13.2674  -17.3650   21.6397 C.2     1  UNL1       -0.0198
      8 C         -12.1466  -16.8237   20.8026 C.2     1  UNL1       -0.0042
      9 C         -10.7323  -16.9138   21.2941 C.2     1  UNL1        0.0006
     10 C         -10.4388  -17.5452   22.6227 C.2     1  UNL1        0.0117
     11 C          -6.9534  -18.3681   22.1178 C.ar    1  UNL1       -0.0183
     12 C          -5.5002  -18.5433   22.4457 C.ar    1  UNL1       -0.0040
     13 C          -4.6695  -19.5234   21.6715 C.ar    1  UNL1       -0.0003
     14 C          -5.2921  -20.3283   20.5693 C.ar    1  UNL1       -0.0000
     15 C          -6.7453  -20.1531   20.2415 C.ar    1  UNL1       -0.0003
     16 C          -7.5759  -19.1730   21.0157 C.ar    1  UNL1       -0.0040
     17 C          -7.2439  -16.0217   23.1949 C.3     1  UNL1        0.0259
     18 C          -7.4938  -15.3967   24.5353 C.3     1  UNL1        0.0693
     19 C          -5.4334  -15.2526   26.1112 C.3     1  UNL1        0.0859
     20 N          -6.4187  -14.5866   25.1972 N.3     1  UNL1       -0.2963
     21 H          -5.8787  -14.1485   24.4510 H       1  UNL1        0.1233
@<TRIPOS>BOND
     1    19    20    1
     2    20    18    1
     3    18    17    1
     4    17     1    1
     5     1    11    1
     6    11    12   ar
     7    12    13   ar
     8    13    14   ar
     9    14    15   ar
    10    15    16   ar
    11     1     2    1
    12     2     3    2
    13     3     4    1
    14     4     5    2
    15     5     6    1
    16     6     7    1
    17     7     8    2
    18     8     9    1
    19     9    10    2
    20    16    11   ar
    21    10     2    1
    22    10     5    1
    23    20    21    1
@<TRIPOS>MOLECULE
*****
 21 23 0 0 0
SMALL
GASTEIGER

@<TRIPOS>ATOM
      1 C          -8.1856  -19.3744   21.1489 C.3     1  UNL1        0.0475
      2 C          -6.7249  -19.6947   21.0322 C.2     1  UNL1        0.0019
      3 C          -6.1217  -20.7540   20.1581 C.2     1  UNL1        0.0945
      4 N          -4.6349  -20.7260   20.3549 N.2     1  UNL1       -0.2481
      5 C          -4.3192  -19.6494   21.3505 C.2     1  UNL1        0.0631
      6 C          -3.0225  -19.1671   21.9300 C.3     1  UNL1        0.0717
      7 C          -3.0175  -18.0475   22.9282 C.2     1  UNL1       -0.0198
      8 C          -4.3092  -17.4101   23.3468 C.2     1  UNL1       -0.0042
      9 C          -5.6060  -17.8924   22.7673 C.2     1  UNL1        0.0006
     10 C          -5.6110  -19.0120   21.7692 C.2     1  UNL1        0.0117
     11 C          -8.7951  -19.1329   22.4979 C.ar    1  UNL1       -0.0183
     12 C          -8.9594  -17.7314   23.0068 C.ar    1  UNL1       -0.0040
     13 C          -9.5689  -17.4898   24.3559 C.ar    1  UNL1       -0.0003
     14 C         -10.0142  -18.6499   25.1963 C.ar    1  UNL1       -0.0000
     15 C          -9.8499  -20.0513   24.6874 C.ar    1  UNL1       -0.0003
     16 C          -9.2404  -20.2929   23.3383 C.ar    1  UNL1       -0.0040
     17 C          -9.0370  -19.2955   19.9163 C.3     1  UNL1        0.0259
     18 C         -10.4491  -18.7986   20.0107 C.3     1  UNL1        0.0693
     19 C         -11.7277  -16.6486   20.7125 C.3     1  UNL1        0.0859
     20 N         -10.7461  -17.3415   19.8145 N.3     1  UNL1       -0.2963
     21 H          -9.8600  -16.8451   19.9082 H       1  UNL1        0.1233
@<TRIPOS>BOND
     1    19    20    1
     2    20    18    1
     3    18    17    1
     4    17     1    1
     5     1    11    1
     6    11    12   ar
     7    12    13   ar
     8    13    14   ar
     9    14    15   ar
    10    15    16   ar
    11     1     2    1
    12     2     3    2
    13     3     4    1
    14     4     5    2
    15     5     6    1
    16     6     7    1
    17     7     8    2
    18     8     9    1
    19     9    10    2
    20    16    11   ar
    21    10     2    1
    22    10     5    1
    23    20    21    1
@<TRIPOS>MOLECULE
*****
 21 23 0 0 0
SMALL
GASTEIGER

@<TRIPOS>ATOM
      1 C          -8.8863  -17.9432   22.8699 C.3     1  UNL1        0.0475
      2 C          -7.9196  -16.9451   23.4351 C.2     1  UNL1        0.0019
      3 C          -6.8660  -16.2049   22.6657 C.2     1  UNL1        0.0945
      4 N          -6.1320  -15.3144   23.6240 N.2     1  UNL1       -0.2481
      5 C          -6.7320  -15.5043   24.9856 C.2     1  UNL1        0.0631
      6 C          -6.4151  -14.8897   26.3167 C.3     1  UNL1        0.0717
      7 C          -7.2030  -15.2829   27.5310 C.2     1  UNL1       -0.0198
      8 C          -8.3078  -16.2908   27.4142 C.2     1  UNL1       -0.0042
      9 C          -8.6247  -16.9054   26.0831 C.2     1  UNL1        0.0006
     10 C          -7.8368  -16.5121   24.8689 C.2     1  UNL1        0.0117
     11 C         -10.3622  -17.7375   23.0406 C.ar    1  UNL1       -0.0183
     12 C         -11.0496  -16.6098   22.3292 C.ar    1  UNL1       -0.0040
     13 C         -12.5256  -16.4041   22.4998 C.ar    1  UNL1       -0.0003
     14 C         -13.3143  -17.3260   23.3819 C.ar    1  UNL1       -0.0000
     15 C         -12.6269  -18.4536   24.0933 C.ar    1  UNL1       -0.0003
     16 C         -11.1510  -18.6594   23.9227 C.ar    1  UNL1       -0.0040
     17 C          -8.3770  -19.1470   22.1340 C.3     1  UNL1        0.0259
     18 C          -8.2057  -19.0986   20.6446 C.3     1  UNL1        0.0693
     19 C          -5.6344  -19.3140   20.3416 C.3     1  UNL1        0.0859
     20 N          -6.9210  -18.5987   20.0534 N.3     1  UNL1       -0.2963
     21 H          -7.0408  -18.6050   19.0405 H       1  UNL1        0.1233
@<TRIPOS>BOND
     1    19    20    1
     2    20    18    1
     3    18    17    1
     4    17     1    1
     5     1    11    1
     6    11    12   ar
     7    12    13   ar
     8    13    14   ar
     9    14    15   ar
    10    15    16   ar
    11     1     2    1
    12     2     3    2
    13     3     4    1
    14     4     5    2
    15     5     6    1
    16     6     7    1
    17     7     8    2
    18     8     9    1
    19     9    10    2
    20    16    11   ar
    21    10     2    1
    22    10     5    1
    23    20    21    1
@<TRIPOS>MOLECULE
*****
 21 23 0 0 0
SMALL
GASTEIGER

@<TRIPOS>ATOM
      1 C          -8.0819  -16.8792   23.8256 C.3     1  UNL1        0.0475
      2 C          -9.4773  -17.4157   23.7029 C.2     1  UNL1        0.0019
      3 C         -10.1388  -18.3763   24.6462 C.2     1  UNL1        0.0945
      4 N         -11.5265  -18.6400   24.1416 N.2     1  UNL1       -0.2481
      5 C         -11.7228  -17.8424   22.8865 C.2     1  UNL1        0.0631
      6 C         -12.8910  -17.7074   21.9555 C.3     1  UNL1        0.0717
      7 C         -12.7928  -16.8157   20.7533 C.2     1  UNL1       -0.0198
      8 C         -11.5264  -16.0591   20.4822 C.2     1  UNL1       -0.0042
      9 C         -10.3581  -16.1941   21.4132 C.2     1  UNL1        0.0006
     10 C         -10.4563  -17.0857   22.6153 C.2     1  UNL1        0.0117
     11 C          -7.6548  -16.1806   25.0823 C.ar    1  UNL1       -0.0183
     12 C          -8.6545  -15.9116   26.1678 C.ar    1  UNL1       -0.0040
     13 C          -8.2274  -15.2129   27.4246 C.ar    1  UNL1       -0.0003
     14 C          -6.8005  -14.7833   27.5959 C.ar    1  UNL1       -0.0000
     15 C          -5.8008  -15.0522   26.5104 C.ar    1  UNL1       -0.0003
     16 C          -6.2279  -15.7509   25.2537 C.ar    1  UNL1       -0.0040
     17 C          -7.1136  -17.0414   22.6915 C.3     1  UNL1        0.0259
     18 C          -6.9874  -18.3647   21.9965 C.3     1  UNL1        0.0693
     19 C          -8.3013  -19.4172   20.0177 C.3     1  UNL1        0.0859
     20 N          -7.2568  -18.4673   20.5245 N.3     1  UNL1       -0.2963
     21 H          -7.5279  -17.5360   20.2091 H       1  UNL1        0.1233
@<TRIPOS>BOND
     1    19    20    1
     2    20    18    1
     3    18    17    1
     4    17     1    1
     5     1    11    1
     6    11    12   ar
     7    12    13   ar
     8    13    14   ar
     9    14    15   ar
    10    15    16   ar
    11     1     2    1
    12     2     3    2
    13     3     4    1
    14     4     5    2
    15     5     6    1
    16     6     7    1
    17     7     8    2
    18     8     9    1
    19     9    10    2
    20    16    11   ar
    21    10     2    1
    22    10     5    1
    23    20    21    1
@<TRIPOS>MOLECULE
*****
 21 23 0 0 0
SMALL
GASTEIGER

@<TRIPOS>ATOM
      1 C          -7.4615  -16.6543   23.1488 C.3     1  UNL1        0.0475
      2 C          -6.7401  -17.8775   22.6655 C.2     1  UNL1        0.0019
      3 C          -7.3798  -19.1495   22.1936 C.2     1  UNL1        0.0945
      4 N          -6.2874  -20.1014   21.8057 N.2     1  UNL1       -0.2481
      5 C          -4.9726  -19.4177   22.0378 C.2     1  UNL1        0.0631
      6 C          -3.5568  -19.8692   21.8339 C.3     1  UNL1        0.0717
      7 C          -2.4208  -18.9461   22.1615 C.2     1  UNL1       -0.0198
      8 C          -2.7006  -17.5716   22.6929 C.2     1  UNL1       -0.0042
      9 C          -4.1164  -17.1201   22.8967 C.2     1  UNL1        0.0006
     10 C          -5.2524  -18.0432   22.5692 C.2     1  UNL1        0.0117
     11 C          -7.3021  -16.2021   24.5700 C.ar    1  UNL1       -0.0183
     12 C          -6.0249  -15.5507   25.0111 C.ar    1  UNL1       -0.0040
     13 C          -5.8654  -15.0984   26.4324 C.ar    1  UNL1       -0.0003
     14 C          -6.9832  -15.2976   27.4127 C.ar    1  UNL1       -0.0000
     15 C          -8.2603  -15.9490   26.9717 C.ar    1  UNL1       -0.0003
     16 C          -8.4198  -16.4013   25.5504 C.ar    1  UNL1       -0.0040
     17 C          -8.3424  -15.8834   22.2108 C.3     1  UNL1        0.0259
     18 C          -9.7633  -16.3120   21.9934 C.3     1  UNL1        0.0693
     19 C         -11.3625  -16.4799   19.9528 C.3     1  UNL1        0.0859
     20 N         -10.1597  -16.9684   20.7043 N.3     1  UNL1       -0.2963
     21 H          -9.3632  -16.8825   20.0730 H       1  UNL1        0.1233
@<TRIPOS>BOND
     1    19    20    1
     2    20    18    1
     3    18    17    1
     4    17     1    1
     5     1    11    1
     6    11    12   ar
     7    12    13   ar
     8    13    14   ar
     9    14    15   ar
    10    15    16   ar
    11     1     2    1
    12     2     3    2
    13     3     4    1
    14     4     5    2
    15     5     6    1
    16     6     7    1
    17     7     8    2
    18     8     9    1
    19     9    10    2
    20    16    11   ar
    21    10     2    1
    22    10     5    1
    23    20    21    1
@<TRIPOS>MOLECULE
*****
 21 23 0 0 0
SMALL
GASTEIGER

@<TRIPOS>ATOM
      1 C          -7.5039  -19.0818   22.1490 C.3     1  UNL1        0.0475
      2 C          -6.3297  -18.2455   22.5635 C.2     1  UNL1        0.0019
      3 C          -6.3923  -16.9471   23.3119 C.2     1  UNL1        0.0945
      4 N          -4.9880  -16.4600   23.5133 N.2     1  UNL1       -0.2481
      5 C          -4.0574  -17.4573   22.8892 C.2     1  UNL1        0.0631
      6 C          -2.5622  -17.5032   22.7797 C.3     1  UNL1        0.0717
      7 C          -1.8962  -18.6526   22.0832 C.2     1  UNL1       -0.0198
      8 C          -2.7254  -19.7562   21.4962 C.2     1  UNL1       -0.0042
      9 C          -4.2206  -19.7103   21.6057 C.2     1  UNL1        0.0006
     10 C          -4.8867  -18.5609   22.3022 C.2     1  UNL1        0.0117
     11 C          -8.7777  -19.0303   22.9393 C.ar    1  UNL1       -0.0183
     12 C          -9.1863  -20.2029   23.7808 C.ar    1  UNL1       -0.0040
     13 C         -10.4601  -20.1514   24.5712 C.ar    1  UNL1       -0.0003
     14 C         -11.3255  -18.9272   24.5201 C.ar    1  UNL1       -0.0000
     15 C         -10.9169  -17.7546   23.6786 C.ar    1  UNL1       -0.0003
     16 C          -9.6431  -17.8061   22.8883 C.ar    1  UNL1       -0.0040
     17 C          -7.4043  -19.9698   20.9441 C.3     1  UNL1        0.0259
     18 C          -7.7960  -19.4479   19.5934 C.3     1  UNL1        0.0693
     19 C         -10.3923  -19.5394   19.6185 C.3     1  UNL1        0.0859
     20 N          -9.1215  -18.7711   19.4064 N.3     1  UNL1       -0.2963
     21 H          -9.1430  -17.9822   20.0526 H       1  UNL1        0.1233
@<TRIPOS>BOND
     1    19    20    1
     2    20    18    1
     3    18    17    1
     4    17     1    1
     5     1    11    1
     6    11    12   ar
     7    12    13   ar
     8    13    14   ar
     9    14    15   ar
    10    15    16   ar
    11     1     2    1
    12     2     3    2
    13     3     4    1
    14     4     5    2
    15     5     6    1
    16     6     7    1
    17     7     8    2
    18     8     9    1
    19     9    10    2
    20    16    11   ar
    21    10     2    1
    22    10     5    1
    23    20    21    1
