@<TRIPOS>MOLECULE
*****
 32 35 0 0 0
SMALL
GASTEIGER

@<TRIPOS>ATOM
      1 C           7.8628   -7.4571   26.6784 C.3     1  UNL1        0.2129
      2 C           7.4369   -6.2682   27.4877 C.ar    1  UNL1        0.1110
      3 N           6.9858   -4.9458   26.9419 N.ar    1  UNL1       -0.2412
      4 C           6.6574   -4.0532   28.1018 C.ar    1  UNL1        0.0875
      5 C           6.1646   -2.6382   28.1713 C.ar    1  UNL1        0.0196
      6 C           5.9198   -1.9939   29.5035 C.ar    1  UNL1        0.0016
      7 C           6.1679   -2.7646   30.7663 C.ar    1  UNL1        0.0021
      8 C           6.6608   -4.1796   30.6967 C.ar    1  UNL1        0.0081
      9 C           6.9056   -4.8239   29.3645 C.ar    1  UNL1        0.0482
     10 S           7.3873   -6.1928   28.9850 S.2     1  UNL1       -0.0693
     11 C           5.9231   -2.1202   32.0985 C.ar    1  UNL1        0.0194
     12 C           6.9652   -1.2258   32.7019 C.ar    1  UNL1        0.0055
     13 C           6.7205   -0.5815   34.0342 C.ar    1  UNL1        0.0497
     14 C           5.4335   -0.8315   34.7631 C.ar    1  UNL1        0.2223
     15 F           5.1887   -0.1872   36.0953 F       1  UNL1       -0.1832
     16 N           4.3914   -1.7260   34.1597 N.ar    1  UNL1       -0.2165
     17 C           4.6362   -2.3703   32.8275 C.ar    1  UNL1        0.1012
     18 C           8.0912   -8.7787   27.3500 C.2     1  UNL1        0.2430
     19 O           9.4390   -9.1071   27.9206 O.2     1  UNL1       -0.2735
     20 N           6.9717   -9.7720   27.4511 N.am    1  UNL1       -0.2955
     21 H           6.0871   -9.5566   27.0766 H       1  UNL1        0.1499
     22 C           7.2002  -11.0937   28.1228 C.3     1  UNL1        0.1757
     23 C           6.0369  -11.9889   28.4320 C.2     1  UNL1        0.2426
     24 O           6.2417  -13.2288   29.2509 O.2     1  UNL1       -0.2733
     25 N           4.6690  -11.6441   27.9222 N.am    1  UNL1       -0.3000
     26 H           4.5347  -10.8303   27.3847 H       1  UNL1        0.1496
     27 C           3.5058  -12.5392   28.2313 C.3     1  UNL1        0.1310
     28 C           2.5784  -12.7085   29.3980 C.3     1  UNL1        0.1642
     29 O           1.8607  -13.8051   28.6685 O.3     1  UNL1       -0.3501
     30 C           2.7881  -13.6359   27.5018 C.3     1  UNL1        0.1642
     31 N           8.2578   -7.1919   23.7163 N.1     1  UNL1       -0.1950
     32 C           8.0603   -7.3245   25.1974 C.1     1  UNL1        0.0881
@<TRIPOS>BOND
     1    31    32    3
     2    32     1    1
     3     1    18    1
     4    18    19    2
     5    18    20   am
     6    20    22    1
     7    22    23    1
     8    23    24    2
     9    23    25   am
    10    25    27    1
    11    27    28    1
    12    28    29    1
    13    29    30    1
    14     1     2    1
    15     2     3   ar
    16     3     4   ar
    17     4     5   ar
    18     5     6   ar
    19     6     7   ar
    20     7    11    1
    21    11    12   ar
    22    12    13   ar
    23    13    14   ar
    24    14    15    1
    25    14    16   ar
    26    16    17   ar
    27     7     8   ar
    28     8     9   ar
    29     9    10   ar
    30    30    27    1
    31    10     2   ar
    32     9     4   ar
    33    17    11   ar
    34    20    21    1
    35    25    26    1
@<TRIPOS>MOLECULE
*****
 32 35 0 0 0
SMALL
GASTEIGER

@<TRIPOS>ATOM
      1 C           7.5487   -5.5588   29.3985 C.3     1  UNL1        0.2129
      2 C           7.1040   -4.8458   28.1559 C.ar    1  UNL1        0.1110
      3 N           6.4788   -3.4836   28.0969 N.ar    1  UNL1       -0.2412
      4 C           6.1948   -3.1657   26.6588 C.ar    1  UNL1        0.0875
      5 C           5.5848   -1.9654   25.9977 C.ar    1  UNL1        0.0196
      6 C           5.4244   -1.9309   24.5067 C.ar    1  UNL1        0.0016
      7 C           5.8740   -3.0968   23.6768 C.ar    1  UNL1        0.0021
      8 C           6.4840   -4.2971   24.3379 C.ar    1  UNL1        0.0081
      9 C           6.6443   -4.3316   25.8289 C.ar    1  UNL1        0.0482
     10 S           7.2063   -5.3699   26.7542 S.2     1  UNL1       -0.0693
     11 C           5.7136   -3.0622   22.1858 C.ar    1  UNL1        0.0194
     12 C           4.3630   -2.8139   21.5823 C.ar    1  UNL1        0.0055
     13 C           4.2026   -2.7794   20.0913 C.ar    1  UNL1        0.0497
     14 C           5.3929   -2.9931   19.2038 C.ar    1  UNL1        0.2223
     15 F           5.2325   -2.9586   17.7128 F       1  UNL1       -0.1832
     16 N           6.7435   -3.2414   19.8073 N.ar    1  UNL1       -0.2165
     17 C           6.9039   -3.2760   21.2983 C.ar    1  UNL1        0.1012
     18 C           7.0000   -5.1518   30.7338 C.2     1  UNL1        0.2430
     19 O           6.7556   -6.1872   31.7914 O.2     1  UNL1       -0.2735
     20 N           6.6955   -3.7096   31.0116 N.am    1  UNL1       -0.2955
     21 H           6.8558   -3.0300   30.3176 H       1  UNL1        0.1499
     22 C           6.1466   -3.3027   32.3471 C.3     1  UNL1        0.1757
     23 C           4.9410   -2.4135   32.4231 C.2     1  UNL1        0.2426
     24 O           3.8657   -2.6924   33.4311 O.2     1  UNL1       -0.2733
     25 N           4.8107   -1.2454   31.4911 N.am    1  UNL1       -0.3000
     26 H           5.5164   -1.0623   30.8296 H       1  UNL1        0.1496
     27 C           3.6051   -0.3561   31.5672 C.3     1  UNL1        0.1310
     28 C           2.3912   -0.1397   30.7130 C.3     1  UNL1        0.1642
     29 O           1.9001    0.9014   31.6746 O.3     1  UNL1       -0.3501
     30 C           3.1139    0.6850   32.5289 C.3     1  UNL1        0.1642
     31 N           9.5359   -7.7986   29.2129 N.1     1  UNL1       -0.1950
     32 C           8.5423   -6.6786   29.3057 C.1     1  UNL1        0.0881
@<TRIPOS>BOND
     1    31    32    3
     2    32     1    1
     3     1    18    1
     4    18    19    2
     5    18    20   am
     6    20    22    1
     7    22    23    1
     8    23    24    2
     9    23    25   am
    10    25    27    1
    11    27    28    1
    12    28    29    1
    13    29    30    1
    14     1     2    1
    15     2     3   ar
    16     3     4   ar
    17     4     5   ar
    18     5     6   ar
    19     6     7   ar
    20     7    11    1
    21    11    12   ar
    22    12    13   ar
    23    13    14   ar
    24    14    15    1
    25    14    16   ar
    26    16    17   ar
    27     7     8   ar
    28     8     9   ar
    29     9    10   ar
    30    30    27    1
    31    10     2   ar
    32     9     4   ar
    33    17    11   ar
    34    20    21    1
    35    25    26    1
@<TRIPOS>MOLECULE
*****
 32 35 0 0 0
SMALL
GASTEIGER

@<TRIPOS>ATOM
      1 C          -1.7292    3.8582   18.9050 C.3     1  UNL1        0.2129
      2 C          -0.6766    2.8215   19.1642 C.ar    1  UNL1        0.1110
      3 N          -0.7387    1.7429   20.2049 N.ar    1  UNL1       -0.2412
      4 C           0.5225    0.9361   20.1122 C.ar    1  UNL1        0.0875
      5 C           1.0133   -0.2516   20.8856 C.ar    1  UNL1        0.0196
      6 C           2.3456   -0.8595   20.5612 C.ar    1  UNL1        0.0016
      7 C           3.1872   -0.2796   19.4632 C.ar    1  UNL1        0.0021
      8 C           2.6964    0.9082   18.6897 C.ar    1  UNL1        0.0081
      9 C           1.3640    1.5160   19.0142 C.ar    1  UNL1        0.0482
     10 S           0.6230    2.6812   18.4284 S.2     1  UNL1       -0.0693
     11 C           4.5196   -0.8875   19.1388 C.ar    1  UNL1        0.0194
     12 C           5.2561   -1.6787   20.1786 C.ar    1  UNL1        0.0055
     13 C           6.5885   -2.2867   19.8542 C.ar    1  UNL1        0.0497
     14 C           7.1843   -2.1033   18.4898 C.ar    1  UNL1        0.2223
     15 F           8.5167   -2.7111   18.1654 F       1  UNL1       -0.1832
     16 N           6.4477   -1.3120   17.4500 N.ar    1  UNL1       -0.2165
     17 C           5.1154   -0.7041   17.7744 C.ar    1  UNL1        0.1012
     18 C          -2.8633    4.0334   19.8710 C.2     1  UNL1        0.2430
     19 O          -3.5359    5.3676   20.0039 O.2     1  UNL1       -0.2735
     20 N          -3.3248    2.8745   20.7040 N.am    1  UNL1       -0.2955
     21 H          -2.8833    1.9989   20.6168 H       1  UNL1        0.1499
     22 C          -4.4589    3.0498   21.6700 C.3     1  UNL1        0.1757
     23 C          -4.1961    3.5864   23.0459 C.2     1  UNL1        0.2426
     24 O          -2.8431    4.1346   23.3913 O.2     1  UNL1       -0.2733
     25 N          -5.2860    3.5749   24.0763 N.am    1  UNL1       -0.3000
     26 H          -6.1739    3.2152   23.8496 H       1  UNL1        0.1496
     27 C          -5.0232    4.1116   25.4521 C.3     1  UNL1        0.1310
     28 C          -5.6352    5.1800   26.3087 C.3     1  UNL1        0.1642
     29 O          -4.6514    4.8704   27.3978 O.3     1  UNL1       -0.3501
     30 C          -4.0393    3.8019   26.5413 C.3     1  UNL1        0.1642
     31 N          -1.5663    5.5812   16.4545 N.1     1  UNL1       -0.1950
     32 C          -1.6477    4.7197   17.6798 C.1     1  UNL1        0.0881
@<TRIPOS>BOND
     1    31    32    3
     2    32     1    1
     3     1    18    1
     4    18    19    2
     5    18    20   am
     6    20    22    1
     7    22    23    1
     8    23    24    2
     9    23    25   am
    10    25    27    1
    11    27    28    1
    12    28    29    1
    13    29    30    1
    14     1     2    1
    15     2     3   ar
    16     3     4   ar
    17     4     5   ar
    18     5     6   ar
    19     6     7   ar
    20     7    11    1
    21    11    12   ar
    22    12    13   ar
    23    13    14   ar
    24    14    15    1
    25    14    16   ar
    26    16    17   ar
    27     7     8   ar
    28     8     9   ar
    29     9    10   ar
    30    30    27    1
    31    10     2   ar
    32     9     4   ar
    33    17    11   ar
    34    20    21    1
    35    25    26    1
@<TRIPOS>MOLECULE
*****
 32 35 0 0 0
SMALL
GASTEIGER

@<TRIPOS>ATOM
      1 C           6.9616   -4.4707   24.1255 C.3     1  UNL1        0.2129
      2 C           6.0100   -3.8279   23.1605 C.ar    1  UNL1        0.1110
      3 N           5.6899   -4.3177   21.7793 N.ar    1  UNL1       -0.2412
      4 C           4.6935   -3.3749   21.1724 C.ar    1  UNL1        0.0875
      5 C           4.0173   -3.3545   19.8337 C.ar    1  UNL1        0.0196
      6 C           3.0453   -2.2616   19.5010 C.ar    1  UNL1        0.0016
      7 C           2.7495   -1.1890   20.5071 C.ar    1  UNL1        0.0021
      8 C           3.4257   -1.2095   21.8459 C.ar    1  UNL1        0.0081
      9 C           4.3977   -2.3024   22.1785 C.ar    1  UNL1        0.0482
     10 S           5.2114   -2.5823   23.4072 S.2     1  UNL1       -0.0693
     11 C           1.7775   -0.0961   20.1744 C.ar    1  UNL1        0.0194
     12 C           1.7870    0.5264   18.8098 C.ar    1  UNL1        0.0055
     13 C           0.8150    1.6193   18.4771 C.ar    1  UNL1        0.0497
     14 C          -0.1666    2.0898   19.5091 C.ar    1  UNL1        0.2223
     15 F          -1.1386    3.1827   19.1765 F       1  UNL1       -0.1832
     16 N          -0.1761    1.4673   20.8739 N.ar    1  UNL1       -0.2165
     17 C           0.7959    0.3744   21.2065 C.ar    1  UNL1        0.1012
     18 C           7.1471   -3.8893   25.4957 C.2     1  UNL1        0.2430
     19 O           8.2249   -2.8751   25.7405 O.2     1  UNL1       -0.2735
     20 N           6.2548   -4.3219   26.6211 N.am    1  UNL1       -0.2955
     21 H           5.5474   -4.9875   26.4604 H       1  UNL1        0.1499
     22 C           6.4404   -3.7405   27.9914 C.3     1  UNL1        0.1757
     23 C           5.6300   -2.5525   28.4180 C.2     1  UNL1        0.2426
     24 O           5.8973   -1.8983   29.7411 O.2     1  UNL1       -0.2733
     25 N           4.5523   -2.0187   27.5215 N.am    1  UNL1       -0.3000
     26 H           4.3769   -2.4480   26.6531 H       1  UNL1        0.1496
     27 C           3.7419   -0.8307   27.9481 C.3     1  UNL1        0.1310
     28 C           2.5222   -0.6285   28.7974 C.3     1  UNL1        0.1642
     29 O           2.5959    0.8493   28.5514 O.3     1  UNL1       -0.3501
     30 C           3.8156    0.6472   27.7021 C.3     1  UNL1        0.1642
     31 N           8.4939   -6.9192   23.3150 N.1     1  UNL1       -0.1950
     32 C           7.7278   -5.6949   23.7202 C.1     1  UNL1        0.0881
@<TRIPOS>BOND
     1    31    32    3
     2    32     1    1
     3     1    18    1
     4    18    19    2
     5    18    20   am
     6    20    22    1
     7    22    23    1
     8    23    24    2
     9    23    25   am
    10    25    27    1
    11    27    28    1
    12    28    29    1
    13    29    30    1
    14     1     2    1
    15     2     3   ar
    16     3     4   ar
    17     4     5   ar
    18     5     6   ar
    19     6     7   ar
    20     7    11    1
    21    11    12   ar
    22    12    13   ar
    23    13    14   ar
    24    14    15    1
    25    14    16   ar
    26    16    17   ar
    27     7     8   ar
    28     8     9   ar
    29     9    10   ar
    30    30    27    1
    31    10     2   ar
    32     9     4   ar
    33    17    11   ar
    34    20    21    1
    35    25    26    1
@<TRIPOS>MOLECULE
*****
 32 35 0 0 0
SMALL
GASTEIGER

@<TRIPOS>ATOM
      1 C           7.2038   -4.7588   25.5182 C.3     1  UNL1        0.2129
      2 C           6.5777   -4.2148   24.2684 C.ar    1  UNL1        0.1110
      3 N           6.8799   -4.6558   22.8669 N.ar    1  UNL1       -0.2412
      4 C           6.0285   -3.8478   21.9329 C.ar    1  UNL1        0.0875
      5 C           5.9006   -3.8469   20.4384 C.ar    1  UNL1        0.0196
      6 C           4.9442   -2.9056   19.7682 C.ar    1  UNL1        0.0016
      7 C           4.1158   -1.9652   20.5925 C.ar    1  UNL1        0.0021
      8 C           4.2437   -1.9662   22.0870 C.ar    1  UNL1        0.0081
      9 C           5.2001   -2.9075   22.7572 C.ar    1  UNL1        0.0482
     10 S           5.5396   -3.1343   24.2006 S.2     1  UNL1       -0.0693
     11 C           3.1594   -1.0239   19.9222 C.ar    1  UNL1        0.0194
     12 C           1.7630   -0.8725   20.4487 C.ar    1  UNL1        0.0055
     13 C           0.8066    0.0688   19.7784 C.ar    1  UNL1        0.0497
     14 C           1.2466    0.8588   18.5816 C.ar    1  UNL1        0.2223
     15 F           0.2903    1.8001   17.9113 F       1  UNL1       -0.1832
     16 N           2.6431    0.7074   18.0551 N.ar    1  UNL1       -0.2165
     17 C           3.5994   -0.2339   18.7254 C.ar    1  UNL1        0.1012
     18 C           7.5802   -3.8299   26.6342 C.2     1  UNL1        0.2430
     19 O           8.3675   -2.5869   26.3421 O.2     1  UNL1       -0.2735
     20 N           7.1693   -4.1438   28.0422 N.am    1  UNL1       -0.2955
     21 H           6.6525   -4.9596   28.2340 H       1  UNL1        0.1499
     22 C           7.5457   -3.2148   29.1582 C.3     1  UNL1        0.1757
     23 C           6.4783   -2.5971   30.0121 C.2     1  UNL1        0.2426
     24 O           5.4448   -1.7042   29.3918 O.2     1  UNL1       -0.2733
     25 N           6.4444   -2.8722   31.4862 N.am    1  UNL1       -0.3000
     26 H           7.1227   -3.4582   31.8933 H       1  UNL1        0.1496
     27 C           5.3771   -2.2545   32.3401 C.3     1  UNL1        0.1310
     28 C           4.9435   -0.8516   32.6466 C.3     1  UNL1        0.1642
     29 O           3.8676   -1.3809   33.5477 O.3     1  UNL1       -0.3501
     30 C           4.3011   -2.7839   33.2413 C.3     1  UNL1        0.1642
     31 N           7.7031   -7.7049   25.7861 N.1     1  UNL1       -0.1950
     32 C           7.4534   -6.2318   25.6522 C.1     1  UNL1        0.0881
@<TRIPOS>BOND
     1    31    32    3
     2    32     1    1
     3     1    18    1
     4    18    19    2
     5    18    20   am
     6    20    22    1
     7    22    23    1
     8    23    24    2
     9    23    25   am
    10    25    27    1
    11    27    28    1
    12    28    29    1
    13    29    30    1
    14     1     2    1
    15     2     3   ar
    16     3     4   ar
    17     4     5   ar
    18     5     6   ar
    19     6     7   ar
    20     7    11    1
    21    11    12   ar
    22    12    13   ar
    23    13    14   ar
    24    14    15    1
    25    14    16   ar
    26    16    17   ar
    27     7     8   ar
    28     8     9   ar
    29     9    10   ar
    30    30    27    1
    31    10     2   ar
    32     9     4   ar
    33    17    11   ar
    34    20    21    1
    35    25    26    1
@<TRIPOS>MOLECULE
*****
 32 35 0 0 0
SMALL
GASTEIGER

@<TRIPOS>ATOM
      1 C           3.8709   -1.0953   19.3084 C.3     1  UNL1        0.2129
      2 C           4.7868   -1.9739   20.1078 C.ar    1  UNL1        0.1110
      3 N           6.1264   -2.4845   19.6662 N.ar    1  UNL1       -0.2412
      4 C           6.6915   -3.3224   20.7745 C.ar    1  UNL1        0.0875
      5 C           7.9799   -4.0797   20.9034 C.ar    1  UNL1        0.0196
      6 C           8.2780   -4.8443   22.1590 C.ar    1  UNL1        0.0016
      7 C           7.2878   -4.8516   23.2857 C.ar    1  UNL1        0.0021
      8 C           5.9994   -4.0943   23.1568 C.ar    1  UNL1        0.0081
      9 C           5.7013   -3.3298   21.9012 C.ar    1  UNL1        0.0482
     10 S           4.5241   -2.4964   21.4891 S.2     1  UNL1       -0.0693
     11 C           7.5859   -5.6162   24.5413 C.ar    1  UNL1        0.0194
     12 C           8.1642   -6.9978   24.4586 C.ar    1  UNL1        0.0055
     13 C           8.4623   -7.7624   25.7142 C.ar    1  UNL1        0.0497
     14 C           8.1822   -7.1454   27.0525 C.ar    1  UNL1        0.2223
     15 F           8.4804   -7.9100   28.3080 F       1  UNL1       -0.1832
     16 N           7.6040   -5.7638   27.1351 N.ar    1  UNL1       -0.2165
     17 C           7.3058   -4.9992   25.8795 C.ar    1  UNL1        0.1012
     18 C           2.8737   -0.2191   20.0069 C.2     1  UNL1        0.2430
     19 O           3.3199    1.0614   20.6483 O.2     1  UNL1       -0.2735
     20 N           1.4303   -0.6233   20.0639 N.am    1  UNL1       -0.2955
     21 H           1.1374   -1.4637   19.6429 H       1  UNL1        0.1499
     22 C           0.4331    0.2530   20.7624 C.3     1  UNL1        0.1757
     23 C          -0.0418    1.5171   20.1092 C.2     1  UNL1        0.2426
     24 O          -1.2316    2.2452   20.6609 O.2     1  UNL1       -0.2733
     25 N           0.6730    2.0530   18.9043 N.am    1  UNL1       -0.3000
     26 H           1.4539    1.5751   18.5422 H       1  UNL1        0.1496
     27 C           0.1981    3.3170   18.2511 C.3     1  UNL1        0.1310
     28 C           0.6798    4.7371   18.2131 C.3     1  UNL1        0.1642
     29 O          -0.4735    5.1046   17.3273 O.3     1  UNL1       -0.3501
     30 C          -0.9553    3.6846   17.3653 C.3     1  UNL1        0.1642
     31 N           4.0332   -1.0904   16.3128 N.1     1  UNL1       -0.1950
     32 C           3.9521   -1.0928   17.8107 C.1     1  UNL1        0.0881
@<TRIPOS>BOND
     1    31    32    3
     2    32     1    1
     3     1    18    1
     4    18    19    2
     5    18    20   am
     6    20    22    1
     7    22    23    1
     8    23    24    2
     9    23    25   am
    10    25    27    1
    11    27    28    1
    12    28    29    1
    13    29    30    1
    14     1     2    1
    15     2     3   ar
    16     3     4   ar
    17     4     5   ar
    18     5     6   ar
    19     6     7   ar
    20     7    11    1
    21    11    12   ar
    22    12    13   ar
    23    13    14   ar
    24    14    15    1
    25    14    16   ar
    26    16    17   ar
    27     7     8   ar
    28     8     9   ar
    29     9    10   ar
    30    30    27    1
    31    10     2   ar
    32     9     4   ar
    33    17    11   ar
    34    20    21    1
    35    25    26    1
@<TRIPOS>MOLECULE
*****
 32 35 0 0 0
SMALL
GASTEIGER

@<TRIPOS>ATOM
      1 C           7.0402   -3.2615   20.5660 C.3     1  UNL1        0.2129
      2 C           7.1373   -3.7821   21.9694 C.ar    1  UNL1        0.1110
      3 N           7.6242   -5.1421   22.3736 N.ar    1  UNL1       -0.2412
      4 C           7.5524   -5.2346   23.8691 C.ar    1  UNL1        0.0875
      5 C           7.9021   -6.3368   24.8244 C.ar    1  UNL1        0.0196
      6 C           7.7206   -6.1362   26.2998 C.ar    1  UNL1        0.0016
      7 C           7.1892   -4.8334   26.8198 C.ar    1  UNL1        0.0021
      8 C           6.8395   -3.7312   25.8644 C.ar    1  UNL1        0.0081
      9 C           7.0210   -3.9318   24.3891 C.ar    1  UNL1        0.0482
     10 S           6.7645   -3.0341   23.2150 S.2     1  UNL1       -0.0693
     11 C           7.0076   -4.6329   28.2952 C.ar    1  UNL1        0.0194
     12 C           6.7603   -3.2576   28.8404 C.ar    1  UNL1        0.0055
     13 C           6.5787   -3.0570   30.3158 C.ar    1  UNL1        0.0497
     14 C           6.6445   -4.2319   31.2461 C.ar    1  UNL1        0.2223
     15 F           6.4630   -4.0314   32.7215 F       1  UNL1       -0.1832
     16 N           6.8919   -5.6073   30.7009 N.ar    1  UNL1       -0.2165
     17 C           7.0735   -5.8078   29.2255 C.ar    1  UNL1        0.1012
     18 C           5.6954   -3.0321   19.9425 C.2     1  UNL1        0.2430
     19 O           4.4911   -3.7543   20.4700 O.2     1  UNL1       -0.2735
     20 N           5.5548   -2.0804   18.7916 N.am    1  UNL1       -0.2955
     21 H           6.3452   -1.6064   18.4454 H       1  UNL1        0.1499
     22 C           4.2098   -1.8509   18.1682 C.3     1  UNL1        0.1757
     23 C           3.2416   -0.8974   18.8033 C.2     1  UNL1        0.2426
     24 O           2.9589    0.4261   18.1565 O.2     1  UNL1       -0.2733
     25 N           2.5562   -1.2674   20.0852 N.am    1  UNL1       -0.3000
     26 H           2.7418   -2.1361   20.5097 H       1  UNL1        0.1496
     27 C           1.5880   -0.3139   20.7203 C.3     1  UNL1        0.1310
     28 C           0.2034    0.1641   20.3971 C.3     1  UNL1        0.1642
     29 O           0.2187    1.0345   21.6185 O.3     1  UNL1       -0.3501
     30 C           1.6033    0.5566   21.9418 C.3     1  UNL1        0.1642
     31 N           9.5357   -2.6793   19.0060 N.1     1  UNL1       -0.1950
     32 C           8.2879   -2.9704   19.7860 C.1     1  UNL1        0.0881
@<TRIPOS>BOND
     1    31    32    3
     2    32     1    1
     3     1    18    1
     4    18    19    2
     5    18    20   am
     6    20    22    1
     7    22    23    1
     8    23    24    2
     9    23    25   am
    10    25    27    1
    11    27    28    1
    12    28    29    1
    13    29    30    1
    14     1     2    1
    15     2     3   ar
    16     3     4   ar
    17     4     5   ar
    18     5     6   ar
    19     6     7   ar
    20     7    11    1
    21    11    12   ar
    22    12    13   ar
    23    13    14   ar
    24    14    15    1
    25    14    16   ar
    26    16    17   ar
    27     7     8   ar
    28     8     9   ar
    29     9    10   ar
    30    30    27    1
    31    10     2   ar
    32     9     4   ar
    33    17    11   ar
    34    20    21    1
    35    25    26    1
@<TRIPOS>MOLECULE
*****
 32 35 0 0 0
SMALL
GASTEIGER

@<TRIPOS>ATOM
      1 C           6.7522   -4.0832   24.8162 C.3     1  UNL1        0.2129
      2 C           6.6961   -4.0027   26.3130 C.ar    1  UNL1        0.1110
      3 N           7.0440   -5.1050   27.2689 N.ar    1  UNL1       -0.2412
      4 C           6.8451   -4.5894   28.6634 C.ar    1  UNL1        0.0875
      5 C           7.0320   -5.2302   30.0066 C.ar    1  UNL1        0.0196
      6 C           6.7479   -4.4500   31.2558 C.ar    1  UNL1        0.0016
      7 C           6.2770   -3.0290   31.1618 C.ar    1  UNL1        0.0021
      8 C           6.0902   -2.3881   29.8185 C.ar    1  UNL1        0.0081
      9 C           6.3742   -3.1683   28.5693 C.ar    1  UNL1        0.0482
     10 S           6.2821   -2.8058   27.1167 S.2     1  UNL1       -0.0693
     11 C           5.9929   -2.2488   32.4110 C.ar    1  UNL1        0.0194
     12 C           7.0362   -1.3307   32.9755 C.ar    1  UNL1        0.0055
     13 C           6.7522   -0.5505   34.2248 C.ar    1  UNL1        0.0497
     14 C           5.4247   -0.6884   34.9096 C.ar    1  UNL1        0.2223
     15 F           5.1406    0.0918   36.1588 F       1  UNL1       -0.1832
     16 N           4.3814   -1.6065   34.3451 N.ar    1  UNL1       -0.2165
     17 C           4.6655   -2.3867   33.0958 C.ar    1  UNL1        0.1012
     18 C           6.1106   -3.0136   23.9830 C.2     1  UNL1        0.2430
     19 O           6.8563   -1.7465   23.6851 O.2     1  UNL1       -0.2735
     20 N           4.7234   -3.2109   23.4477 N.am    1  UNL1       -0.2955
     21 H           4.2340   -4.0424   23.6432 H       1  UNL1        0.1499
     22 C           4.0818   -2.1412   22.6145 C.3     1  UNL1        0.1757
     23 C           4.4216   -2.0197   21.1586 C.2     1  UNL1        0.2426
     24 O           3.4004   -2.3726   20.1181 O.2     1  UNL1       -0.2733
     25 N           5.7826   -1.5454   20.7431 N.am    1  UNL1       -0.3000
     26 H           6.4529   -1.3138   21.4260 H       1  UNL1        0.1496
     27 C           6.1225   -1.4240   19.2872 C.3     1  UNL1        0.1310
     28 C           6.1396   -0.3018   18.2920 C.3     1  UNL1        0.1642
     29 O           6.6031   -1.2522   17.2282 O.3     1  UNL1       -0.3501
     30 C           6.5860   -2.3745   18.2233 C.3     1  UNL1        0.1642
     31 N           8.1477   -6.3834   23.4889 N.1     1  UNL1       -0.1950
     32 C           7.4500   -5.2332   24.1526 C.1     1  UNL1        0.0881
@<TRIPOS>BOND
     1    31    32    3
     2    32     1    1
     3     1    18    1
     4    18    19    2
     5    18    20   am
     6    20    22    1
     7    22    23    1
     8    23    24    2
     9    23    25   am
    10    25    27    1
    11    27    28    1
    12    28    29    1
    13    29    30    1
    14     1     2    1
    15     2     3   ar
    16     3     4   ar
    17     4     5   ar
    18     5     6   ar
    19     6     7   ar
    20     7    11    1
    21    11    12   ar
    22    12    13   ar
    23    13    14   ar
    24    14    15    1
    25    14    16   ar
    26    16    17   ar
    27     7     8   ar
    28     8     9   ar
    29     9    10   ar
    30    30    27    1
    31    10     2   ar
    32     9     4   ar
    33    17    11   ar
    34    20    21    1
    35    25    26    1
@<TRIPOS>MOLECULE
*****
 32 35 0 0 0
SMALL
GASTEIGER

@<TRIPOS>ATOM
      1 C           2.5909   -0.4272   29.7297 C.3     1  UNL1        0.2129
      2 C           3.0050   -0.2380   31.1590 C.ar    1  UNL1        0.1110
      3 N           3.7369   -1.2376   32.0046 N.ar    1  UNL1       -0.2412
      4 C           3.9441   -0.6334   33.3618 C.ar    1  UNL1        0.0875
      5 C           4.6047   -1.1561   34.6029 C.ar    1  UNL1        0.0196
      6 C           4.6613   -0.3057   35.8373 C.ar    1  UNL1        0.0016
      7 C           4.0573    1.0673   35.8305 C.ar    1  UNL1        0.0021
      8 C           3.3968    1.5900   34.5893 C.ar    1  UNL1        0.0081
      9 C           3.3402    0.7396   33.3550 C.ar    1  UNL1        0.0482
     10 S           2.7598    0.9839   31.9936 S.2     1  UNL1       -0.0693
     11 C           4.1140    1.9177   37.0649 C.ar    1  UNL1        0.0194
     12 C           5.4015    2.0561   37.8219 C.ar    1  UNL1        0.0055
     13 C           5.4582    2.9065   39.0563 C.ar    1  UNL1        0.0497
     14 C           4.2272    3.6184   39.5337 C.ar    1  UNL1        0.2223
     15 F           4.2838    4.4687   40.7680 F       1  UNL1       -0.1832
     16 N           2.9396    3.4799   38.7767 N.ar    1  UNL1       -0.2165
     17 C           2.8830    2.6296   37.5423 C.ar    1  UNL1        0.1012
     18 C           3.6038   -0.8418   28.7040 C.2     1  UNL1        0.2430
     19 O           3.1799   -1.6562   27.5178 O.2     1  UNL1       -0.2735
     20 N           5.0406   -0.4421   28.8646 N.am    1  UNL1       -0.2955
     21 H           5.3189    0.0924   29.6431 H       1  UNL1        0.1499
     22 C           6.0535   -0.8568   27.8388 C.3     1  UNL1        0.1757
     23 C           6.6843   -2.2156   27.9142 C.2     1  UNL1        0.2426
     24 O           8.1234   -2.3533   28.3143 O.2     1  UNL1       -0.2733
     25 N           5.8760   -3.4367   27.5895 N.am    1  UNL1       -0.3000
     26 H           4.9314   -3.3463   27.3269 H       1  UNL1        0.1496
     27 C           6.5067   -4.7956   27.6648 C.3     1  UNL1        0.1310
     28 C           6.8574   -5.8590   26.6668 C.3     1  UNL1        0.1642
     29 O           7.3987   -6.7173   27.7714 O.3     1  UNL1       -0.3501
     30 C           7.0480   -5.6539   28.7696 C.3     1  UNL1        0.1642
     31 N          -0.2631    0.0236   28.9226 N.1     1  UNL1       -0.1950
     32 C           1.1639   -0.2019   29.3262 C.1     1  UNL1        0.0881
@<TRIPOS>BOND
     1    31    32    3
     2    32     1    1
     3     1    18    1
     4    18    19    2
     5    18    20   am
     6    20    22    1
     7    22    23    1
     8    23    24    2
     9    23    25   am
    10    25    27    1
    11    27    28    1
    12    28    29    1
    13    29    30    1
    14     1     2    1
    15     2     3   ar
    16     3     4   ar
    17     4     5   ar
    18     5     6   ar
    19     6     7   ar
    20     7    11    1
    21    11    12   ar
    22    12    13   ar
    23    13    14   ar
    24    14    15    1
    25    14    16   ar
    26    16    17   ar
    27     7     8   ar
    28     8     9   ar
    29     9    10   ar
    30    30    27    1
    31    10     2   ar
    32     9     4   ar
    33    17    11   ar
    34    20    21    1
    35    25    26    1
