@<TRIPOS>MOLECULE
*****
 43 47 0 0 0
SMALL
GASTEIGER

@<TRIPOS>ATOM
      1 C           6.3409   -1.9026   22.6443 C.ar    1  UNL1        0.2394
      2 N           7.0543   -2.9374   23.4630 N.ar    1  UNL1       -0.1782
      3 C           7.3514   -4.2849   22.8749 C.ar    1  UNL1        0.2194
      4 N           6.9352   -4.5976   21.4681 N.ar    1  UNL1       -0.2131
      5 C           6.2218   -3.5628   20.6495 C.ar    1  UNL1        0.0952
      6 C           5.6933   -3.5827   19.2458 C.ar    1  UNL1        0.0268
      7 C           5.0696   -2.2474   18.9664 C.ar    1  UNL1        0.0372
      8 S           5.2126   -1.4023   20.1974 S.2     1  UNL1       -0.0803
      9 C           5.9247   -2.2152   21.2376 C.ar    1  UNL1        0.1008
     10 N           8.0648   -5.3198   23.6936 N.pl3   1  UNL1       -0.3045
     11 H           8.5090   -6.0781   23.2498 H       1  UNL1        0.1496
     12 C           8.1015   -5.1992   25.1883 C.3     1  UNL1        0.0745
     13 C           7.0095   -5.8083   26.0168 C.3     1  UNL1        0.0369
     14 C           7.0462   -5.6877   27.5115 C.3     1  UNL1        0.0741
     15 N           8.1748   -4.9581   28.1777 N.3     1  UNL1       -0.2689
     16 C           9.2668   -4.3490   27.3491 C.3     1  UNL1        0.0741
     17 C           9.2302   -4.4696   25.8544 C.3     1  UNL1        0.0369
     18 C           8.2116   -4.8374   29.6724 C.3     1  UNL1        0.0991
     19 C           7.2491   -3.9265   30.3751 C.ar    1  UNL1       -0.0061
     20 C           6.6622   -2.7519   29.6498 C.ar    1  UNL1       -0.0015
     21 C           5.6998   -1.8411   30.3526 C.ar    1  UNL1        0.0196
     22 C           5.3241   -2.1048   31.7806 C.ar    1  UNL1        0.1217
     23 C           5.9108   -3.2793   32.5059 C.ar    1  UNL1        0.0196
     24 C           6.8733   -4.1902   31.8032 C.ar    1  UNL1       -0.0015
     25 S           4.3616   -1.1939   32.4834 S.O2    1  UNL1        0.0572
     26 N           3.3991   -0.2830   33.1861 N.3     1  UNL1       -0.2035
     27 O           4.9101   -0.0251   31.7197 O.2     1  UNL1       -0.1532
     28 O           3.8130   -2.3626   33.2470 O.2     1  UNL1       -0.1532
     29 H           3.5326    0.6728   32.8558 H       1  UNL1        0.1442
     30 H           3.5665   -0.3218   34.1915 H       1  UNL1        0.1442
     31 O           6.0438   -0.5550   23.2325 O.3     1  UNL1       -0.4362
     32 C           3.0449   -0.6366   23.2159 C.3     1  UNL1        0.0342
     33 C           3.7841   -0.4911   24.5130 C.ar    1  UNL1        0.0124
     34 C           3.0239   -0.3863   25.8018 C.ar    1  UNL1       -0.0012
     35 C           3.7631   -0.2408   27.0990 C.ar    1  UNL1        0.0003
     36 C           5.2625   -0.2001   27.1072 C.ar    1  UNL1       -0.0012
     37 C           6.0228   -0.3048   25.8184 C.ar    1  UNL1        0.0124
     38 C           7.5221   -0.2641   25.8266 C.3     1  UNL1        0.0342
     39 C           5.2836   -0.4503   24.5213 C.ar    1  UNL1        0.1391
     40 C           3.0028   -0.1361   28.3878 C.2     1  UNL1        0.0109
     41 C           2.7617    1.2076   29.0092 C.2     1  UNL1        0.0780
     42 C           2.0013    1.3123   30.2980 C.1     1  UNL1        0.1011
     43 N           1.2411    1.4171   31.5868 N.1     1  UNL1       -0.1908
@<TRIPOS>BOND
     1    32    33    1
     2    33    34   ar
     3    34    35   ar
     4    35    40    1
     5    40    41    2
     6    41    42    1
     7    42    43    3
     8    35    36   ar
     9    36    37   ar
    10    37    38    1
    11    37    39   ar
    12    39    31    1
    13    31     1    1
    14     1     2   ar
    15     2     3   ar
    16     3    10    1
    17    10    12    1
    18    12    13    1
    19    13    14    1
    20    14    15    1
    21    15    18    1
    22    18    19    1
    23    19    20   ar
    24    20    21   ar
    25    21    22   ar
    26    22    25    1
    27    25    26    1
    28    25    27    2
    29    25    28    2
    30    22    23   ar
    31    23    24   ar
    32    15    16    1
    33    16    17    1
    34     3     4   ar
    35     4     5   ar
    36     5     6   ar
    37     6     7   ar
    38     7     8   ar
    39     8     9   ar
    40    39    33   ar
    41     9     1   ar
    42    17    12    1
    43     9     5   ar
    44    24    19   ar
    45    10    11    1
    46    26    29    1
    47    26    30    1
@<TRIPOS>MOLECULE
*****
 43 47 0 0 0
SMALL
GASTEIGER

@<TRIPOS>ATOM
      1 C           5.1149   -0.8241   30.1192 C.ar    1  UNL1        0.2394
      2 N           3.6558   -0.5372   30.3161 N.ar    1  UNL1       -0.1782
      3 C           2.6885   -0.7638   29.1924 C.ar    1  UNL1        0.2194
      4 N           3.1802   -1.2773   27.8715 N.ar    1  UNL1       -0.2131
      5 C           4.6393   -1.5641   27.6745 C.ar    1  UNL1        0.0952
      6 C           5.4115   -2.0736   26.4938 C.ar    1  UNL1        0.0268
      7 C           6.8561   -2.1619   26.8879 C.ar    1  UNL1        0.0372
      8 S           6.9767   -1.7070   28.3122 S.2     1  UNL1       -0.0803
      9 C           5.6066   -1.3376   28.7984 C.ar    1  UNL1        0.1008
     10 N           1.2294   -0.4769   29.3894 N.pl3   1  UNL1       -0.3045
     11 H           0.6709   -1.0997   29.9085 H       1  UNL1        0.1496
     12 C           0.6212    0.7590   28.7955 C.3     1  UNL1        0.0745
     13 C           1.2217    2.1031   29.0831 C.3     1  UNL1        0.0369
     14 C           0.6134    3.3389   28.4891 C.3     1  UNL1        0.0741
     15 N          -0.5953    3.2306   27.6075 N.3     1  UNL1       -0.2689
     16 C          -1.1958    1.8865   27.3199 C.3     1  UNL1        0.0741
     17 C          -0.5876    0.6507   27.9139 C.3     1  UNL1        0.0369
     18 C          -1.2036    4.4665   27.0135 C.3     1  UNL1        0.0991
     19 C          -2.4513    4.3653   26.1871 C.ar    1  UNL1       -0.0061
     20 C          -3.7951    4.5182   26.8359 C.ar    1  UNL1       -0.0015
     21 C          -5.0427    4.4171   26.0094 C.ar    1  UNL1        0.0196
     22 C          -4.9467    4.1631   24.5342 C.ar    1  UNL1        0.1217
     23 C          -3.6029    4.0102   23.8854 C.ar    1  UNL1        0.0196
     24 C          -2.3552    4.1113   24.7119 C.ar    1  UNL1       -0.0015
     25 S          -6.1944    4.0619   23.7078 S.O2    1  UNL1        0.0572
     26 N          -7.4421    3.9608   22.8813 N.3     1  UNL1       -0.2035
     27 O          -5.4648    3.2118   22.7103 O.2     1  UNL1       -0.1532
     28 O          -6.9240    4.9121   24.7052 O.2     1  UNL1       -0.1532
     29 H          -7.2571    3.3929   22.0545 H       1  UNL1        0.1442
     30 H          -7.7360    4.8943   22.5938 H       1  UNL1        0.1442
     31 O           6.0822   -0.5976   31.2430 O.3     1  UNL1       -0.4362
     32 C           5.1121   -2.7949   33.0405 C.3     1  UNL1        0.0342
     33 C           5.0886   -1.3722   33.5152 C.ar    1  UNL1        0.0124
     34 C           4.5801   -1.0481   34.8886 C.ar    1  UNL1       -0.0012
     35 C           4.5566    0.3747   35.3633 C.ar    1  UNL1        0.0003
     36 C           5.0416    1.4733   34.4646 C.ar    1  UNL1       -0.0012
     37 C           5.5501    1.1492   33.0911 C.ar    1  UNL1        0.0124
     38 C           6.0351    2.2478   32.1924 C.3     1  UNL1        0.0342
     39 C           5.5736   -0.2735   32.6164 C.ar    1  UNL1        0.1391
     40 C           4.0480    0.6987   36.7368 C.2     1  UNL1        0.0109
     41 C           3.0642    1.8147   36.9283 C.2     1  UNL1        0.0780
     42 C           2.5556    2.1387   38.3018 C.1     1  UNL1        0.1011
     43 N           2.0471    2.4627   39.6753 N.1     1  UNL1       -0.1908
@<TRIPOS>BOND
     1    32    33    1
     2    33    34   ar
     3    34    35   ar
     4    35    40    1
     5    40    41    2
     6    41    42    1
     7    42    43    3
     8    35    36   ar
     9    36    37   ar
    10    37    38    1
    11    37    39   ar
    12    39    31    1
    13    31     1    1
    14     1     2   ar
    15     2     3   ar
    16     3    10    1
    17    10    12    1
    18    12    13    1
    19    13    14    1
    20    14    15    1
    21    15    18    1
    22    18    19    1
    23    19    20   ar
    24    20    21   ar
    25    21    22   ar
    26    22    25    1
    27    25    26    1
    28    25    27    2
    29    25    28    2
    30    22    23   ar
    31    23    24   ar
    32    15    16    1
    33    16    17    1
    34     3     4   ar
    35     4     5   ar
    36     5     6   ar
    37     6     7   ar
    38     7     8   ar
    39     8     9   ar
    40    39    33   ar
    41     9     1   ar
    42    17    12    1
    43     9     5   ar
    44    24    19   ar
    45    10    11    1
    46    26    29    1
    47    26    30    1
@<TRIPOS>MOLECULE
*****
 43 47 0 0 0
SMALL
GASTEIGER

@<TRIPOS>ATOM
      1 C           0.8843    2.1526   25.2701 C.ar    1  UNL1        0.2394
      2 N           1.2957    1.1602   26.3170 N.ar    1  UNL1       -0.1782
      3 C           0.4058    0.9020   27.4965 C.ar    1  UNL1        0.2194
      4 N          -0.8956    1.6361   27.6293 N.ar    1  UNL1       -0.2131
      5 C          -1.3070    2.6284   26.5824 C.ar    1  UNL1        0.0952
      6 C          -2.5224    3.4966   26.4450 C.ar    1  UNL1        0.0268
      7 C          -2.3837    4.2915   25.1805 C.ar    1  UNL1        0.0372
      8 S          -1.0825    3.9145   24.5364 S.2     1  UNL1       -0.0803
      9 C          -0.4171    2.8867   25.4028 C.ar    1  UNL1        0.1008
     10 N           0.8173   -0.0905   28.5434 N.pl3   1  UNL1       -0.3045
     11 H           0.4926   -1.0187   28.4964 H       1  UNL1        0.1496
     12 C           1.7233    0.3315   29.6619 C.3     1  UNL1        0.0745
     13 C           1.9010    1.7877   29.9744 C.3     1  UNL1        0.0369
     14 C           2.8070    2.2097   31.0930 C.3     1  UNL1        0.0741
     15 N           3.5353    1.1753   31.8990 N.3     1  UNL1       -0.2689
     16 C           3.3576   -0.2809   31.5865 C.3     1  UNL1        0.0741
     17 C           2.4516   -0.7029   30.4680 C.3     1  UNL1        0.0369
     18 C           4.4414    1.5972   33.0176 C.3     1  UNL1        0.0991
     19 C           3.8984    1.7428   34.4082 C.ar    1  UNL1       -0.0061
     20 C           4.3440    0.8035   35.4896 C.ar    1  UNL1       -0.0015
     21 C           3.8009    0.9491   36.8801 C.ar    1  UNL1        0.0196
     22 C           2.8123    2.0340   37.1895 C.ar    1  UNL1        0.1217
     23 C           2.3667    2.9732   36.1082 C.ar    1  UNL1        0.0196
     24 C           2.9097    2.8276   34.7175 C.ar    1  UNL1       -0.0015
     25 S           2.2692    2.1796   38.5801 S.O2    1  UNL1        0.0572
     26 N           1.7262    2.3252   39.9707 N.3     1  UNL1       -0.2035
     27 O           3.4251    1.3869   39.1145 O.2     1  UNL1       -0.1532
     28 O           1.1134    2.9723   38.0457 O.2     1  UNL1       -0.1532
     29 H           2.3442    1.8500   40.6285 H       1  UNL1        0.1442
     30 H           0.7957    1.9099   40.0176 H       1  UNL1        0.1442
     31 O           1.7742    2.4108   24.0905 O.3     1  UNL1       -0.4362
     32 C           4.2095    0.7312   24.5890 C.3     1  UNL1        0.0342
     33 C           3.3366    0.4528   23.4014 C.ar    1  UNL1        0.0124
     34 C           3.6814   -0.6654   22.4629 C.ar    1  UNL1       -0.0012
     35 C           2.8084   -0.9439   21.2752 C.ar    1  UNL1        0.0003
     36 C           1.5909   -0.1042   21.0260 C.ar    1  UNL1       -0.0012
     37 C           1.2460    1.0141   21.9644 C.ar    1  UNL1        0.0124
     38 C           0.0285    1.8539   21.7152 C.3     1  UNL1        0.0342
     39 C           2.1189    1.2926   23.1521 C.ar    1  UNL1        0.1391
     40 C           3.1533   -2.0622   20.3367 C.2     1  UNL1        0.0109
     41 C           4.0768   -3.1570   20.7820 C.2     1  UNL1        0.0780
     42 C           4.4216   -4.2753   19.8435 C.1     1  UNL1        0.1011
     43 N           4.7665   -5.3935   18.9051 N.1     1  UNL1       -0.1908
@<TRIPOS>BOND
     1    32    33    1
     2    33    34   ar
     3    34    35   ar
     4    35    40    1
     5    40    41    2
     6    41    42    1
     7    42    43    3
     8    35    36   ar
     9    36    37   ar
    10    37    38    1
    11    37    39   ar
    12    39    31    1
    13    31     1    1
    14     1     2   ar
    15     2     3   ar
    16     3    10    1
    17    10    12    1
    18    12    13    1
    19    13    14    1
    20    14    15    1
    21    15    18    1
    22    18    19    1
    23    19    20   ar
    24    20    21   ar
    25    21    22   ar
    26    22    25    1
    27    25    26    1
    28    25    27    2
    29    25    28    2
    30    22    23   ar
    31    23    24   ar
    32    15    16    1
    33    16    17    1
    34     3     4   ar
    35     4     5   ar
    36     5     6   ar
    37     6     7   ar
    38     7     8   ar
    39     8     9   ar
    40    39    33   ar
    41     9     1   ar
    42    17    12    1
    43     9     5   ar
    44    24    19   ar
    45    10    11    1
    46    26    29    1
    47    26    30    1
@<TRIPOS>MOLECULE
*****
 43 47 0 0 0
SMALL
GASTEIGER

@<TRIPOS>ATOM
      1 C           6.5513   -3.2793   30.5169 C.ar    1  UNL1        0.2394
      2 N           5.9038   -2.0409   29.9717 N.ar    1  UNL1       -0.1782
      3 C           5.6102   -1.9318   28.5049 C.ar    1  UNL1        0.2194
      4 N           5.9640   -3.0610   27.5830 N.ar    1  UNL1       -0.2131
      5 C           6.6114   -4.2994   28.1282 C.ar    1  UNL1        0.0952
      6 C           7.0704   -5.5657   27.4680 C.ar    1  UNL1        0.0268
      7 C           7.6478   -6.4574   28.5270 C.ar    1  UNL1        0.0372
      8 S           7.5456   -5.7423   29.8416 S.2     1  UNL1       -0.0803
      9 C           6.9051   -4.4085   29.5951 C.ar    1  UNL1        0.1008
     10 N           4.9627   -0.6933   27.9597 N.pl3   1  UNL1       -0.3045
     11 H           5.1801   -0.3835   27.0509 H       1  UNL1        0.1496
     12 C           3.9839    0.0730   28.7993 C.3     1  UNL1        0.0745
     13 C           2.6675   -0.5442   29.1679 C.3     1  UNL1        0.0369
     14 C           1.6887    0.2221   30.0075 C.3     1  UNL1        0.0741
     15 N           2.0264    1.6056   30.4784 N.3     1  UNL1       -0.2689
     16 C           3.3429    2.2228   30.1097 C.3     1  UNL1        0.0741
     17 C           4.3217    1.4565   29.2701 C.3     1  UNL1        0.0369
     18 C           1.0477    2.3720   31.3180 C.3     1  UNL1        0.0991
     19 C           1.4283    2.8107   32.7010 C.ar    1  UNL1       -0.0061
     20 C           2.3111    1.9418   33.5471 C.ar    1  UNL1       -0.0015
     21 C           2.6916    2.3805   34.9301 C.ar    1  UNL1        0.0196
     22 C           2.1894    3.6880   35.4670 C.ar    1  UNL1        0.1217
     23 C           1.3066    4.5568   34.6209 C.ar    1  UNL1        0.0196
     24 C           0.9260    4.1181   33.2379 C.ar    1  UNL1       -0.0015
     25 S           2.5699    4.1267   36.8500 S.O2    1  UNL1        0.0572
     26 N           2.9504    4.5653   38.2330 N.3     1  UNL1       -0.2035
     27 O           1.3016    3.5328   37.3874 O.2     1  UNL1       -0.1532
     28 O           3.8382    4.7206   36.3127 O.2     1  UNL1       -0.1532
     29 H           2.2236    4.2840   38.8910 H       1  UNL1        0.1442
     30 H           3.0520    5.5801   38.2520 H       1  UNL1        0.1442
     31 O           6.8449   -3.3884   31.9838 O.3     1  UNL1       -0.4362
     32 C           4.1975   -2.7679   33.2514 C.3     1  UNL1        0.0342
     33 C           5.3770   -1.8759   33.5028 C.ar    1  UNL1        0.0124
     34 C           5.2328   -0.6736   34.3881 C.ar    1  UNL1       -0.0012
     35 C           6.4123    0.2184   34.6395 C.ar    1  UNL1        0.0003
     36 C           7.7358   -0.0918   34.0058 C.ar    1  UNL1       -0.0012
     37 C           7.8801   -1.2942   33.1205 C.ar    1  UNL1        0.0124
     38 C           9.2037   -1.6044   32.4868 C.3     1  UNL1        0.0342
     39 C           6.7007   -2.1862   32.8690 C.ar    1  UNL1        0.1391
     40 C           6.2680    1.4208   35.5248 C.2     1  UNL1        0.0109
     41 C           6.2077    1.2526   37.0141 C.2     1  UNL1        0.0780
     42 C           6.0634    2.4549   37.8994 C.1     1  UNL1        0.1011
     43 N           5.9192    3.6572   38.7847 N.1     1  UNL1       -0.1908
@<TRIPOS>BOND
     1    32    33    1
     2    33    34   ar
     3    34    35   ar
     4    35    40    1
     5    40    41    2
     6    41    42    1
     7    42    43    3
     8    35    36   ar
     9    36    37   ar
    10    37    38    1
    11    37    39   ar
    12    39    31    1
    13    31     1    1
    14     1     2   ar
    15     2     3   ar
    16     3    10    1
    17    10    12    1
    18    12    13    1
    19    13    14    1
    20    14    15    1
    21    15    18    1
    22    18    19    1
    23    19    20   ar
    24    20    21   ar
    25    21    22   ar
    26    22    25    1
    27    25    26    1
    28    25    27    2
    29    25    28    2
    30    22    23   ar
    31    23    24   ar
    32    15    16    1
    33    16    17    1
    34     3     4   ar
    35     4     5   ar
    36     5     6   ar
    37     6     7   ar
    38     7     8   ar
    39     8     9   ar
    40    39    33   ar
    41     9     1   ar
    42    17    12    1
    43     9     5   ar
    44    24    19   ar
    45    10    11    1
    46    26    29    1
    47    26    30    1
@<TRIPOS>MOLECULE
*****
 43 47 0 0 0
SMALL
GASTEIGER

@<TRIPOS>ATOM
      1 C          -1.7071    3.9554   22.9179 C.ar    1  UNL1        0.2394
      2 N          -0.7565    3.6538   21.7976 N.ar    1  UNL1       -0.1782
      3 C          -1.2829    3.1918   20.4712 C.ar    1  UNL1        0.2194
      4 N          -2.7600    3.0314   20.2651 N.ar    1  UNL1       -0.2131
      5 C          -3.7107    3.3330   21.3855 C.ar    1  UNL1        0.0952
      6 C          -5.2064    3.2678   21.4776 C.ar    1  UNL1        0.0268
      7 C          -5.6044    3.6896   22.8609 C.ar    1  UNL1        0.0372
      8 S          -4.3546    4.0154   23.6238 S.2     1  UNL1       -0.0803
      9 C          -3.1842    3.7951   22.7119 C.ar    1  UNL1        0.1008
     10 N          -0.3322    2.8901   19.3508 N.pl3   1  UNL1       -0.3045
     11 H          -0.2926    3.4828   18.5657 H       1  UNL1        0.1496
     12 C           0.5583    1.6854   19.4266 C.3     1  UNL1        0.0745
     13 C           1.8528    1.6608   18.6693 C.3     1  UNL1        0.0369
     14 C           2.7433    0.4560   18.7451 C.3     1  UNL1        0.0741
     15 N           2.3393   -0.7240   19.5782 N.3     1  UNL1       -0.2689
     16 C           1.0447   -0.6994   20.3356 C.3     1  UNL1        0.0741
     17 C           0.1543    0.5054   20.2598 C.3     1  UNL1        0.0369
     18 C           3.2297   -1.9288   19.6541 C.3     1  UNL1        0.0991
     19 C           3.9337   -2.2614   20.9362 C.ar    1  UNL1       -0.0061
     20 C           3.7966   -1.3556   22.1240 C.ar    1  UNL1       -0.0015
     21 C           4.5006   -1.6883   23.4060 C.ar    1  UNL1        0.0196
     22 C           5.3417   -2.9267   23.5003 C.ar    1  UNL1        0.1217
     23 C           5.4788   -3.8325   22.3126 C.ar    1  UNL1        0.0196
     24 C           4.7748   -3.4999   21.0305 C.ar    1  UNL1       -0.0015
     25 S           6.0457   -3.2594   24.7824 S.O2    1  UNL1        0.0572
     26 N           6.7497   -3.5920   26.0645 N.3     1  UNL1       -0.2035
     27 O           6.7218   -4.4176   24.1106 O.2     1  UNL1       -0.1532
     28 O           5.3695   -2.1011   25.4542 O.2     1  UNL1       -0.1532
     29 H           7.3427   -4.4100   25.9244 H       1  UNL1        0.1442
     30 H           6.0601   -3.7921   26.7890 H       1  UNL1        0.1442
     31 O          -1.1807    4.4174   24.2444 O.3     1  UNL1       -0.4362
     32 C           1.6127    3.3765   23.9076 C.3     1  UNL1        0.0342
     33 C           0.7679    2.9007   25.0521 C.ar    1  UNL1        0.0124
     34 C           1.3198    1.9044   26.0282 C.ar    1  UNL1       -0.0012
     35 C           0.4749    1.4286   27.1728 C.ar    1  UNL1        0.0003
     36 C          -0.9217    1.9491   27.3412 C.ar    1  UNL1       -0.0012
     37 C          -1.4736    2.9454   26.3650 C.ar    1  UNL1        0.0124
     38 C          -2.8702    3.4658   26.5334 C.3     1  UNL1        0.0342
     39 C          -0.6288    3.4212   25.2205 C.ar    1  UNL1        0.1391
     40 C           1.0269    0.4323   28.1489 C.2     1  UNL1        0.0109
     41 C           1.6522    0.9032   29.4284 C.2     1  UNL1        0.0780
     42 C           2.2041   -0.0931   30.4046 C.1     1  UNL1        0.1011
     43 N           2.7560   -1.0894   31.3807 N.1     1  UNL1       -0.1908
@<TRIPOS>BOND
     1    32    33    1
     2    33    34   ar
     3    34    35   ar
     4    35    40    1
     5    40    41    2
     6    41    42    1
     7    42    43    3
     8    35    36   ar
     9    36    37   ar
    10    37    38    1
    11    37    39   ar
    12    39    31    1
    13    31     1    1
    14     1     2   ar
    15     2     3   ar
    16     3    10    1
    17    10    12    1
    18    12    13    1
    19    13    14    1
    20    14    15    1
    21    15    18    1
    22    18    19    1
    23    19    20   ar
    24    20    21   ar
    25    21    22   ar
    26    22    25    1
    27    25    26    1
    28    25    27    2
    29    25    28    2
    30    22    23   ar
    31    23    24   ar
    32    15    16    1
    33    16    17    1
    34     3     4   ar
    35     4     5   ar
    36     5     6   ar
    37     6     7   ar
    38     7     8   ar
    39     8     9   ar
    40    39    33   ar
    41     9     1   ar
    42    17    12    1
    43     9     5   ar
    44    24    19   ar
    45    10    11    1
    46    26    29    1
    47    26    30    1
@<TRIPOS>MOLECULE
*****
 43 47 0 0 0
SMALL
GASTEIGER

@<TRIPOS>ATOM
      1 C           0.5128    2.4179   25.1420 C.ar    1  UNL1        0.2394
      2 N           0.8051    1.3117   26.1119 N.ar    1  UNL1       -0.1782
      3 C          -0.1217    1.0602   27.2641 C.ar    1  UNL1        0.2194
      4 N          -1.3409    1.9149   27.4465 N.ar    1  UNL1       -0.2131
      5 C          -1.6331    3.0212   26.4766 C.ar    1  UNL1        0.0952
      6 C          -2.7494    4.0202   26.4002 C.ar    1  UNL1        0.0268
      7 C          -2.5124    4.8892   25.2007 C.ar    1  UNL1        0.0372
      8 S          -1.2497    4.4272   24.5358 S.2     1  UNL1       -0.0803
      9 C          -0.7062    3.2727   25.3243 C.ar    1  UNL1        0.1008
     10 N           0.1705   -0.0461   28.2341 N.pl3   1  UNL1       -0.3045
     11 H          -0.5246   -0.7096   28.4481 H       1  UNL1        0.1496
     12 C           1.5220   -0.1415   28.8779 C.3     1  UNL1        0.0745
     13 C           2.6326   -0.8745   28.1855 C.3     1  UNL1        0.0369
     14 C           3.9840   -0.9699   28.8294 C.3     1  UNL1        0.0741
     15 N           4.2249   -0.3324   30.1656 N.3     1  UNL1       -0.2689
     16 C           3.1143    0.4005   30.8580 C.3     1  UNL1        0.0741
     17 C           1.7629    0.4960   30.2142 C.3     1  UNL1        0.0369
     18 C           5.5763   -0.4278   30.8095 C.3     1  UNL1        0.0991
     19 C           6.2626   -1.7570   30.9192 C.ar    1  UNL1       -0.0061
     20 C           7.3475   -2.1233   29.9501 C.ar    1  UNL1       -0.0015
     21 C           8.0337   -3.4525   30.0598 C.ar    1  UNL1        0.0196
     22 C           7.6352   -4.4155   31.1386 C.ar    1  UNL1        0.1217
     23 C           6.5505   -4.0493   32.1077 C.ar    1  UNL1        0.0196
     24 C           5.8641   -2.7201   31.9980 C.ar    1  UNL1       -0.0015
     25 S           8.3215   -5.7448   31.2483 S.O2    1  UNL1        0.0572
     26 N           9.0079   -7.0740   31.3580 N.3     1  UNL1       -0.2035
     27 O           9.5360   -5.1730   30.5788 O.2     1  UNL1       -0.1532
     28 O           7.1071   -6.3165   31.9178 O.2     1  UNL1       -0.1532
     29 H           9.9420   -7.0087   30.9537 H       1  UNL1        0.1442
     30 H           8.4679   -7.7780   30.8547 H       1  UNL1        0.1442
     31 O           1.4397    2.6694   23.9897 O.3     1  UNL1       -0.4362
     32 C           3.7997    0.9000   24.5371 C.3     1  UNL1        0.0342
     33 C           2.9582    0.6718   23.3165 C.ar    1  UNL1        0.0124
     34 C           3.2968   -0.4412   22.3695 C.ar    1  UNL1       -0.0012
     35 C           2.4553   -0.6694   21.1488 C.ar    1  UNL1        0.0003
     36 C           1.2754    0.2153   20.8752 C.ar    1  UNL1       -0.0012
     37 C           0.9368    1.3283   21.8221 C.ar    1  UNL1        0.0124
     38 C          -0.2431    2.2130   21.5485 C.3     1  UNL1        0.0342
     39 C           1.7782    1.5565   23.0427 C.ar    1  UNL1        0.1391
     40 C           2.7939   -1.7824   20.2019 C.2     1  UNL1        0.0109
     41 C           3.9088   -2.7313   20.5279 C.2     1  UNL1        0.0780
     42 C           4.2474   -3.8443   19.5809 C.1     1  UNL1        0.1011
     43 N           4.5860   -4.9573   18.6340 N.1     1  UNL1       -0.1908
@<TRIPOS>BOND
     1    32    33    1
     2    33    34   ar
     3    34    35   ar
     4    35    40    1
     5    40    41    2
     6    41    42    1
     7    42    43    3
     8    35    36   ar
     9    36    37   ar
    10    37    38    1
    11    37    39   ar
    12    39    31    1
    13    31     1    1
    14     1     2   ar
    15     2     3   ar
    16     3    10    1
    17    10    12    1
    18    12    13    1
    19    13    14    1
    20    14    15    1
    21    15    18    1
    22    18    19    1
    23    19    20   ar
    24    20    21   ar
    25    21    22   ar
    26    22    25    1
    27    25    26    1
    28    25    27    2
    29    25    28    2
    30    22    23   ar
    31    23    24   ar
    32    15    16    1
    33    16    17    1
    34     3     4   ar
    35     4     5   ar
    36     5     6   ar
    37     6     7   ar
    38     7     8   ar
    39     8     9   ar
    40    39    33   ar
    41     9     1   ar
    42    17    12    1
    43     9     5   ar
    44    24    19   ar
    45    10    11    1
    46    26    29    1
    47    26    30    1
@<TRIPOS>MOLECULE
*****
 43 47 0 0 0
SMALL
GASTEIGER

@<TRIPOS>ATOM
      1 C           3.4472   -0.5370   30.3878 C.ar    1  UNL1        0.2394
      2 N           4.7942   -1.1260   30.0897 N.ar    1  UNL1       -0.1782
      3 C           5.4513   -0.8639   28.7672 C.ar    1  UNL1        0.2194
      4 N           4.7616   -0.0128   27.7425 N.ar    1  UNL1       -0.2131
      5 C           3.4147    0.5762   28.0405 C.ar    1  UNL1        0.0952
      6 C           2.4995    1.4480   27.2328 C.ar    1  UNL1        0.0268
      7 C           1.2766    1.7246   28.0562 C.ar    1  UNL1        0.0372
      8 S           1.4361    1.0239   29.3729 S.2     1  UNL1       -0.0803
      9 C           2.7575    0.3141   29.3632 C.ar    1  UNL1        0.1008
     10 N           6.7983   -1.4530   28.4691 N.pl3   1  UNL1       -0.3045
     11 H           7.5271   -1.3724   29.1261 H       1  UNL1        0.1496
     12 C           7.0349   -2.1648   27.1701 C.3     1  UNL1        0.0745
     13 C           6.6120   -3.5951   27.0108 C.3     1  UNL1        0.0369
     14 C           6.8486   -4.3069   25.7118 C.3     1  UNL1        0.0741
     15 N           7.5079   -3.5884   24.5721 N.3     1  UNL1       -0.2689
     16 C           7.9308   -2.1581   24.7314 C.3     1  UNL1        0.0741
     17 C           7.6942   -1.4463   26.0304 C.3     1  UNL1        0.0369
     18 C           7.7445   -4.3001   23.2731 C.3     1  UNL1        0.0991
     19 C           7.1037   -3.7958   22.0141 C.ar    1  UNL1       -0.0061
     20 C           7.9538   -3.2378   20.9113 C.ar    1  UNL1       -0.0015
     21 C           7.3130   -2.7336   19.6524 C.ar    1  UNL1        0.0196
     22 C           5.8221   -2.7871   19.4962 C.ar    1  UNL1        0.1217
     23 C           4.9720   -3.3451   20.5989 C.ar    1  UNL1        0.0196
     24 C           5.6128   -3.8494   21.8579 C.ar    1  UNL1       -0.0015
     25 S           5.1813   -2.2828   18.2372 S.O2    1  UNL1        0.0572
     26 N           4.5405   -1.7785   16.9783 N.3     1  UNL1       -0.2035
     27 O           6.4984   -2.3831   17.5266 O.2     1  UNL1       -0.1532
     28 O           3.8641   -2.1825   18.9478 O.2     1  UNL1       -0.1532
     29 H           5.2397   -1.7284   16.2373 H       1  UNL1        0.1442
     30 H           4.1524   -0.8497   17.1428 H       1  UNL1        0.1442
     31 O           2.7900   -0.7991   31.7104 O.3     1  UNL1       -0.4362
     32 C           4.6268   -2.5682   33.2906 C.3     1  UNL1        0.0342
     33 C           4.3365   -1.1748   33.7640 C.ar    1  UNL1        0.0124
     34 C           4.9647   -0.6659   35.0275 C.ar    1  UNL1       -0.0012
     35 C           4.6744    0.7276   35.5010 C.ar    1  UNL1        0.0003
     36 C           3.7561    1.6121   34.7109 C.ar    1  UNL1       -0.0012
     37 C           3.1279    1.1032   33.4474 C.ar    1  UNL1        0.0124
     38 C           2.2096    1.9877   32.6573 C.3     1  UNL1        0.0342
     39 C           3.4182   -0.2902   32.9739 C.ar    1  UNL1        0.1391
     40 C           5.3026    1.2364   36.7645 C.2     1  UNL1        0.0109
     41 C           4.4390    1.7631   37.8721 C.2     1  UNL1        0.0780
     42 C           5.0672    2.2720   39.1357 C.1     1  UNL1        0.1011
     43 N           5.6953    2.7808   40.3992 N.1     1  UNL1       -0.1908
@<TRIPOS>BOND
     1    32    33    1
     2    33    34   ar
     3    34    35   ar
     4    35    40    1
     5    40    41    2
     6    41    42    1
     7    42    43    3
     8    35    36   ar
     9    36    37   ar
    10    37    38    1
    11    37    39   ar
    12    39    31    1
    13    31     1    1
    14     1     2   ar
    15     2     3   ar
    16     3    10    1
    17    10    12    1
    18    12    13    1
    19    13    14    1
    20    14    15    1
    21    15    18    1
    22    18    19    1
    23    19    20   ar
    24    20    21   ar
    25    21    22   ar
    26    22    25    1
    27    25    26    1
    28    25    27    2
    29    25    28    2
    30    22    23   ar
    31    23    24   ar
    32    15    16    1
    33    16    17    1
    34     3     4   ar
    35     4     5   ar
    36     5     6   ar
    37     6     7   ar
    38     7     8   ar
    39     8     9   ar
    40    39    33   ar
    41     9     1   ar
    42    17    12    1
    43     9     5   ar
    44    24    19   ar
    45    10    11    1
    46    26    29    1
    47    26    30    1
@<TRIPOS>MOLECULE
*****
 43 47 0 0 0
SMALL
GASTEIGER

@<TRIPOS>ATOM
      1 C           6.8216   -2.2286   31.2641 C.ar    1  UNL1        0.2394
      2 N           6.4302   -0.9489   30.5865 N.ar    1  UNL1       -0.1782
      3 C           6.0617   -0.9524   29.1325 C.ar    1  UNL1        0.2194
      4 N           6.0845   -2.2357   28.3561 N.ar    1  UNL1       -0.2131
      5 C           6.4759   -3.5154   29.0337 C.ar    1  UNL1        0.0952
      6 C           6.5894   -4.9237   28.5302 C.ar    1  UNL1        0.0268
      7 C           7.0281   -5.7906   29.6730 C.ar    1  UNL1        0.0372
      8 S           7.1857   -4.9180   30.8829 S.2     1  UNL1       -0.0803
      9 C           6.8444   -3.5118   30.4878 C.ar    1  UNL1        0.1008
     10 N           5.6703    0.3274   28.4549 N.pl3   1  UNL1       -0.3045
     11 H           5.8461    1.1907   28.8941 H       1  UNL1        0.1496
     12 C           5.0111    0.2916   27.1080 C.3     1  UNL1        0.0745
     13 C           3.5640   -0.0858   26.9910 C.3     1  UNL1        0.0369
     14 C           2.9048   -0.1215   25.6441 C.3     1  UNL1        0.0741
     15 N           3.6925    0.2201   24.4142 N.3     1  UNL1       -0.2689
     16 C           5.1395    0.5975   24.5312 C.3     1  UNL1        0.0741
     17 C           5.7988    0.6332   25.8781 C.3     1  UNL1        0.0369
     18 C           3.0333    0.1844   23.0672 C.3     1  UNL1        0.0991
     19 C           3.3501   -0.9231   22.1064 C.ar    1  UNL1       -0.0061
     20 C           4.1615   -2.1004   22.5600 C.ar    1  UNL1       -0.0015
     21 C           4.4782   -3.2078   21.5992 C.ar    1  UNL1        0.0196
     22 C           3.9836   -3.1380   20.1848 C.ar    1  UNL1        0.1217
     23 C           3.1723   -1.9607   19.7312 C.ar    1  UNL1        0.0196
     24 C           2.8555   -0.8533   20.6920 C.ar    1  UNL1       -0.0015
     25 S           4.3004   -4.2455   19.2240 S.O2    1  UNL1        0.0572
     26 N           4.6171   -5.3529   18.2632 N.3     1  UNL1       -0.2035
     27 O           3.7079   -5.2413   20.1765 O.2     1  UNL1       -0.1532
     28 O           4.8928   -3.2496   18.2715 O.2     1  UNL1       -0.1532
     29 H           4.3091   -6.2424   18.6561 H       1  UNL1        0.1442
     30 H           5.6235   -5.3837   18.0997 H       1  UNL1        0.1442
     31 O           7.1901   -2.2250   32.7182 O.3     1  UNL1       -0.4362
     32 C           8.7920    0.0683   33.8020 C.3     1  UNL1        0.0342
     33 C           7.3529   -0.0924   34.1931 C.ar    1  UNL1        0.0124
     34 C           6.7147    0.8935   35.1262 C.ar    1  UNL1       -0.0012
     35 C           5.2754    0.7328   35.5173 C.ar    1  UNL1        0.0003
     36 C           4.4745   -0.4138   34.9755 C.ar    1  UNL1       -0.0012
     37 C           5.1127   -1.3998   34.0423 C.ar    1  UNL1        0.0124
     38 C           4.3118   -2.5464   33.5004 C.3     1  UNL1        0.0342
     39 C           6.5519   -1.2391   33.6512 C.ar    1  UNL1        0.1391
     40 C           4.6373    1.7188   36.4505 C.2     1  UNL1        0.0109
     41 C           4.4129    1.3541   37.8880 C.2     1  UNL1        0.0780
     42 C           3.7747    2.3401   38.8211 C.1     1  UNL1        0.1011
     43 N           3.1365    3.3261   39.7541 N.1     1  UNL1       -0.1908
@<TRIPOS>BOND
     1    32    33    1
     2    33    34   ar
     3    34    35   ar
     4    35    40    1
     5    40    41    2
     6    41    42    1
     7    42    43    3
     8    35    36   ar
     9    36    37   ar
    10    37    38    1
    11    37    39   ar
    12    39    31    1
    13    31     1    1
    14     1     2   ar
    15     2     3   ar
    16     3    10    1
    17    10    12    1
    18    12    13    1
    19    13    14    1
    20    14    15    1
    21    15    18    1
    22    18    19    1
    23    19    20   ar
    24    20    21   ar
    25    21    22   ar
    26    22    25    1
    27    25    26    1
    28    25    27    2
    29    25    28    2
    30    22    23   ar
    31    23    24   ar
    32    15    16    1
    33    16    17    1
    34     3     4   ar
    35     4     5   ar
    36     5     6   ar
    37     6     7   ar
    38     7     8   ar
    39     8     9   ar
    40    39    33   ar
    41     9     1   ar
    42    17    12    1
    43     9     5   ar
    44    24    19   ar
    45    10    11    1
    46    26    29    1
    47    26    30    1
@<TRIPOS>MOLECULE
*****
 43 47 0 0 0
SMALL
GASTEIGER

@<TRIPOS>ATOM
      1 C          -1.2032    3.7367   23.4474 C.ar    1  UNL1        0.2394
      2 N          -0.5704    3.5002   22.1082 N.ar    1  UNL1       -0.1782
      3 C          -1.4265    3.1665   20.9227 C.ar    1  UNL1        0.2194
      4 N          -2.9155    3.0692   21.0762 N.ar    1  UNL1       -0.2131
      5 C          -3.5483    3.3058   22.4155 C.ar    1  UNL1        0.0952
      6 C          -4.9779    3.2791   22.8688 C.ar    1  UNL1        0.0268
      7 C          -5.0053    3.5964   24.3346 C.ar    1  UNL1        0.0372
      8 S          -3.5927    3.8192   24.7872 S.2     1  UNL1       -0.0803
      9 C          -2.6921    3.6395   23.6011 C.ar    1  UNL1        0.1008
     10 N          -0.7936    2.9299   19.5833 N.pl3   1  UNL1       -0.3045
     11 H          -1.0841    3.4540   18.8022 H       1  UNL1        0.1496
     12 C           0.2818    1.8949   19.4343 C.3     1  UNL1        0.0745
     13 C           1.4717    2.1696   18.5633 C.3     1  UNL1        0.0369
     14 C           2.5470    1.1346   18.4142 C.3     1  UNL1        0.0741
     15 N           2.4325   -0.1753   19.1361 N.3     1  UNL1       -0.2689
     16 C           1.2426   -0.4500   20.0071 C.3     1  UNL1        0.0741
     17 C           0.1672    0.5850   20.1562 C.3     1  UNL1        0.0369
     18 C           3.5079   -1.2104   18.9871 C.3     1  UNL1        0.0991
     19 C           4.1234   -1.8330   20.2051 C.ar    1  UNL1       -0.0061
     20 C           4.0298   -3.3148   20.4187 C.ar    1  UNL1       -0.0015
     21 C           4.6453   -3.9373   21.6366 C.ar    1  UNL1        0.0196
     22 C           5.3546   -3.0781   22.6410 C.ar    1  UNL1        0.1217
     23 C           5.4483   -1.5964   22.4274 C.ar    1  UNL1        0.0196
     24 C           4.8327   -0.9738   21.2095 C.ar    1  UNL1       -0.0015
     25 S           5.9702   -3.7007   23.8590 S.O2    1  UNL1        0.0572
     26 N           6.5858   -4.3232   25.0770 N.3     1  UNL1       -0.2035
     27 O           6.6777   -4.6988   22.9912 O.2     1  UNL1       -0.1532
     28 O           5.2626   -2.7025   24.7268 O.2     1  UNL1       -0.1532
     29 H           7.1789   -5.1043   24.7967 H       1  UNL1        0.1442
     30 H           5.8485   -4.6611   25.6956 H       1  UNL1        0.1442
     31 O          -0.3471    4.0705   24.6331 O.3     1  UNL1       -0.4362
     32 C           2.4245    4.3522   23.5198 C.3     1  UNL1        0.0342
     33 C           2.1206    3.2672   24.5098 C.ar    1  UNL1        0.0124
     34 C           3.2025    2.3229   24.9433 C.ar    1  UNL1       -0.0012
     35 C           2.8986    1.2378   25.9334 C.ar    1  UNL1        0.0003
     36 C           1.5129    1.0969   26.4900 C.ar    1  UNL1       -0.0012
     37 C           0.4309    2.0412   26.0566 C.ar    1  UNL1        0.0124
     38 C          -0.9547    1.9003   26.6132 C.3     1  UNL1        0.0342
     39 C           0.7348    3.1262   25.0665 C.ar    1  UNL1        0.1391
     40 C           3.9806    0.2935   26.3669 C.2     1  UNL1        0.0109
     41 C           3.7219   -0.6870   27.4720 C.2     1  UNL1        0.0780
     42 C           4.8038   -1.6313   27.9055 C.1     1  UNL1        0.1011
     43 N           5.8858   -2.5754   28.3389 N.1     1  UNL1       -0.1908
@<TRIPOS>BOND
     1    32    33    1
     2    33    34   ar
     3    34    35   ar
     4    35    40    1
     5    40    41    2
     6    41    42    1
     7    42    43    3
     8    35    36   ar
     9    36    37   ar
    10    37    38    1
    11    37    39   ar
    12    39    31    1
    13    31     1    1
    14     1     2   ar
    15     2     3   ar
    16     3    10    1
    17    10    12    1
    18    12    13    1
    19    13    14    1
    20    14    15    1
    21    15    18    1
    22    18    19    1
    23    19    20   ar
    24    20    21   ar
    25    21    22   ar
    26    22    25    1
    27    25    26    1
    28    25    27    2
    29    25    28    2
    30    22    23   ar
    31    23    24   ar
    32    15    16    1
    33    16    17    1
    34     3     4   ar
    35     4     5   ar
    36     5     6   ar
    37     6     7   ar
    38     7     8   ar
    39     8     9   ar
    40    39    33   ar
    41     9     1   ar
    42    17    12    1
    43     9     5   ar
    44    24    19   ar
    45    10    11    1
    46    26    29    1
    47    26    30    1
