@<TRIPOS>MOLECULE
*****
 31 33 0 0 0
SMALL
GASTEIGER

@<TRIPOS>ATOM
      1 O          -5.3788  -16.4871   23.1461 O.2     1  UNL1       -0.2907
      2 C          -6.2925  -17.6297   22.8149 C.2     1  UNL1        0.1819
      3 C          -7.7795  -17.4413   22.8703 C.3     1  UNL1        0.0745
      4 C          -8.6932  -18.5839   22.5392 C.3     1  UNL1        0.0375
      5 C          -8.1198  -19.9150   22.1527 C.3     1  UNL1        0.0690
      6 C          -6.6327  -20.1034   22.0973 C.2     1  UNL1        0.1201
      7 O          -6.0592  -21.4345   21.7107 O.2     1  UNL1       -0.5092
      8 C          -5.7191  -18.9608   22.4284 C.2     1  UNL1        0.0936
      9 H          -6.6300  -22.1483   21.5039 H       1  UNL1        0.2917
     10 C         -10.1803  -18.3954   22.5946 C.ar    1  UNL1       -0.0138
     11 C         -10.8583  -18.1637   23.9124 C.ar    1  UNL1        0.0674
     12 C         -12.3454  -17.9752   23.9678 C.ar    1  UNL1        0.0035
     13 C         -13.1545  -18.0184   22.7055 C.ar    1  UNL1       -0.0001
     14 C         -12.4764  -18.2501   21.3876 C.ar    1  UNL1        0.0035
     15 C         -10.9893  -18.4386   21.3322 C.ar    1  UNL1        0.0674
     16 C         -10.0492  -18.1205   25.1748 C.3     1  UNL1        0.4183
     17 F          -9.2401  -18.0773   26.4371 F       1  UNL1       -0.1659
     18 F          -9.8482  -16.6449   24.9954 F       1  UNL1       -0.1659
     19 F         -10.2502  -19.5961   25.3542 F       1  UNL1       -0.1659
     20 C         -10.3113  -18.6703   20.0144 C.3     1  UNL1        0.4183
     21 F          -9.6333  -18.9020   18.6966 F       1  UNL1       -0.1659
     22 F         -10.0939  -17.1935   19.8667 F       1  UNL1       -0.1659
     23 F         -10.5287  -20.1471   20.1622 F       1  UNL1       -0.1659
     24 S          -4.2319  -19.1493   22.3730 S.3     1  UNL1       -0.0806
     25 C          -3.4583  -18.6639   21.1831 C.ar    1  UNL1        0.0402
     26 C          -3.6924  -19.2783   19.8348 C.ar    1  UNL1        0.0073
     27 C          -2.9188  -18.7929   18.6449 C.ar    1  UNL1        0.0006
     28 C          -1.9109  -17.6932   18.8033 C.ar    1  UNL1        0.0009
     29 C          -1.6768  -17.0790   20.1515 C.ar    1  UNL1        0.0119
     30 C          -2.4504  -17.5643   21.3414 C.ar    1  UNL1        0.0636
     31 CL         -2.2163  -16.9500   22.6897 Cl      1  UNL1       -0.0817
@<TRIPOS>BOND
     1     1     2    2
     2     2     3    1
     3     3     4    1
     4     4    10    1
     5    10    11   ar
     6    11    16    1
     7    16    17    1
     8    16    18    1
     9    16    19    1
    10    11    12   ar
    11    12    13   ar
    12    13    14   ar
    13    14    15   ar
    14    15    20    1
    15    20    21    1
    16    20    22    1
    17    20    23    1
    18     4     5    1
    19     5     6    1
    20     6     7    1
    21     6     8    2
    22     8    24    1
    23    24    25    1
    24    25    26   ar
    25    26    27   ar
    26    27    28   ar
    27    28    29   ar
    28    29    30   ar
    29    30    31    1
    30     8     2    1
    31    30    25   ar
    32    15    10   ar
    33     7     9    1
@<TRIPOS>MOLECULE
*****
 31 33 0 0 0
SMALL
GASTEIGER

@<TRIPOS>ATOM
      1 O          -5.3676  -16.5054   23.1407 O.2     1  UNL1       -0.2907
      2 C          -6.2848  -17.6442   22.8063 C.2     1  UNL1        0.1819
      3 C          -7.7713  -17.4516   22.8635 C.3     1  UNL1        0.0745
      4 C          -8.6885  -18.5903   22.5290 C.3     1  UNL1        0.0375
      5 C          -8.1194  -19.9217   22.1375 C.3     1  UNL1        0.0690
      6 C          -6.6329  -20.1143   22.0803 C.2     1  UNL1        0.1201
      7 O          -6.0637  -21.4458   21.6887 O.2     1  UNL1       -0.5092
      8 C          -5.7156  -18.9756   22.4147 C.2     1  UNL1        0.0936
      9 H          -6.6366  -22.1572   21.4798 H       1  UNL1        0.2917
     10 C         -10.1751  -18.3976   22.5862 C.ar    1  UNL1       -0.0138
     11 C         -10.9860  -18.4407   21.3250 C.ar    1  UNL1        0.0674
     12 C         -12.4724  -18.2480   21.3822 C.ar    1  UNL1        0.0035
     13 C         -13.1480  -18.0123   22.7005 C.ar    1  UNL1       -0.0001
     14 C         -12.3372  -17.9692   23.9617 C.ar    1  UNL1        0.0035
     15 C         -10.8506  -18.1619   23.9045 C.ar    1  UNL1        0.0674
     16 C         -10.3103  -18.6764   20.0067 C.3     1  UNL1        0.4183
     17 F          -9.6347  -18.9122   18.6884 F       1  UNL1       -0.1659
     18 F         -10.5294  -20.1525   20.1584 F       1  UNL1       -0.1659
     19 F         -10.0912  -17.2003   19.8550 F       1  UNL1       -0.1659
     20 C         -10.0397  -18.1189   25.1657 C.3     1  UNL1        0.4183
     21 F          -9.2288  -18.0758   26.4269 F       1  UNL1       -0.1659
     22 F         -10.2444  -19.5937   25.3477 F       1  UNL1       -0.1659
     23 F          -9.8351  -16.6441   24.9838 F       1  UNL1       -0.1659
     24 S          -4.2291  -19.1683   22.3575 S.3     1  UNL1       -0.0806
     25 C          -3.4530  -18.6682   21.1754 C.ar    1  UNL1        0.0402
     26 C          -3.6903  -19.2601   19.8176 C.ar    1  UNL1        0.0073
     27 C          -2.9142  -18.7601   18.6354 C.ar    1  UNL1        0.0006
     28 C          -1.9007  -17.6682   18.8110 C.ar    1  UNL1        0.0009
     29 C          -1.6634  -17.0764   20.1687 C.ar    1  UNL1        0.0119
     30 C          -2.4396  -17.5764   21.3509 C.ar    1  UNL1        0.0636
     31 CL         -2.2023  -16.9845   22.7086 Cl      1  UNL1       -0.0817
@<TRIPOS>BOND
     1     1     2    2
     2     2     3    1
     3     3     4    1
     4     4    10    1
     5    10    11   ar
     6    11    16    1
     7    16    17    1
     8    16    18    1
     9    16    19    1
    10    11    12   ar
    11    12    13   ar
    12    13    14   ar
    13    14    15   ar
    14    15    20    1
    15    20    21    1
    16    20    22    1
    17    20    23    1
    18     4     5    1
    19     5     6    1
    20     6     7    1
    21     6     8    2
    22     8    24    1
    23    24    25    1
    24    25    26   ar
    25    26    27   ar
    26    27    28   ar
    27    28    29   ar
    28    29    30   ar
    29    30    31    1
    30     8     2    1
    31    30    25   ar
    32    15    10   ar
    33     7     9    1
@<TRIPOS>MOLECULE
*****
 31 33 0 0 0
SMALL
GASTEIGER

@<TRIPOS>ATOM
      1 O          -5.7772  -17.6202   22.3122 O.2     1  UNL1       -0.2907
      2 C          -7.0504  -18.1822   21.7527 C.2     1  UNL1        0.1819
      3 C          -8.3551  -17.9154   22.4429 C.3     1  UNL1        0.0745
      4 C          -9.6283  -18.4774   21.8833 C.3     1  UNL1        0.0375
      5 C          -9.5968  -19.3064   20.6336 C.3     1  UNL1        0.0690
      6 C          -8.2921  -19.5732   19.9434 C.2     1  UNL1        0.1201
      7 O          -8.2605  -20.4022   18.6937 O.2     1  UNL1       -0.5092
      8 C          -7.0189  -19.0112   20.5029 C.2     1  UNL1        0.0936
      9 H          -9.0558  -20.7533   18.3441 H       1  UNL1        0.2917
     10 C         -10.9331  -18.2105   22.5736 C.ar    1  UNL1       -0.0138
     11 C         -11.3164  -19.0058   23.7863 C.ar    1  UNL1        0.0674
     12 C         -12.6211  -18.7389   24.4766 C.ar    1  UNL1        0.0035
     13 C         -13.5426  -17.6768   23.9542 C.ar    1  UNL1       -0.0001
     14 C         -13.1592  -16.8815   22.7415 C.ar    1  UNL1        0.0035
     15 C         -11.8545  -17.1484   22.0512 C.ar    1  UNL1        0.0674
     16 C         -10.3950  -20.0680   24.3087 C.3     1  UNL1        0.4183
     17 F          -9.4736  -21.1300   24.8312 F       1  UNL1       -0.1659
     18 F          -9.9523  -19.1447   25.4049 F       1  UNL1       -0.1659
     19 F         -10.8377  -20.9912   23.2126 F       1  UNL1       -0.1659
     20 C         -11.4711  -16.3532   20.8385 C.3     1  UNL1        0.4183
     21 F         -11.0878  -15.5579   19.6258 F       1  UNL1       -0.1659
     22 F         -12.2157  -17.3216   19.9680 F       1  UNL1       -0.1659
     23 F         -10.7265  -15.3847   21.7089 F       1  UNL1       -0.1659
     24 S          -5.7141  -19.2781   19.8127 S.3     1  UNL1       -0.0806
     25 C          -4.4238  -19.1228   20.5617 C.ar    1  UNL1        0.0402
     26 C          -4.2378  -19.8050   21.8846 C.ar    1  UNL1        0.0073
     27 C          -2.9475  -19.6497   22.6337 C.ar    1  UNL1        0.0006
     28 C          -1.8433  -18.8121   22.0598 C.ar    1  UNL1        0.0009
     29 C          -2.0294  -18.1299   20.7370 C.ar    1  UNL1        0.0119
     30 C          -3.3196  -18.2852   19.9880 C.ar    1  UNL1        0.0636
     31 CL         -3.5057  -17.6030   18.6651 Cl      1  UNL1       -0.0817
@<TRIPOS>BOND
     1     1     2    2
     2     2     3    1
     3     3     4    1
     4     4    10    1
     5    10    11   ar
     6    11    16    1
     7    16    17    1
     8    16    18    1
     9    16    19    1
    10    11    12   ar
    11    12    13   ar
    12    13    14   ar
    13    14    15   ar
    14    15    20    1
    15    20    21    1
    16    20    22    1
    17    20    23    1
    18     4     5    1
    19     5     6    1
    20     6     7    1
    21     6     8    2
    22     8    24    1
    23    24    25    1
    24    25    26   ar
    25    26    27   ar
    26    27    28   ar
    27    28    29   ar
    28    29    30   ar
    29    30    31    1
    30     8     2    1
    31    30    25   ar
    32    15    10   ar
    33     7     9    1
@<TRIPOS>MOLECULE
*****
 31 33 0 0 0
SMALL
GASTEIGER

@<TRIPOS>ATOM
      1 O          -5.7630  -17.6345   22.2617 O.2     1  UNL1       -0.2907
      2 C          -7.0406  -18.1934   21.7092 C.2     1  UNL1        0.1819
      3 C          -8.3409  -17.9235   22.4066 C.3     1  UNL1        0.0745
      4 C          -9.6185  -18.4824   21.8541 C.3     1  UNL1        0.0375
      5 C          -9.5959  -19.3113   20.6041 C.3     1  UNL1        0.0690
      6 C          -8.2956  -19.5812   19.9067 C.2     1  UNL1        0.1201
      7 O          -8.2729  -20.4101   18.6567 O.2     1  UNL1       -0.5092
      8 C          -7.0180  -19.0222   20.4592 C.2     1  UNL1        0.0936
      9 H          -9.0710  -20.7592   18.3115 H       1  UNL1        0.2917
     10 C         -10.9188  -18.2125   22.5516 C.ar    1  UNL1       -0.0138
     11 C         -11.8407  -17.1484   22.0341 C.ar    1  UNL1        0.0674
     12 C         -13.1409  -16.8784   22.7315 C.ar    1  UNL1        0.0035
     13 C         -13.5193  -17.6726   23.9465 C.ar    1  UNL1       -0.0001
     14 C         -12.5975  -18.7367   24.4641 C.ar    1  UNL1        0.0035
     15 C         -11.2972  -19.0066   23.7665 C.ar    1  UNL1        0.0674
     16 C         -11.4623  -16.3542   20.8191 C.3     1  UNL1        0.4183
     17 F         -11.0839  -15.5601   19.6041 F       1  UNL1       -0.1659
     18 F         -12.1881  -17.3380   19.9501 F       1  UNL1       -0.1659
     19 F         -10.7364  -15.3705   21.6881 F       1  UNL1       -0.1659
     20 C         -10.3753  -20.0708   24.2841 C.3     1  UNL1        0.4183
     21 F          -9.4534  -21.1349   24.8016 F       1  UNL1       -0.1659
     22 F          -9.9031  -19.1384   25.3600 F       1  UNL1       -0.1659
     23 F         -10.8475  -21.0031   23.2081 F       1  UNL1       -0.1659
     24 S          -5.7177  -19.2922   19.7617 S.3     1  UNL1       -0.0806
     25 C          -4.4239  -19.1580   20.5088 C.ar    1  UNL1        0.0402
     26 C          -4.2407  -19.8575   21.8231 C.ar    1  UNL1        0.0073
     27 C          -2.9469  -19.7233   22.5701 C.ar    1  UNL1        0.0006
     28 C          -1.8363  -18.8896   22.0030 C.ar    1  UNL1        0.0009
     29 C          -2.0196  -18.1902   20.6888 C.ar    1  UNL1        0.0119
     30 C          -3.3134  -18.3244   19.9417 C.ar    1  UNL1        0.0636
     31 CL         -3.4966  -17.6248   18.6275 Cl      1  UNL1       -0.0817
@<TRIPOS>BOND
     1     1     2    2
     2     2     3    1
     3     3     4    1
     4     4    10    1
     5    10    11   ar
     6    11    16    1
     7    16    17    1
     8    16    18    1
     9    16    19    1
    10    11    12   ar
    11    12    13   ar
    12    13    14   ar
    13    14    15   ar
    14    15    20    1
    15    20    21    1
    16    20    22    1
    17    20    23    1
    18     4     5    1
    19     5     6    1
    20     6     7    1
    21     6     8    2
    22     8    24    1
    23    24    25    1
    24    25    26   ar
    25    26    27   ar
    26    27    28   ar
    27    28    29   ar
    28    29    30   ar
    29    30    31    1
    30     8     2    1
    31    30    25   ar
    32    15    10   ar
    33     7     9    1
@<TRIPOS>MOLECULE
*****
 31 33 0 0 0
SMALL
GASTEIGER

@<TRIPOS>ATOM
      1 O          -9.4371  -20.2660   23.4096 O.2     1  UNL1       -0.2907
      2 C          -8.4045  -19.2133   23.1346 C.2     1  UNL1        0.1819
      3 C          -7.0872  -19.5953   22.5275 C.3     1  UNL1        0.0745
      4 C          -6.0547  -18.5426   22.2524 C.3     1  UNL1        0.0375
      5 C          -6.3395  -17.1078   22.5844 C.3     1  UNL1        0.0690
      6 C          -7.6568  -16.7258   23.1914 C.2     1  UNL1        0.1201
      7 O          -7.9417  -15.2909   23.5234 O.2     1  UNL1       -0.5092
      8 C          -8.6893  -17.7785   23.4665 C.2     1  UNL1        0.0936
      9 H          -7.2967  -14.6333   23.3516 H       1  UNL1        0.2917
     10 C          -4.7372  -18.9247   21.6453 C.ar    1  UNL1       -0.0138
     11 C          -3.4625  -18.3725   22.2109 C.ar    1  UNL1        0.0674
     12 C          -2.1451  -18.7546   21.6039 C.ar    1  UNL1        0.0035
     13 C          -2.1025  -19.6889   20.4312 C.ar    1  UNL1       -0.0001
     14 C          -3.3773  -20.2412   19.8655 C.ar    1  UNL1        0.0035
     15 C          -4.6947  -19.8591   20.4726 C.ar    1  UNL1        0.0674
     16 C          -3.5051  -17.4381   23.3836 C.3     1  UNL1        0.4183
     17 F          -3.5477  -16.5037   24.5562 F       1  UNL1       -0.1659
     18 F          -3.1895  -16.2857   22.4768 F       1  UNL1       -0.1659
     19 F          -3.8207  -18.5905   24.2904 F       1  UNL1       -0.1659
     20 C          -5.9695  -20.4113   19.9070 C.3     1  UNL1        0.4183
     21 F          -7.2443  -20.9636   19.3414 F       1  UNL1       -0.1659
     22 F          -6.3028  -19.0626   19.3415 F       1  UNL1       -0.1659
     23 F          -5.6361  -21.7601   20.4725 F       1  UNL1       -0.1659
     24 S         -10.0068  -17.3964   24.0736 S.3     1  UNL1       -0.0806
     25 C         -11.2475  -17.3906   23.2307 C.ar    1  UNL1        0.0402
     26 C         -11.2655  -16.6477   21.9277 C.ar    1  UNL1        0.0073
     27 C         -12.5063  -16.6420   21.0847 C.ar    1  UNL1        0.0006
     28 C         -13.7290  -17.3792   21.5448 C.ar    1  UNL1        0.0009
     29 C         -13.7109  -18.1221   22.8478 C.ar    1  UNL1        0.0119
     30 C         -12.4701  -18.1278   23.6907 C.ar    1  UNL1        0.0636
     31 CL        -12.4521  -18.8708   24.9937 Cl      1  UNL1       -0.0817
@<TRIPOS>BOND
     1     1     2    2
     2     2     3    1
     3     3     4    1
     4     4    10    1
     5    10    11   ar
     6    11    16    1
     7    16    17    1
     8    16    18    1
     9    16    19    1
    10    11    12   ar
    11    12    13   ar
    12    13    14   ar
    13    14    15   ar
    14    15    20    1
    15    20    21    1
    16    20    22    1
    17    20    23    1
    18     4     5    1
    19     5     6    1
    20     6     7    1
    21     6     8    2
    22     8    24    1
    23    24    25    1
    24    25    26   ar
    25    26    27   ar
    26    27    28   ar
    27    28    29   ar
    28    29    30   ar
    29    30    31    1
    30     8     2    1
    31    30    25   ar
    32    15    10   ar
    33     7     9    1
@<TRIPOS>MOLECULE
*****
 31 33 0 0 0
SMALL
GASTEIGER

@<TRIPOS>ATOM
      1 O          -9.4344  -20.2611   23.4137 O.2     1  UNL1       -0.2907
      2 C          -8.4023  -19.2077   23.1394 C.2     1  UNL1        0.1819
      3 C          -7.0839  -19.5891   22.5340 C.3     1  UNL1        0.0745
      4 C          -6.0518  -18.5358   22.2597 C.3     1  UNL1        0.0375
      5 C          -6.3380  -17.1011   22.5908 C.3     1  UNL1        0.0690
      6 C          -7.6563  -16.7197   23.1961 C.2     1  UNL1        0.1201
      7 O          -7.9426  -15.2849   23.5273 O.2     1  UNL1       -0.5092
      8 C          -8.6885  -17.7730   23.4705 C.2     1  UNL1        0.0936
      9 H          -7.2979  -14.6269   23.3559 H       1  UNL1        0.2917
     10 C          -4.7335  -18.9173   21.6543 C.ar    1  UNL1       -0.0138
     11 C          -4.6888  -19.8530   20.4828 C.ar    1  UNL1        0.0674
     12 C          -3.3706  -20.2345   19.8774 C.ar    1  UNL1        0.0035
     13 C          -2.0968  -19.6802   20.4434 C.ar    1  UNL1       -0.0001
     14 C          -2.1414  -18.7444   21.6149 C.ar    1  UNL1        0.0035
     15 C          -3.4598  -18.3630   22.2203 C.ar    1  UNL1        0.0674
     16 C          -5.9626  -20.4074   19.9168 C.3     1  UNL1        0.4183
     17 F          -7.2363  -20.9617   19.3508 F       1  UNL1       -0.1659
     18 F          -5.6298  -21.7542   20.4870 F       1  UNL1       -0.1659
     19 F          -6.2954  -19.0605   19.3465 F       1  UNL1       -0.1659
     20 C          -3.5044  -17.4272   23.3918 C.3     1  UNL1        0.4183
     21 F          -3.5490  -16.4914   24.5632 F       1  UNL1       -0.1659
     22 F          -3.8169  -18.5792   24.3001 F       1  UNL1       -0.1659
     23 F          -3.1919  -16.2751   22.4834 F       1  UNL1       -0.1659
     24 S         -10.0068  -17.3916   24.0759 S.3     1  UNL1       -0.0806
     25 C         -11.2467  -17.3879   23.2317 C.ar    1  UNL1        0.0402
     26 C         -11.2648  -16.6450   21.9287 C.ar    1  UNL1        0.0073
     27 C         -12.5047  -16.6413   21.0846 C.ar    1  UNL1        0.0006
     28 C         -13.7266  -17.3806   21.5434 C.ar    1  UNL1        0.0009
     29 C         -13.7085  -18.1235   22.8464 C.ar    1  UNL1        0.0119
     30 C         -12.4686  -18.1272   23.6905 C.ar    1  UNL1        0.0636
     31 CL        -12.4506  -18.8701   24.9936 Cl      1  UNL1       -0.0817
@<TRIPOS>BOND
     1     1     2    2
     2     2     3    1
     3     3     4    1
     4     4    10    1
     5    10    11   ar
     6    11    16    1
     7    16    17    1
     8    16    18    1
     9    16    19    1
    10    11    12   ar
    11    12    13   ar
    12    13    14   ar
    13    14    15   ar
    14    15    20    1
    15    20    21    1
    16    20    22    1
    17    20    23    1
    18     4     5    1
    19     5     6    1
    20     6     7    1
    21     6     8    2
    22     8    24    1
    23    24    25    1
    24    25    26   ar
    25    26    27   ar
    26    27    28   ar
    27    28    29   ar
    28    29    30   ar
    29    30    31    1
    30     8     2    1
    31    30    25   ar
    32    15    10   ar
    33     7     9    1
@<TRIPOS>MOLECULE
*****
 31 33 0 0 0
SMALL
GASTEIGER

@<TRIPOS>ATOM
      1 O           9.0901   -1.2366   30.7605 O.2     1  UNL1       -0.2907
      2 C           7.8289   -1.6777   31.4423 C.2     1  UNL1        0.1819
      3 C           6.7976   -0.6639   31.8405 C.3     1  UNL1        0.0745
      4 C           5.5364   -1.1050   32.5223 C.3     1  UNL1        0.0375
      5 C           5.3065   -2.5599   32.8058 C.3     1  UNL1        0.0690
      6 C           6.3378   -3.5737   32.4075 C.2     1  UNL1        0.1201
      7 O           6.1079   -5.0287   32.6910 O.2     1  UNL1       -0.5092
      8 C           7.5990   -3.1326   31.7257 C.2     1  UNL1        0.0936
      9 H           5.3201   -5.3042   33.1169 H       1  UNL1        0.2917
     10 C           4.5051   -0.0912   32.9205 C.ar    1  UNL1       -0.0138
     11 C           4.5141    0.4834   34.3061 C.ar    1  UNL1        0.0674
     12 C           3.4829    1.4972   34.7044 C.ar    1  UNL1        0.0035
     13 C           2.4425    1.9365   33.7171 C.ar    1  UNL1       -0.0001
     14 C           2.4335    1.3620   32.3315 C.ar    1  UNL1        0.0035
     15 C           3.4648    0.3481   31.9333 C.ar    1  UNL1        0.0674
     16 C           5.5545    0.0441   35.2934 C.3     1  UNL1        0.4183
     17 F           6.5948   -0.3952   36.2807 F       1  UNL1       -0.1659
     18 F           4.6131   -0.9972   35.8221 F       1  UNL1       -0.1659
     19 F           6.4959    1.0853   34.7648 F       1  UNL1       -0.1659
     20 C           3.4557   -0.2265   30.5477 C.3     1  UNL1        0.4183
     21 F           3.4467   -0.8010   29.1621 F       1  UNL1       -0.1659
     22 F           4.3751    0.8662   30.0886 F       1  UNL1       -0.1659
     23 F           2.5363   -1.3191   31.0068 F       1  UNL1       -0.1659
     24 S           8.6303   -4.1464   31.3275 S.3     1  UNL1       -0.0806
     25 C           8.4426   -4.9566   30.0792 C.ar    1  UNL1        0.0402
     26 C           7.8955   -4.3105   28.8408 C.ar    1  UNL1        0.0073
     27 C           7.7078   -5.1207   27.5925 C.ar    1  UNL1        0.0006
     28 C           8.0671   -6.5771   27.5825 C.ar    1  UNL1        0.0009
     29 C           8.6141   -7.2231   28.8208 C.ar    1  UNL1        0.0119
     30 C           8.8018   -6.4129   30.0691 C.ar    1  UNL1        0.0636
     31 CL          9.3489   -7.0591   31.3074 Cl      1  UNL1       -0.0817
@<TRIPOS>BOND
     1     1     2    2
     2     2     3    1
     3     3     4    1
     4     4    10    1
     5    10    11   ar
     6    11    16    1
     7    16    17    1
     8    16    18    1
     9    16    19    1
    10    11    12   ar
    11    12    13   ar
    12    13    14   ar
    13    14    15   ar
    14    15    20    1
    15    20    21    1
    16    20    22    1
    17    20    23    1
    18     4     5    1
    19     5     6    1
    20     6     7    1
    21     6     8    2
    22     8    24    1
    23    24    25    1
    24    25    26   ar
    25    26    27   ar
    26    27    28   ar
    27    28    29   ar
    28    29    30   ar
    29    30    31    1
    30     8     2    1
    31    30    25   ar
    32    15    10   ar
    33     7     9    1
