@<TRIPOS>MOLECULE
*****
 22 24 0 0 0
SMALL
GASTEIGER

@<TRIPOS>ATOM
      1 C          -8.5318  -17.5416   22.5418 C.3     1  UNL1        0.1031
      2 CL         -7.2401  -14.8043   27.7224 Cl      1  UNL1       -0.0822
      3 C          -7.5630  -15.4886   26.4273 C.ar    1  UNL1        0.0577
      4 C          -6.7958  -15.1440   25.1853 C.ar    1  UNL1        0.0111
      5 C          -7.1188  -15.8283   23.8901 C.ar    1  UNL1       -0.0018
      6 C          -8.2089  -16.8573   23.8370 C.ar    1  UNL1       -0.0036
      7 C          -8.9760  -17.2019   25.0790 C.ar    1  UNL1       -0.0018
      8 C          -8.6531  -16.5176   26.3741 C.ar    1  UNL1        0.0111
      9 C          -7.4984  -18.3925   21.8652 C.ar    1  UNL1       -0.0036
     10 C          -6.1177  -18.4967   22.4422 C.ar    1  UNL1       -0.0018
     11 C          -5.0843  -19.3477   21.7655 C.ar    1  UNL1        0.0111
     12 C          -5.4315  -20.0945   20.5118 C.ar    1  UNL1        0.0577
     13 CL         -4.3981  -20.9455   19.8352 Cl      1  UNL1       -0.0822
     14 C          -6.8122  -19.9904   19.9348 C.ar    1  UNL1        0.0111
     15 C          -7.8456  -19.1394   20.6115 C.ar    1  UNL1       -0.0018
     16 N          -9.8881  -17.3749   21.9233 N.3     1  UNL1       -0.2644
     17 C         -10.9442  -18.4181   22.1392 C.3     1  UNL1        0.0899
     18 C         -12.3006  -18.2514   21.5207 C.3     1  UNL1        0.0862
     19 N         -12.6008  -17.0416   20.6863 N.3     1  UNL1       -0.2951
     20 C         -11.5447  -15.9985   20.4704 C.3     1  UNL1        0.0862
     21 C         -10.1884  -16.1651   21.0889 C.3     1  UNL1        0.0899
     22 H         -13.3937  -16.5718   21.1234 H       1  UNL1        0.1233
@<TRIPOS>BOND
     1     2     3    1
     2     3     4   ar
     3     4     5   ar
     4     5     6   ar
     5     6     1    1
     6     1     9    1
     7     9    10   ar
     8    10    11   ar
     9    11    12   ar
    10    12    13    1
    11    12    14   ar
    12    14    15   ar
    13     1    16    1
    14    16    17    1
    15    17    18    1
    16    18    19    1
    17    19    20    1
    18    20    21    1
    19     6     7   ar
    20     7     8   ar
    21     8     3   ar
    22    15     9   ar
    23    21    16    1
    24    19    22    1
@<TRIPOS>MOLECULE
*****
 22 24 0 0 0
SMALL
GASTEIGER

@<TRIPOS>ATOM
      1 C          -8.4830  -17.5169   22.5716 C.3     1  UNL1        0.1031
      2 CL         -4.3359  -20.9033   19.8634 Cl      1  UNL1       -0.0822
      3 C          -5.3727  -20.0567   20.5405 C.ar    1  UNL1        0.0577
      4 C          -6.7599  -19.9751   19.9758 C.ar    1  UNL1        0.0111
      5 C          -7.7966  -19.1285   20.6528 C.ar    1  UNL1       -0.0018
      6 C          -7.4462  -18.3635   21.8946 C.ar    1  UNL1       -0.0036
      7 C          -6.0590  -18.4451   22.4593 C.ar    1  UNL1       -0.0018
      8 C          -5.0222  -19.2917   21.7822 C.ar    1  UNL1        0.0111
      9 C          -8.1642  -16.8355   23.8693 C.ar    1  UNL1       -0.0036
     10 C          -7.0544  -15.8285   23.9349 C.ar    1  UNL1       -0.0018
     11 C          -6.7356  -15.1471   25.2326 C.ar    1  UNL1        0.0111
     12 C          -7.5267  -15.4726   26.4647 C.ar    1  UNL1        0.0577
     13 CL         -7.2079  -14.7911   27.7625 Cl      1  UNL1       -0.0822
     14 C          -8.6365  -16.4796   26.3992 C.ar    1  UNL1        0.0111
     15 C          -8.9553  -17.1611   25.1015 C.ar    1  UNL1       -0.0018
     16 N          -9.8385  -17.3518   21.9510 N.3     1  UNL1       -0.2644
     17 C         -10.8902  -18.4015   22.1559 C.3     1  UNL1        0.0899
     18 C         -12.2458  -18.2363   21.5352 C.3     1  UNL1        0.0862
     19 N         -12.5496  -17.0214   20.7097 N.3     1  UNL1       -0.2951
     20 C         -11.4979  -15.9716   20.5047 C.3     1  UNL1        0.0862
     21 C         -10.1424  -16.1368   21.1254 C.3     1  UNL1        0.0899
     22 H         -13.3458  -16.5588   21.1484 H       1  UNL1        0.1233
@<TRIPOS>BOND
     1     2     3    1
     2     3     4   ar
     3     4     5   ar
     4     5     6   ar
     5     6     1    1
     6     1     9    1
     7     9    10   ar
     8    10    11   ar
     9    11    12   ar
    10    12    13    1
    11    12    14   ar
    12    14    15   ar
    13     1    16    1
    14    16    17    1
    15    17    18    1
    16    18    19    1
    17    19    20    1
    18    20    21    1
    19     6     7   ar
    20     7     8   ar
    21     8     3   ar
    22    15     9   ar
    23    21    16    1
    24    19    22    1
@<TRIPOS>MOLECULE
*****
 22 24 0 0 0
SMALL
GASTEIGER

@<TRIPOS>ATOM
      1 C          -7.8769  -17.3774   23.3734 C.3     1  UNL1        0.1031
      2 CL         -4.4856  -20.5266   19.5548 Cl      1  UNL1       -0.0822
      3 C          -5.3334  -19.7393   20.5095 C.ar    1  UNL1        0.0577
      4 C          -6.7703  -19.4603   20.1817 C.ar    1  UNL1        0.0111
      5 C          -7.6181  -18.6730   21.1363 C.ar    1  UNL1       -0.0018
      6 C          -7.0291  -18.1647   22.4187 C.ar    1  UNL1       -0.0036
      7 C          -5.5922  -18.4437   22.7465 C.ar    1  UNL1       -0.0018
      8 C          -4.7444  -19.2310   21.7919 C.ar    1  UNL1        0.0111
      9 C          -9.3672  -17.5470   23.3681 C.ar    1  UNL1       -0.0036
     10 C         -10.2353  -16.5312   22.6863 C.ar    1  UNL1       -0.0018
     11 C         -11.7256  -16.7008   22.6811 C.ar    1  UNL1        0.0111
     12 C         -12.3480  -17.8861   23.3575 C.ar    1  UNL1        0.0577
     13 CL        -13.8385  -18.0556   23.3522 Cl      1  UNL1       -0.0822
     14 C         -11.4801  -18.9019   24.0393 C.ar    1  UNL1        0.0111
     15 C          -9.9896  -18.7323   24.0446 C.ar    1  UNL1       -0.0018
     16 N          -7.2344  -16.4205   24.3333 N.3     1  UNL1       -0.2644
     17 C          -7.8770  -16.1445   25.6603 C.3     1  UNL1        0.0899
     18 C          -7.2344  -15.1876   26.6202 C.3     1  UNL1        0.0862
     19 N          -5.9493  -14.5067   26.2532 N.3     1  UNL1       -0.2951
     20 C          -5.3067  -14.7827   24.9262 C.3     1  UNL1        0.0862
     21 C          -5.9492  -15.7396   23.9663 C.3     1  UNL1        0.0899
     22 H          -5.2675  -14.7591   26.9687 H       1  UNL1        0.1233
@<TRIPOS>BOND
     1     2     3    1
     2     3     4   ar
     3     4     5   ar
     4     5     6   ar
     5     6     1    1
     6     1     9    1
     7     9    10   ar
     8    10    11   ar
     9    11    12   ar
    10    12    13    1
    11    12    14   ar
    12    14    15   ar
    13     1    16    1
    14    16    17    1
    15    17    18    1
    16    18    19    1
    17    19    20    1
    18    20    21    1
    19     6     7   ar
    20     7     8   ar
    21     8     3   ar
    22    15     9   ar
    23    21    16    1
    24    19    22    1
@<TRIPOS>MOLECULE
*****
 22 24 0 0 0
SMALL
GASTEIGER

@<TRIPOS>ATOM
      1 C          -7.8667  -17.3849   23.3534 C.3     1  UNL1        0.1031
      2 CL        -13.8293  -18.0535   23.3263 Cl      1  UNL1       -0.0822
      3 C         -12.3386  -17.8863   23.3331 C.ar    1  UNL1        0.0577
      4 C         -11.4727  -18.9059   24.0117 C.ar    1  UNL1        0.0111
      5 C          -9.9820  -18.7387   24.0184 C.ar    1  UNL1       -0.0018
      6 C          -9.3573  -17.5520   23.3466 C.ar    1  UNL1       -0.0036
      7 C         -10.2233  -16.5324   22.6680 C.ar    1  UNL1       -0.0018
      8 C         -11.7139  -16.6996   22.6612 C.ar    1  UNL1        0.0111
      9 C          -7.0189  -18.1765   22.4023 C.ar    1  UNL1       -0.0036
     10 C          -7.6085  -18.6922   21.1230 C.ar    1  UNL1       -0.0018
     11 C          -6.7607  -19.4838   20.1720 C.ar    1  UNL1        0.0111
     12 C          -5.3233  -19.7597   20.5001 C.ar    1  UNL1        0.0577
     13 CL         -4.4755  -20.5514   19.5490 Cl      1  UNL1       -0.0822
     14 C          -4.7337  -19.2440   21.7793 C.ar    1  UNL1        0.0111
     15 C          -5.5815  -18.4524   22.7304 C.ar    1  UNL1       -0.0018
     16 N          -7.2238  -16.4261   24.3112 N.3     1  UNL1       -0.2644
     17 C          -5.9428  -15.7401   23.9393 C.3     1  UNL1        0.0899
     18 C          -5.2999  -14.7813   24.8972 C.3     1  UNL1        0.0862
     19 N          -5.9381  -14.5085   26.2269 N.3     1  UNL1       -0.2951
     20 C          -7.2192  -15.1945   26.5988 C.3     1  UNL1        0.0862
     21 C          -7.8621  -16.1533   25.6410 C.3     1  UNL1        0.0899
     22 H          -6.1190  -13.5055   26.2665 H       1  UNL1        0.1233
@<TRIPOS>BOND
     1     2     3    1
     2     3     4   ar
     3     4     5   ar
     4     5     6   ar
     5     6     1    1
     6     1     9    1
     7     9    10   ar
     8    10    11   ar
     9    11    12   ar
    10    12    13    1
    11    12    14   ar
    12    14    15   ar
    13     1    16    1
    14    16    17    1
    15    17    18    1
    16    18    19    1
    17    19    20    1
    18    20    21    1
    19     6     7   ar
    20     7     8   ar
    21     8     3   ar
    22    15     9   ar
    23    21    16    1
    24    19    22    1
@<TRIPOS>MOLECULE
*****
 22 24 0 0 0
SMALL
GASTEIGER

@<TRIPOS>ATOM
      1 C          -7.7529  -17.4277   22.9884 C.3     1  UNL1        0.1031
      2 CL        -13.6065  -17.7440   21.7098 Cl      1  UNL1       -0.0822
      3 C         -12.1431  -17.6649   22.0294 C.ar    1  UNL1        0.0577
      4 C         -11.3418  -16.4767   21.5867 C.ar    1  UNL1        0.0111
      5 C          -9.8784  -16.3976   21.9063 C.ar    1  UNL1       -0.0018
      6 C          -9.2163  -17.5068   22.6688 C.ar    1  UNL1       -0.0036
      7 C         -10.0176  -18.6950   23.1115 C.ar    1  UNL1       -0.0018
      8 C         -11.4810  -18.7740   22.7919 C.ar    1  UNL1        0.0111
      9 C          -6.7665  -18.2271   22.1898 C.ar    1  UNL1       -0.0036
     10 C          -5.3889  -18.4741   22.7297 C.ar    1  UNL1       -0.0018
     11 C          -4.4025  -19.2735   21.9311 C.ar    1  UNL1        0.0111
     12 C          -4.7936  -19.8259   20.5925 C.ar    1  UNL1        0.0577
     13 CL         -3.8071  -20.6254   19.7938 Cl      1  UNL1       -0.0822
     14 C          -6.1710  -19.5790   20.0525 C.ar    1  UNL1        0.0111
     15 C          -7.1575  -18.7795   20.8512 C.ar    1  UNL1       -0.0018
     16 N          -7.2759  -16.5492   24.1067 N.3     1  UNL1       -0.2644
     17 C          -8.1552  -16.3072   25.2977 C.3     1  UNL1        0.0899
     18 C          -7.6781  -15.4287   26.4160 C.3     1  UNL1        0.0862
     19 N          -6.3218  -14.7922   26.3434 N.3     1  UNL1       -0.2951
     20 C          -5.4426  -15.0341   25.1525 C.3     1  UNL1        0.0862
     21 C          -5.9196  -15.9126   24.0342 C.3     1  UNL1        0.0899
     22 H          -5.8030  -15.1104   27.1620 H       1  UNL1        0.1233
@<TRIPOS>BOND
     1     2     3    1
     2     3     4   ar
     3     4     5   ar
     4     5     6   ar
     5     6     1    1
     6     1     9    1
     7     9    10   ar
     8    10    11   ar
     9    11    12   ar
    10    12    13    1
    11    12    14   ar
    12    14    15   ar
    13     1    16    1
    14    16    17    1
    15    17    18    1
    16    18    19    1
    17    19    20    1
    18    20    21    1
    19     6     7   ar
    20     7     8   ar
    21     8     3   ar
    22    15     9   ar
    23    21    16    1
    24    19    22    1
@<TRIPOS>MOLECULE
*****
 22 24 0 0 0
SMALL
GASTEIGER

@<TRIPOS>ATOM
      1 C          -7.7904  -17.4007   23.0390 C.3     1  UNL1        0.1031
      2 CL         -3.7938  -20.5122   19.8225 Cl      1  UNL1       -0.0822
      3 C          -4.7929  -19.7343   20.6266 C.ar    1  UNL1        0.0577
      4 C          -4.4084  -19.1785   21.9657 C.ar    1  UNL1        0.0111
      5 C          -5.4076  -18.4006   22.7698 C.ar    1  UNL1       -0.0018
      6 C          -6.7912  -18.1786   22.2349 C.ar    1  UNL1       -0.0036
      7 C          -7.1757  -18.7344   20.8958 C.ar    1  UNL1       -0.0018
      8 C          -6.1766  -19.5123   20.0917 C.ar    1  UNL1        0.0111
      9 C          -9.2513  -17.4926   22.7117 C.ar    1  UNL1       -0.0036
     10 C          -9.9146  -16.3991   21.9280 C.ar    1  UNL1       -0.0018
     11 C         -11.3755  -16.4910   21.6007 C.ar    1  UNL1        0.0111
     12 C         -12.1733  -17.6764   22.0571 C.ar    1  UNL1        0.0577
     13 CL        -13.6343  -17.7683   21.7297 Cl      1  UNL1       -0.0822
     14 C         -11.5100  -18.7700   22.8408 C.ar    1  UNL1        0.0111
     15 C         -10.0490  -18.6781   23.1681 C.ar    1  UNL1       -0.0018
     16 N          -7.3286  -16.5309   24.1705 N.3     1  UNL1       -0.2644
     17 C          -5.9786  -15.8797   24.1131 C.3     1  UNL1        0.0899
     18 C          -5.5168  -15.0099   25.2446 C.3     1  UNL1        0.0862
     19 N          -6.4050  -14.7913   26.4334 N.3     1  UNL1       -0.2951
     20 C          -7.7551  -15.4426   26.4907 C.3     1  UNL1        0.0862
     21 C          -8.2169  -16.3123   25.3593 C.3     1  UNL1        0.0899
     22 H          -6.5600  -13.7856   26.5043 H       1  UNL1        0.1233
@<TRIPOS>BOND
     1     2     3    1
     2     3     4   ar
     3     4     5   ar
     4     5     6   ar
     5     6     1    1
     6     1     9    1
     7     9    10   ar
     8    10    11   ar
     9    11    12   ar
    10    12    13    1
    11    12    14   ar
    12    14    15   ar
    13     1    16    1
    14    16    17    1
    15    17    18    1
    16    18    19    1
    17    19    20    1
    18    20    21    1
    19     6     7   ar
    20     7     8   ar
    21     8     3   ar
    22    15     9   ar
    23    21    16    1
    24    19    22    1
@<TRIPOS>MOLECULE
*****
 22 24 0 0 0
SMALL
GASTEIGER

@<TRIPOS>ATOM
      1 C          -8.9335  -17.9133   23.0407 C.3     1  UNL1        0.1031
      2 CL        -14.8069  -18.1928   24.2342 Cl      1  UNL1       -0.0822
      3 C         -13.3386  -18.1229   23.9358 C.ar    1  UNL1        0.0577
      4 C         -12.3845  -19.0367   24.6463 C.ar    1  UNL1        0.0111
      5 C         -10.9162  -18.9668   24.3479 C.ar    1  UNL1       -0.0018
      6 C         -10.4018  -17.9832   23.3391 C.ar    1  UNL1       -0.0036
      7 C         -11.3559  -17.0694   22.6286 C.ar    1  UNL1       -0.0018
      8 C         -12.8242  -17.1393   22.9270 C.ar    1  UNL1        0.0111
      9 C          -8.0404  -17.0387   23.8698 C.ar    1  UNL1       -0.0036
     10 C          -8.5065  -16.5443   25.2072 C.ar    1  UNL1       -0.0018
     11 C          -7.6135  -15.6697   26.0363 C.ar    1  UNL1        0.0111
     12 C          -6.2544  -15.2895   25.5282 C.ar    1  UNL1        0.0577
     13 CL         -5.3613  -14.4149   26.3575 Cl      1  UNL1       -0.0822
     14 C          -5.7882  -15.7839   24.1910 C.ar    1  UNL1        0.0111
     15 C          -6.6813  -16.6585   23.3617 C.ar    1  UNL1       -0.0018
     16 N          -8.3582  -18.7180   21.9131 N.3     1  UNL1       -0.2644
     17 C          -7.0787  -19.4760   22.1092 C.3     1  UNL1        0.0899
     18 C          -6.5034  -20.2807   20.9815 C.3     1  UNL1        0.0862
     19 N          -7.2075  -20.3274   19.6579 N.3     1  UNL1       -0.2951
     20 C          -8.4870  -19.5694   19.4619 C.3     1  UNL1        0.0862
     21 C          -9.0623  -18.7647   20.5894 C.3     1  UNL1        0.0899
     22 H          -7.4144  -21.3082   19.4689 H       1  UNL1        0.1233
@<TRIPOS>BOND
     1     2     3    1
     2     3     4   ar
     3     4     5   ar
     4     5     6   ar
     5     6     1    1
     6     1     9    1
     7     9    10   ar
     8    10    11   ar
     9    11    12   ar
    10    12    13    1
    11    12    14   ar
    12    14    15   ar
    13     1    16    1
    14    16    17    1
    15    17    18    1
    16    18    19    1
    17    19    20    1
    18    20    21    1
    19     6     7   ar
    20     7     8   ar
    21     8     3   ar
    22    15     9   ar
    23    21    16    1
    24    19    22    1
@<TRIPOS>MOLECULE
*****
 22 24 0 0 0
SMALL
GASTEIGER

@<TRIPOS>ATOM
      1 C         -13.7839   -5.8906   18.6605 C.3     1  UNL1        0.1031
      2 CL        -16.2749   -0.6082   20.0360 Cl      1  UNL1       -0.0822
      3 C         -15.6522   -1.9288   19.6921 C.ar    1  UNL1        0.0577
      4 C         -16.1086   -2.6794   18.4763 C.ar    1  UNL1        0.0111
      5 C         -15.4859   -4.0000   18.1324 C.ar    1  UNL1       -0.0018
      6 C         -14.4067   -4.5700   19.0043 C.ar    1  UNL1       -0.0036
      7 C         -13.9502   -3.8194   20.2202 C.ar    1  UNL1       -0.0018
      8 C         -14.5729   -2.4989   20.5641 C.ar    1  UNL1        0.0111
      9 C         -14.6163   -7.1383   18.6731 C.ar    1  UNL1       -0.0036
     10 C         -14.2855   -8.2701   17.7458 C.ar    1  UNL1       -0.0018
     11 C         -15.1179   -9.5178   17.7585 C.ar    1  UNL1        0.0111
     12 C         -16.2812   -9.6339   18.6984 C.ar    1  UNL1        0.0577
     13 CL        -17.1136  -10.8817   18.7110 Cl      1  UNL1       -0.0822
     14 C         -16.6120   -8.5022   19.6257 C.ar    1  UNL1        0.0111
     15 C         -15.7795   -7.2544   19.6130 C.ar    1  UNL1       -0.0018
     16 N         -12.3288   -5.9634   18.3039 N.3     1  UNL1       -0.2644
     17 C         -11.3999   -6.8180   19.1143 C.3     1  UNL1        0.0899
     18 C          -9.9446   -6.8909   18.7577 C.3     1  UNL1        0.0862
     19 N          -9.4184   -6.1091   17.5908 N.3     1  UNL1       -0.2951
     20 C         -10.3473   -5.2545   16.7804 C.3     1  UNL1        0.0862
     21 C         -11.8024   -5.1816   17.1369 C.3     1  UNL1        0.0899
     22 H          -9.0026   -6.7833   16.9481 H       1  UNL1        0.1233
@<TRIPOS>BOND
     1     2     3    1
     2     3     4   ar
     3     4     5   ar
     4     5     6   ar
     5     6     1    1
     6     1     9    1
     7     9    10   ar
     8    10    11   ar
     9    11    12   ar
    10    12    13    1
    11    12    14   ar
    12    14    15   ar
    13     1    16    1
    14    16    17    1
    15    17    18    1
    16    18    19    1
    17    19    20    1
    18    20    21    1
    19     6     7   ar
    20     7     8   ar
    21     8     3   ar
    22    15     9   ar
    23    21    16    1
    24    19    22    1
@<TRIPOS>MOLECULE
*****
 22 24 0 0 0
SMALL
GASTEIGER

@<TRIPOS>ATOM
      1 C          -7.9193  -17.3639   23.1014 C.3     1  UNL1        0.1031
      2 CL        -13.6818  -17.8720   21.5092 Cl      1  UNL1       -0.0822
      3 C         -12.2412  -17.7450   21.9072 C.ar    1  UNL1        0.0577
      4 C         -11.5701  -18.8559   22.6591 C.ar    1  UNL1        0.0111
      5 C         -10.1295  -18.7289   23.0572 C.ar    1  UNL1       -0.0018
      6 C          -9.3599  -17.4909   22.7034 C.ar    1  UNL1       -0.0036
      7 C         -10.0310  -16.3800   21.9515 C.ar    1  UNL1       -0.0018
      8 C         -11.4717  -16.5070   21.5534 C.ar    1  UNL1        0.0111
      9 C          -7.5457  -16.5826   24.3261 C.ar    1  UNL1       -0.0036
     10 C          -6.2208  -15.8824   24.3938 C.ar    1  UNL1       -0.0018
     11 C          -5.8472  -15.1011   25.6185 C.ar    1  UNL1        0.0111
     12 C          -6.7983  -15.0199   26.7755 C.ar    1  UNL1        0.0577
     13 CL         -6.4246  -14.2385   28.0002 Cl      1  UNL1       -0.0822
     14 C          -8.1231  -15.7200   26.7078 C.ar    1  UNL1        0.0111
     15 C          -8.4968  -16.5014   25.4831 C.ar    1  UNL1       -0.0018
     16 N          -6.8523  -18.0182   22.2748 N.3     1  UNL1       -0.2644
     17 C          -7.1780  -18.5405   20.9069 C.3     1  UNL1        0.0899
     18 C          -6.1109  -19.1949   20.0803 C.3     1  UNL1        0.0862
     19 N          -4.7182  -19.3269   20.6215 N.3     1  UNL1       -0.2951
     20 C          -4.3925  -18.8046   21.9894 C.3     1  UNL1        0.0862
     21 C          -5.4595  -18.1503   22.8161 C.3     1  UNL1        0.0899
     22 H          -4.1013  -18.8448   19.9677 H       1  UNL1        0.1233
@<TRIPOS>BOND
     1     2     3    1
     2     3     4   ar
     3     4     5   ar
     4     5     6   ar
     5     6     1    1
     6     1     9    1
     7     9    10   ar
     8    10    11   ar
     9    11    12   ar
    10    12    13    1
    11    12    14   ar
    12    14    15   ar
    13     1    16    1
    14    16    17    1
    15    17    18    1
    16    18    19    1
    17    19    20    1
    18    20    21    1
    19     6     7   ar
    20     7     8   ar
    21     8     3   ar
    22    15     9   ar
    23    21    16    1
    24    19    22    1
