@<TRIPOS>MOLECULE
*****
 36 40 0 0 0
SMALL
GASTEIGER

@<TRIPOS>ATOM
      1 C           4.6246   -2.8246   20.8402 C.3     1  UNL1        0.0519
      2 C           5.6756   -3.8821   20.6755 C.3     1  UNL1        0.0069
      3 C           6.4599   -4.3516   21.8648 C.3     1  UNL1        0.0004
      4 C           6.1931   -3.7637   23.2187 C.3     1  UNL1        0.0000
      5 C           6.3050   -3.5128   24.6933 C.3     1  UNL1        0.0000
      6 C           7.2830   -4.7340   23.5662 C.3     1  UNL1        0.0000
      7 C           5.1421   -2.7062   23.3834 C.3     1  UNL1        0.0008
      8 C           4.3579   -2.2367   22.1941 C.3     1  UNL1        0.0138
      9 C           3.3068   -1.1792   22.3588 C.3     1  UNL1        0.0626
     10 C           3.0400   -0.5913   23.7127 C.2     1  UNL1        0.1721
     11 O           3.8244   -1.0609   24.9020 O.2     1  UNL1       -0.2914
     12 C           1.9890    0.4661   23.8774 C.2     1  UNL1        0.0292
     13 C           1.2047    0.9357   22.6881 C.2     1  UNL1       -0.0388
     14 C           0.1537    1.9931   22.8527 C.3     1  UNL1        0.0349
     15 C           0.9380    1.5236   24.0420 C.3     1  UNL1        0.0085
     16 C          -0.1131    2.5810   24.2067 C.2     1  UNL1       -0.0098
     17 C          -1.1641    3.6385   24.3714 C.2     1  UNL1        0.0990
     18 C          -1.9484    4.1080   23.1821 C.2     1  UNL1        0.1815
     19 O          -2.9994    5.1655   23.3467 O.2     1  UNL1       -0.2907
     20 C          -1.6816    3.5201   21.8281 C.3     1  UNL1        0.0568
     21 C          -1.7934    3.2692   20.3535 C.3     1  UNL1        0.0077
     22 C          -2.7715    4.4904   21.4807 C.3     1  UNL1        0.0077
     23 C          -0.6306    2.4626   21.6635 C.3     1  UNL1        0.0141
     24 C          -0.3638    1.8747   20.3095 C.3     1  UNL1        0.0014
     25 C           0.6872    0.8173   20.1448 C.3     1  UNL1        0.0038
     26 C           1.4715    0.3478   21.3341 C.3     1  UNL1        0.0159
     27 C           2.2558   -0.1218   22.5234 C.3     1  UNL1        0.0041
     28 C           2.5225   -0.7097   21.1695 C.3     1  UNL1        0.0101
     29 C           1.7382   -0.2401   19.9802 C.3     1  UNL1        0.0007
     30 C           2.7893   -1.2976   19.8155 C.3     1  UNL1        0.0011
     31 C           3.8403   -2.3551   19.6508 C.3     1  UNL1        0.0070
     32 C           4.1528   -4.6407   19.0431 C.3     1  UNL1        0.0722
     33 C           4.8914   -3.4126   19.4862 C.2     1  UNL1        0.1503
     34 O           5.8966   -2.7724   18.5754 O.2     1  UNL1       -0.2961
     35 C          -1.4308    4.2264   25.7253 C.1     1  UNL1        0.1030
     36 N          -1.6976    4.8143   27.0793 N.1     1  UNL1       -0.1907
@<TRIPOS>BOND
     1    32    33    1
     2    33    34    2
     3     1    33    1
     4     1     2    1
     5     2     3    1
     6     3     4    1
     7     4     5    1
     8     4     6    1
     9     4     7    1
    10     8     7    1
    11     8     9    1
    12     9    10    1
    13    10    11    2
    14    10    12    1
    15    12    13    2
    16    13    14    1
    17    14    15    1
    18    14    16    1
    19    16    17    2
    20    17    35    1
    21    35    36    3
    22    17    18    1
    23    18    19    2
    24    18    20    1
    25    20    21    1
    26    20    22    1
    27    20    23    1
    28    23    24    1
    29    24    25    1
    30    25    26    1
    31    26    27    1
    32    26    28    1
    33    28    29    1
    34    28    30    1
    35    30    31    1
    36     8     1    1
    37    28     9    1
    38    31     1    1
    39    26    13    1
    40    23    14    1
@<TRIPOS>MOLECULE
*****
 36 40 0 0 0
SMALL
GASTEIGER

@<TRIPOS>ATOM
      1 C           4.3660   -0.5074   18.7763 C.3     1  UNL1        0.0519
      2 C           3.6603    0.4593   17.8722 C.3     1  UNL1        0.0069
      3 C           2.6182    1.3832   18.4293 C.3     1  UNL1        0.0004
      4 C           2.2817    1.3403   19.8905 C.3     1  UNL1        0.0000
      5 C           1.6204    1.6734   21.1949 C.3     1  UNL1        0.0000
      6 C           1.3464    2.4227   19.4394 C.3     1  UNL1        0.0000
      7 C           2.9874    0.3736   20.7945 C.3     1  UNL1        0.0008
      8 C           4.0295   -0.5503   20.2374 C.3     1  UNL1        0.0138
      9 C           4.7353   -1.5171   21.1415 C.3     1  UNL1        0.0626
     10 C           4.3988   -1.5600   22.6027 C.2     1  UNL1        0.1721
     11 O           3.3567   -0.6360   23.1598 O.2     1  UNL1       -0.2914
     12 C           5.1045   -2.5267   23.5067 C.2     1  UNL1        0.0292
     13 C           6.1467   -3.4507   22.9497 C.2     1  UNL1       -0.0388
     14 C           6.8524   -4.4174   23.8537 C.3     1  UNL1        0.0349
     15 C           5.8103   -3.4935   24.4108 C.3     1  UNL1        0.0085
     16 C           6.5159   -4.4603   25.3149 C.2     1  UNL1       -0.0098
     17 C           7.2216   -5.4270   26.2190 C.2     1  UNL1        0.0990
     18 C           8.2638   -6.3510   25.6619 C.2     1  UNL1        0.1815
     19 O           8.9695   -7.3177   26.5660 O.2     1  UNL1       -0.2907
     20 C           8.6002   -6.3081   24.2007 C.3     1  UNL1        0.0568
     21 C           9.2615   -6.6411   22.8963 C.3     1  UNL1        0.0077
     22 C           9.5356   -7.3905   24.6518 C.3     1  UNL1        0.0077
     23 C           7.8945   -5.3413   23.2967 C.3     1  UNL1        0.0141
     24 C           8.2310   -5.2984   21.8355 C.3     1  UNL1        0.0014
     25 C           7.5253   -4.3317   20.9314 C.3     1  UNL1        0.0038
     26 C           6.4832   -3.4078   21.4885 C.3     1  UNL1        0.0159
     27 C           5.4410   -2.4839   22.0456 C.3     1  UNL1        0.0041
     28 C           5.7774   -2.4410   20.5844 C.3     1  UNL1        0.0101
     29 C           6.8196   -3.3649   20.0274 C.3     1  UNL1        0.0007
     30 C           6.1139   -2.3981   19.1233 C.3     1  UNL1        0.0011
     31 C           5.4082   -1.4314   18.2192 C.3     1  UNL1        0.0070
     32 C           5.8482    0.3754   16.8337 C.3     1  UNL1        0.0722
     33 C           4.7024   -0.4646   17.3151 C.2     1  UNL1        0.1503
     34 O           3.8932   -1.2616   16.3355 O.2     1  UNL1       -0.2961
     35 C           6.8852   -5.4699   27.6801 C.1     1  UNL1        0.1030
     36 N           6.5487   -5.5127   29.1413 N.1     1  UNL1       -0.1907
@<TRIPOS>BOND
     1    32    33    1
     2    33    34    2
     3     1    33    1
     4     1     2    1
     5     2     3    1
     6     3     4    1
     7     4     5    1
     8     4     6    1
     9     4     7    1
    10     8     7    1
    11     8     9    1
    12     9    10    1
    13    10    11    2
    14    10    12    1
    15    12    13    2
    16    13    14    1
    17    14    15    1
    18    14    16    1
    19    16    17    2
    20    17    35    1
    21    35    36    3
    22    17    18    1
    23    18    19    2
    24    18    20    1
    25    20    21    1
    26    20    22    1
    27    20    23    1
    28    23    24    1
    29    24    25    1
    30    25    26    1
    31    26    27    1
    32    26    28    1
    33    28    29    1
    34    28    30    1
    35    30    31    1
    36     8     1    1
    37    28     9    1
    38    31     1    1
    39    26    13    1
    40    23    14    1
@<TRIPOS>MOLECULE
*****
 36 40 0 0 0
SMALL
GASTEIGER

@<TRIPOS>ATOM
      1 C           3.9110   -2.3901   20.8244 C.3     1  UNL1        0.0519
      2 C           3.1845   -2.0271   19.5634 C.3     1  UNL1        0.0069
      3 C           2.1533   -0.9379   19.5790 C.3     1  UNL1        0.0004
      4 C           1.8486   -0.2118   20.8557 C.3     1  UNL1        0.0000
      5 C           1.2152    0.7573   21.8094 C.3     1  UNL1        0.0000
      6 C           0.9021    0.4878   19.9258 C.3     1  UNL1        0.0000
      7 C           2.5751   -0.5748   22.1167 C.3     1  UNL1        0.0008
      8 C           3.6063   -1.6640   22.1011 C.3     1  UNL1        0.0138
      9 C           4.3329   -2.0271   23.3622 C.3     1  UNL1        0.0626
     10 C           4.0282   -1.3010   24.6389 C.2     1  UNL1        0.1721
     11 O           2.9970   -0.2118   24.6545 O.2     1  UNL1       -0.2914
     12 C           4.7547   -1.6640   25.9000 C.2     1  UNL1        0.0292
     13 C           5.7860   -2.7533   25.8844 C.2     1  UNL1       -0.0388
     14 C           6.5125   -3.1163   27.1455 C.3     1  UNL1        0.0349
     15 C           5.4813   -2.0271   27.1611 C.3     1  UNL1        0.0085
     16 C           6.2078   -2.3902   28.4221 C.2     1  UNL1       -0.0098
     17 C           6.9344   -2.7532   29.6832 C.2     1  UNL1        0.0990
     18 C           7.9656   -3.8424   29.6676 C.2     1  UNL1        0.1815
     19 O           8.6921   -4.2055   30.9287 O.2     1  UNL1       -0.2907
     20 C           8.2703   -4.5686   28.3910 C.3     1  UNL1        0.0568
     21 C           8.9037   -5.5376   27.4372 C.3     1  UNL1        0.0077
     22 C           9.2168   -5.2682   29.3208 C.3     1  UNL1        0.0077
     23 C           7.5437   -4.2055   27.1298 C.3     1  UNL1        0.0141
     24 C           7.8484   -4.9316   25.8532 C.3     1  UNL1        0.0014
     25 C           7.1219   -4.5686   24.5921 C.3     1  UNL1        0.0038
     26 C           6.0907   -3.4794   24.6077 C.3     1  UNL1        0.0159
     27 C           5.0594   -2.3902   24.6233 C.3     1  UNL1        0.0041
     28 C           5.3641   -3.1163   23.3466 C.3     1  UNL1        0.0101
     29 C           6.3954   -4.2055   23.3310 C.3     1  UNL1        0.0007
     30 C           5.6688   -3.8424   22.0699 C.3     1  UNL1        0.0011
     31 C           4.9423   -3.4794   20.8089 C.3     1  UNL1        0.0070
     32 C           3.5161   -4.4052   19.2327 C.3     1  UNL1        0.0722
     33 C           4.2157   -3.1163   19.5478 C.2     1  UNL1        0.1503
     34 O           5.2199   -2.5535   18.5861 O.2     1  UNL1       -0.2961
     35 C           6.6297   -2.0271   30.9599 C.1     1  UNL1        0.1030
     36 N           6.3250   -1.3010   32.2366 N.1     1  UNL1       -0.1907
@<TRIPOS>BOND
     1    32    33    1
     2    33    34    2
     3     1    33    1
     4     1     2    1
     5     2     3    1
     6     3     4    1
     7     4     5    1
     8     4     6    1
     9     4     7    1
    10     8     7    1
    11     8     9    1
    12     9    10    1
    13    10    11    2
    14    10    12    1
    15    12    13    2
    16    13    14    1
    17    14    15    1
    18    14    16    1
    19    16    17    2
    20    17    35    1
    21    35    36    3
    22    17    18    1
    23    18    19    2
    24    18    20    1
    25    20    21    1
    26    20    22    1
    27    20    23    1
    28    23    24    1
    29    24    25    1
    30    25    26    1
    31    26    27    1
    32    26    28    1
    33    28    29    1
    34    28    30    1
    35    30    31    1
    36     8     1    1
    37    28     9    1
    38    31     1    1
    39    26    13    1
    40    23    14    1
@<TRIPOS>MOLECULE
*****
 36 40 0 0 0
SMALL
GASTEIGER

@<TRIPOS>ATOM
      1 C          -1.3412    3.2423   22.6448 C.3     1  UNL1        0.0519
      2 C          -2.3530    4.2859   23.0153 C.3     1  UNL1        0.0069
      3 C          -2.4836    4.7307   24.4419 C.3     1  UNL1        0.0004
      4 C          -1.6024    4.1319   25.4978 C.3     1  UNL1        0.0000
      5 C          -1.0000    3.8633   26.8450 C.3     1  UNL1        0.0000
      6 C          -2.4049    5.0822   26.3363 C.3     1  UNL1        0.0000
      7 C          -0.5906    3.0884   25.1273 C.3     1  UNL1        0.0008
      8 C          -0.4600    2.6436   23.7007 C.3     1  UNL1        0.0138
      9 C           0.5517    1.6000   23.3301 C.3     1  UNL1        0.0626
     10 C           1.4329    1.0013   24.3861 C.2     1  UNL1        0.1721
     11 O           1.3023    1.4462   25.8127 O.2     1  UNL1       -0.2914
     12 C           2.4447   -0.0422   24.0155 C.2     1  UNL1        0.0292
     13 C           2.5753   -0.4871   22.5889 C.2     1  UNL1       -0.0388
     14 C           3.5870   -1.5306   22.2184 C.3     1  UNL1        0.0349
     15 C           3.4565   -1.0858   23.6449 C.3     1  UNL1        0.0085
     16 C           4.4682   -2.1293   23.2743 C.2     1  UNL1       -0.0098
     17 C           5.4800   -3.1729   22.9038 C.2     1  UNL1        0.0990
     18 C           5.6106   -3.6177   21.4772 C.2     1  UNL1        0.1815
     19 O           6.6223   -4.6612   21.1066 O.2     1  UNL1       -0.2907
     20 C           4.7294   -3.0190   20.4212 C.3     1  UNL1        0.0568
     21 C           4.1270   -2.7503   19.0741 C.3     1  UNL1        0.0077
     22 C           5.5320   -3.9692   19.5828 C.3     1  UNL1        0.0077
     23 C           3.7176   -1.9754   20.7918 C.3     1  UNL1        0.0141
     24 C           2.8365   -1.3767   19.7359 C.3     1  UNL1        0.0014
     25 C           1.8247   -0.3332   20.1064 C.3     1  UNL1        0.0038
     26 C           1.6941    0.1116   21.5330 C.3     1  UNL1        0.0159
     27 C           1.5635    0.5565   22.9596 C.3     1  UNL1        0.0041
     28 C           0.6823    1.1552   21.9036 C.3     1  UNL1        0.0101
     29 C           0.8130    0.7104   20.4770 C.3     1  UNL1        0.0007
     30 C          -0.1988    1.7539   20.8476 C.3     1  UNL1        0.0011
     31 C          -1.2106    2.7975   21.2182 C.3     1  UNL1        0.0070
     32 C          -1.8012    5.0962   20.8836 C.3     1  UNL1        0.0722
     33 C          -2.2224    3.8410   21.5888 C.2     1  UNL1        0.1503
     34 O          -3.5247    3.1847   21.2380 O.2     1  UNL1       -0.2961
     35 C           6.3611   -3.7716   23.9598 C.1     1  UNL1        0.1030
     36 N           7.2423   -4.3703   25.0157 N.1     1  UNL1       -0.1907
@<TRIPOS>BOND
     1    32    33    1
     2    33    34    2
     3     1    33    1
     4     1     2    1
     5     2     3    1
     6     3     4    1
     7     4     5    1
     8     4     6    1
     9     4     7    1
    10     8     7    1
    11     8     9    1
    12     9    10    1
    13    10    11    2
    14    10    12    1
    15    12    13    2
    16    13    14    1
    17    14    15    1
    18    14    16    1
    19    16    17    2
    20    17    35    1
    21    35    36    3
    22    17    18    1
    23    18    19    2
    24    18    20    1
    25    20    21    1
    26    20    22    1
    27    20    23    1
    28    23    24    1
    29    24    25    1
    30    25    26    1
    31    26    27    1
    32    26    28    1
    33    28    29    1
    34    28    30    1
    35    30    31    1
    36     8     1    1
    37    28     9    1
    38    31     1    1
    39    26    13    1
    40    23    14    1
@<TRIPOS>MOLECULE
*****
 36 40 0 0 0
SMALL
GASTEIGER

@<TRIPOS>ATOM
      1 C           2.9364   -0.5386   20.5824 C.3     1  UNL1        0.0519
      2 C           3.2366   -0.9137   19.1615 C.3     1  UNL1        0.0069
      3 C           4.1837   -2.0389   18.8669 C.3     1  UNL1        0.0004
      4 C           4.8306   -2.7890   19.9933 C.3     1  UNL1        0.0000
      5 C           5.6848   -3.7903   20.7129 C.3     1  UNL1        0.0000
      6 C           5.4275   -3.5118   18.8222 C.3     1  UNL1        0.0000
      7 C           4.5304   -2.4140   21.4142 C.3     1  UNL1        0.0008
      8 C           3.5833   -1.2888   21.7088 C.3     1  UNL1        0.0138
      9 C           3.2830   -0.9137   23.1299 C.3     1  UNL1        0.0626
     10 C           3.9300   -1.6639   24.2562 C.2     1  UNL1        0.1721
     11 O           4.8771   -2.7892   23.9616 O.2     1  UNL1       -0.2914
     12 C           3.6298   -1.2889   25.6772 C.2     1  UNL1        0.0292
     13 C           2.6826   -0.1636   25.9718 C.2     1  UNL1       -0.0388
     14 C           2.3824    0.2114   27.3928 C.3     1  UNL1        0.0349
     15 C           3.3295   -0.9138   27.0982 C.3     1  UNL1        0.0085
     16 C           3.0293   -0.5388   28.5192 C.2     1  UNL1       -0.0098
     17 C           2.7291   -0.1637   29.9402 C.2     1  UNL1        0.0990
     18 C           1.7820    0.9615   30.2348 C.2     1  UNL1        0.1815
     19 O           1.4818    1.3365   31.6558 O.2     1  UNL1       -0.2907
     20 C           1.1350    1.7117   29.1084 C.3     1  UNL1        0.0568
     21 C           0.2809    2.7128   28.3888 C.3     1  UNL1        0.0077
     22 C           0.5382    2.4344   30.2795 C.3     1  UNL1        0.0077
     23 C           1.4353    1.3366   27.6874 C.3     1  UNL1        0.0141
     24 C           0.7884    2.0868   26.5610 C.3     1  UNL1        0.0014
     25 C           1.0886    1.7118   25.1401 C.3     1  UNL1        0.0038
     26 C           2.0357    0.5866   24.8455 C.3     1  UNL1        0.0159
     27 C           2.9828   -0.5387   24.5508 C.3     1  UNL1        0.0041
     28 C           2.3359    0.2115   23.4244 C.3     1  UNL1        0.0101
     29 C           1.3888    1.3367   23.7191 C.3     1  UNL1        0.0007
     30 C           1.6890    0.9617   22.2981 C.3     1  UNL1        0.0011
     31 C           1.9892    0.5866   20.8771 C.3     1  UNL1        0.0070
     32 C           3.0209    1.3373   18.7869 C.3     1  UNL1        0.0722
     33 C           2.2894    0.2115   19.4561 C.2     1  UNL1        0.1503
     34 O           0.9111   -0.1640   18.9988 O.2     1  UNL1       -0.2961
     35 C           3.3761   -0.9139   31.0665 C.1     1  UNL1        0.1030
     36 N           4.0230   -1.6641   32.1929 N.1     1  UNL1       -0.1907
@<TRIPOS>BOND
     1    32    33    1
     2    33    34    2
     3     1    33    1
     4     1     2    1
     5     2     3    1
     6     3     4    1
     7     4     5    1
     8     4     6    1
     9     4     7    1
    10     8     7    1
    11     8     9    1
    12     9    10    1
    13    10    11    2
    14    10    12    1
    15    12    13    2
    16    13    14    1
    17    14    15    1
    18    14    16    1
    19    16    17    2
    20    17    35    1
    21    35    36    3
    22    17    18    1
    23    18    19    2
    24    18    20    1
    25    20    21    1
    26    20    22    1
    27    20    23    1
    28    23    24    1
    29    24    25    1
    30    25    26    1
    31    26    27    1
    32    26    28    1
    33    28    29    1
    34    28    30    1
    35    30    31    1
    36     8     1    1
    37    28     9    1
    38    31     1    1
    39    26    13    1
    40    23    14    1
@<TRIPOS>MOLECULE
*****
 36 40 0 0 0
SMALL
GASTEIGER

@<TRIPOS>ATOM
      1 C           4.5705   -2.2860   20.7189 C.3     1  UNL1        0.0519
      2 C           4.9539   -2.7863   19.3578 C.3     1  UNL1        0.0069
      3 C           4.4859   -2.0591   18.1322 C.3     1  UNL1        0.0004
      4 C           3.6345   -0.8316   18.2677 C.3     1  UNL1        0.0000
      5 C           2.8178    0.3667   17.8842 C.3     1  UNL1        0.0000
      6 C           3.7343   -0.9158   16.7734 C.3     1  UNL1        0.0000
      7 C           3.2511   -0.3313   19.6288 C.3     1  UNL1        0.0008
      8 C           3.7191   -1.0585   20.8544 C.3     1  UNL1        0.0138
      9 C           3.3357   -0.5582   22.2156 C.3     1  UNL1        0.0626
     10 C           2.4843    0.6693   22.3511 C.2     1  UNL1        0.1721
     11 O           2.0164    1.3965   21.1254 O.2     1  UNL1       -0.2914
     12 C           2.1010    1.1696   23.7122 C.2     1  UNL1        0.0292
     13 C           2.5689    0.4424   24.9379 C.2     1  UNL1       -0.0388
     14 C           2.1856    0.9427   26.2990 C.3     1  UNL1        0.0349
     15 C           1.7176    1.6699   25.0734 C.3     1  UNL1        0.0085
     16 C           1.3342    2.1703   26.4345 C.2     1  UNL1       -0.0098
     17 C           0.9508    2.6706   27.7956 C.2     1  UNL1        0.0990
     18 C           1.4188    1.9434   29.0213 C.2     1  UNL1        0.1815
     19 O           1.0354    2.4437   30.3824 O.2     1  UNL1       -0.2907
     20 C           2.2701    0.7158   28.8858 C.3     1  UNL1        0.0568
     21 C           3.0869   -0.4824   29.2692 C.3     1  UNL1        0.0077
     22 C           2.1704    0.8000   30.3801 C.3     1  UNL1        0.0077
     23 C           2.6535    0.2155   27.5246 C.3     1  UNL1        0.0141
     24 C           3.5049   -1.0120   27.3891 C.3     1  UNL1        0.0014
     25 C           3.8883   -1.5123   26.0280 C.3     1  UNL1        0.0038
     26 C           3.4203   -0.7851   24.8024 C.3     1  UNL1        0.0159
     27 C           2.9523   -0.0579   23.5767 C.3     1  UNL1        0.0041
     28 C           3.8037   -1.2854   23.4412 C.3     1  UNL1        0.0101
     29 C           4.2717   -2.0126   24.6669 C.3     1  UNL1        0.0007
     30 C           4.6551   -2.5129   23.3057 C.3     1  UNL1        0.0011
     31 C           5.0385   -3.0132   21.9446 C.3     1  UNL1        0.0070
     32 C           6.9171   -3.3958   20.6090 C.3     1  UNL1        0.0722
     33 C           5.4219   -3.5135   20.5834 C.2     1  UNL1        0.1503
     34 O           4.7781   -4.8587   20.4223 O.2     1  UNL1       -0.2961
     35 C           0.0994    3.8981   27.9312 C.1     1  UNL1        0.1030
     36 N          -0.7520    5.1256   28.0667 N.1     1  UNL1       -0.1907
@<TRIPOS>BOND
     1    32    33    1
     2    33    34    2
     3     1    33    1
     4     1     2    1
     5     2     3    1
     6     3     4    1
     7     4     5    1
     8     4     6    1
     9     4     7    1
    10     8     7    1
    11     8     9    1
    12     9    10    1
    13    10    11    2
    14    10    12    1
    15    12    13    2
    16    13    14    1
    17    14    15    1
    18    14    16    1
    19    16    17    2
    20    17    35    1
    21    35    36    3
    22    17    18    1
    23    18    19    2
    24    18    20    1
    25    20    21    1
    26    20    22    1
    27    20    23    1
    28    23    24    1
    29    24    25    1
    30    25    26    1
    31    26    27    1
    32    26    28    1
    33    28    29    1
    34    28    30    1
    35    30    31    1
    36     8     1    1
    37    28     9    1
    38    31     1    1
    39    26    13    1
    40    23    14    1
@<TRIPOS>MOLECULE
*****
 36 40 0 0 0
SMALL
GASTEIGER

@<TRIPOS>ATOM
      1 C           7.2937   -4.5394   26.6232 C.3     1  UNL1        0.0519
      2 C           8.2847   -5.5400   27.1395 C.3     1  UNL1        0.0069
      3 C           8.9135   -6.5262   26.2003 C.3     1  UNL1        0.0004
      4 C           8.5513   -6.5117   24.7448 C.3     1  UNL1        0.0000
      5 C           8.5308   -6.8904   23.2935 C.3     1  UNL1        0.0000
      6 C           9.5352   -7.6438   24.7571 C.3     1  UNL1        0.0000
      7 C           7.5603   -5.5110   24.2284 C.3     1  UNL1        0.0008
      8 C           6.9315   -4.5249   25.1676 C.3     1  UNL1        0.0138
      9 C           5.9404   -3.5242   24.6513 C.3     1  UNL1        0.0626
     10 C           5.5782   -3.5097   23.1958 C.2     1  UNL1        0.1721
     11 O           6.2071   -4.4959   22.2566 O.2     1  UNL1       -0.2914
     12 C           4.5872   -2.5091   22.6795 C.2     1  UNL1        0.0292
     13 C           3.9584   -1.5229   23.6187 C.2     1  UNL1       -0.0388
     14 C           2.9674   -0.5223   23.1023 C.3     1  UNL1        0.0349
     15 C           3.5962   -1.5084   22.1631 C.3     1  UNL1        0.0085
     16 C           2.6052   -0.5078   21.6468 C.2     1  UNL1       -0.0098
     17 C           1.6142    0.4928   21.1305 C.2     1  UNL1        0.0990
     18 C           0.9854    1.4790   22.0697 C.2     1  UNL1        0.1815
     19 O          -0.0056    2.4796   21.5533 O.2     1  UNL1       -0.2907
     20 C           1.3476    1.4645   23.5252 C.3     1  UNL1        0.0568
     21 C           1.3681    1.8432   24.9764 C.3     1  UNL1        0.0077
     22 C           0.3637    2.5967   23.5129 C.3     1  UNL1        0.0077
     23 C           2.3386    0.4638   24.0415 C.3     1  UNL1        0.0141
     24 C           2.7008    0.4493   25.4971 C.3     1  UNL1        0.0014
     25 C           3.6918   -0.5513   26.0134 C.3     1  UNL1        0.0038
     26 C           4.3206   -1.5374   25.0742 C.3     1  UNL1        0.0159
     27 C           4.9495   -2.5236   24.1350 C.3     1  UNL1        0.0041
     28 C           5.3117   -2.5381   25.5905 C.3     1  UNL1        0.0101
     29 C           4.6828   -1.5519   26.5297 C.3     1  UNL1        0.0007
     30 C           5.6739   -2.5526   27.0461 C.3     1  UNL1        0.0011
     31 C           6.6649   -3.5532   27.5624 C.3     1  UNL1        0.0070
     32 C           6.8615   -5.3864   29.0410 C.3     1  UNL1        0.0722
     33 C           7.6559   -4.5539   28.0787 C.2     1  UNL1        0.1503
     34 O           8.8125   -3.7360   28.5720 O.2     1  UNL1       -0.2961
     35 C           1.2520    0.5073   19.6749 C.1     1  UNL1        0.1030
     36 N           0.8898    0.5218   18.2194 N.1     1  UNL1       -0.1907
@<TRIPOS>BOND
     1    32    33    1
     2    33    34    2
     3     1    33    1
     4     1     2    1
     5     2     3    1
     6     3     4    1
     7     4     5    1
     8     4     6    1
     9     4     7    1
    10     8     7    1
    11     8     9    1
    12     9    10    1
    13    10    11    2
    14    10    12    1
    15    12    13    2
    16    13    14    1
    17    14    15    1
    18    14    16    1
    19    16    17    2
    20    17    35    1
    21    35    36    3
    22    17    18    1
    23    18    19    2
    24    18    20    1
    25    20    21    1
    26    20    22    1
    27    20    23    1
    28    23    24    1
    29    24    25    1
    30    25    26    1
    31    26    27    1
    32    26    28    1
    33    28    29    1
    34    28    30    1
    35    30    31    1
    36     8     1    1
    37    28     9    1
    38    31     1    1
    39    26    13    1
    40    23    14    1
@<TRIPOS>MOLECULE
*****
 36 40 0 0 0
SMALL
GASTEIGER

@<TRIPOS>ATOM
      1 C           7.6682   -4.7657   25.0325 C.3     1  UNL1        0.0519
      2 C           8.7297   -5.5897   25.6990 C.3     1  UNL1        0.0069
      3 C           9.0344   -5.3860   27.1535 C.3     1  UNL1        0.0004
      4 C           8.2776   -4.3582   27.9415 C.3     1  UNL1        0.0000
      5 C           7.8363   -3.5149   29.1008 C.3     1  UNL1        0.0000
      6 C           9.1858   -4.8893   29.0106 C.3     1  UNL1        0.0000
      7 C           7.2161   -3.5342   27.2750 C.3     1  UNL1        0.0008
      8 C           6.9114   -3.7379   25.8205 C.3     1  UNL1        0.0138
      9 C           5.8499   -2.9139   25.1539 C.3     1  UNL1        0.0626
     10 C           5.0932   -1.8861   25.9419 C.2     1  UNL1        0.1721
     11 O           5.3979   -1.6823   27.3965 O.2     1  UNL1       -0.2914
     12 C           4.0317   -1.0621   25.2754 C.2     1  UNL1        0.0292
     13 C           3.7270   -1.2658   23.8209 C.2     1  UNL1       -0.0388
     14 C           2.6655   -0.4418   23.1544 C.3     1  UNL1        0.0349
     15 C           2.9702   -0.2380   24.6089 C.3     1  UNL1        0.0085
     16 C           1.9088    0.5860   23.9424 C.2     1  UNL1       -0.0098
     17 C           0.8473    1.4100   23.2759 C.2     1  UNL1        0.0990
     18 C           0.5426    1.2063   21.8213 C.2     1  UNL1        0.1815
     19 O          -0.5189    2.0303   21.1548 O.2     1  UNL1       -0.2907
     20 C           1.2993    0.1785   21.0333 C.3     1  UNL1        0.0568
     21 C           1.7407   -0.6648   19.8740 C.3     1  UNL1        0.0077
     22 C           0.3911    0.7097   19.9642 C.3     1  UNL1        0.0077
     23 C           2.3608   -0.6455   21.6999 C.3     1  UNL1        0.0141
     24 C           3.1176   -1.6733   20.9119 C.3     1  UNL1        0.0014
     25 C           4.1791   -2.4973   21.5784 C.3     1  UNL1        0.0038
     26 C           4.4838   -2.2936   23.0329 C.3     1  UNL1        0.0159
     27 C           4.7885   -2.0898   24.4874 C.3     1  UNL1        0.0041
     28 C           5.5453   -3.1176   23.6994 C.3     1  UNL1        0.0101
     29 C           5.2405   -3.3214   22.2448 C.3     1  UNL1        0.0007
     30 C           6.3020   -4.1454   22.9114 C.3     1  UNL1        0.0011
     31 C           7.3635   -4.9694   23.5779 C.3     1  UNL1        0.0070
     32 C           8.0707   -7.2456   24.3706 C.3     1  UNL1        0.0722
     33 C           8.4250   -5.7935   24.2445 C.2     1  UNL1        0.1503
     34 O           9.5360   -5.3692   23.3304 O.2     1  UNL1       -0.2961
     35 C           0.0905    2.4378   24.0639 C.1     1  UNL1        0.1030
     36 N          -0.6662    3.4656   24.8519 N.1     1  UNL1       -0.1907
@<TRIPOS>BOND
     1    32    33    1
     2    33    34    2
     3     1    33    1
     4     1     2    1
     5     2     3    1
     6     3     4    1
     7     4     5    1
     8     4     6    1
     9     4     7    1
    10     8     7    1
    11     8     9    1
    12     9    10    1
    13    10    11    2
    14    10    12    1
    15    12    13    2
    16    13    14    1
    17    14    15    1
    18    14    16    1
    19    16    17    2
    20    17    35    1
    21    35    36    3
    22    17    18    1
    23    18    19    2
    24    18    20    1
    25    20    21    1
    26    20    22    1
    27    20    23    1
    28    23    24    1
    29    24    25    1
    30    25    26    1
    31    26    27    1
    32    26    28    1
    33    28    29    1
    34    28    30    1
    35    30    31    1
    36     8     1    1
    37    28     9    1
    38    31     1    1
    39    26    13    1
    40    23    14    1
