@<TRIPOS>MOLECULE
*****
 22 24 0 0 0
SMALL
GASTEIGER

@<TRIPOS>ATOM
      1 C          -8.5962  -17.3241   23.5973 C.2     1  UNL1       -0.0240
      2 C          -9.7199  -18.1239   24.1870 C.2     1  UNL1       -0.0420
      3 C          -9.7461  -17.8668   25.6646 C.3     1  UNL1        0.0480
      4 C          -8.6387  -16.9081   25.9881 C.ar    1  UNL1       -0.0184
      5 C          -8.1857  -16.2972   27.2809 C.ar    1  UNL1       -0.0040
      6 C          -7.0220  -15.3510   27.2962 C.ar    1  UNL1       -0.0003
      7 C          -6.3113  -15.0156   26.0185 C.ar    1  UNL1       -0.0000
      8 C          -6.7643  -15.6265   24.7256 C.ar    1  UNL1       -0.0006
      9 C          -7.9280  -16.5727   24.7104 C.ar    1  UNL1       -0.0078
     10 C          -8.2087  -17.2830   22.1488 C.3     1  UNL1        0.0730
     11 C          -3.4738  -19.4138   21.9497 C.3     1  UNL1        0.0537
     12 C          -4.9025  -19.3783   21.4944 C.ar    1  UNL1        0.0781
     13 C          -5.3925  -20.3729   20.4841 C.ar    1  UNL1        0.1135
     14 N          -6.8213  -20.3375   20.0287 N.ar    1  UNL1       -0.2398
     15 C          -7.7600  -19.3075   20.5836 C.ar    1  UNL1        0.1139
     16 C          -7.2700  -18.3129   21.5940 C.ar    1  UNL1        0.0820
     17 N          -5.8412  -18.3483   22.0493 N.ar    1  UNL1       -0.2505
     18 C         -10.6533  -19.0229   23.4318 C.3     1  UNL1        0.0394
     19 C         -11.9281  -18.4734   22.8637 C.3     1  UNL1        0.0765
     20 N         -11.8849  -17.3362   21.8864 N.3     1  UNL1       -0.2700
     21 C         -11.5566  -17.5972   20.4461 C.3     1  UNL1        0.0897
     22 C         -12.1698  -15.9382   22.3493 C.3     1  UNL1        0.0897
@<TRIPOS>BOND
     1    11    12    1
     2    12    13   ar
     3    13    14   ar
     4    14    15   ar
     5    15    16   ar
     6    16    10    1
     7    10     1    1
     8     1     2    2
     9     2    18    1
    10    18    19    1
    11    19    20    1
    12    20    21    1
    13    20    22    1
    14     2     3    1
    15     3     4    1
    16     4     5   ar
    17     5     6   ar
    18     6     7   ar
    19     7     8   ar
    20     8     9   ar
    21    16    17   ar
    22    17    12   ar
    23     9     1    1
    24     9     4   ar
@<TRIPOS>MOLECULE
*****
 22 24 0 0 0
SMALL
GASTEIGER

@<TRIPOS>ATOM
      1 C          -8.6798  -17.4161   22.3500 C.2     1  UNL1       -0.0240
      2 C          -8.3463  -18.8646   22.1485 C.2     1  UNL1       -0.0420
      3 C          -9.6331  -19.6335   22.0964 C.3     1  UNL1        0.0480
      4 C         -10.7619  -18.6603   22.2657 C.ar    1  UNL1       -0.0184
      5 C         -12.2501  -18.8450   22.2973 C.ar    1  UNL1       -0.0040
      6 C         -13.1492  -17.6592   22.4857 C.ar    1  UNL1       -0.0003
      7 C         -12.5600  -16.2887   22.6424 C.ar    1  UNL1       -0.0000
      8 C         -11.0717  -16.1040   22.6108 C.ar    1  UNL1       -0.0006
      9 C         -10.1727  -17.2898   22.4224 C.ar    1  UNL1       -0.0078
     10 C          -7.6935  -16.2912   22.4598 C.3     1  UNL1        0.0730
     11 C          -8.2665  -15.8488   27.6053 C.3     1  UNL1        0.0537
     12 C          -7.4273  -15.6852   26.3728 C.ar    1  UNL1        0.0781
     13 C          -6.0354  -15.1368   26.4807 C.ar    1  UNL1        0.1135
     14 N          -5.1961  -14.9731   25.2483 N.ar    1  UNL1       -0.2398
     15 C          -5.7488  -15.3580   23.9080 C.ar    1  UNL1        0.1139
     16 C          -7.1409  -15.9065   23.8000 C.ar    1  UNL1        0.0820
     17 N          -7.9801  -16.0701   25.0325 N.ar    1  UNL1       -0.2505
     18 C          -6.9680  -19.4426   22.0215 C.3     1  UNL1        0.0394
     19 C          -6.1508  -19.1704   20.7935 C.3     1  UNL1        0.0765
     20 N          -4.6779  -18.9135   20.9144 N.3     1  UNL1       -0.2700
     21 C          -4.0877  -18.5436   22.2430 C.3     1  UNL1        0.0897
     22 C          -3.7952  -19.0265   19.7070 C.3     1  UNL1        0.0897
@<TRIPOS>BOND
     1    11    12    1
     2    12    13   ar
     3    13    14   ar
     4    14    15   ar
     5    15    16   ar
     6    16    10    1
     7    10     1    1
     8     1     2    2
     9     2    18    1
    10    18    19    1
    11    19    20    1
    12    20    21    1
    13    20    22    1
    14     2     3    1
    15     3     4    1
    16     4     5   ar
    17     5     6   ar
    18     6     7   ar
    19     7     8   ar
    20     8     9   ar
    21    16    17   ar
    22    17    12   ar
    23     9     1    1
    24     9     4   ar
@<TRIPOS>MOLECULE
*****
 22 24 0 0 0
SMALL
GASTEIGER

@<TRIPOS>ATOM
      1 C          -8.2663  -19.0683   21.6544 C.2     1  UNL1       -0.0240
      2 C          -8.8976  -19.4755   20.3560 C.2     1  UNL1       -0.0420
      3 C          -7.8086  -19.9495   19.4398 C.3     1  UNL1        0.0480
      4 C          -6.5044  -19.8352   20.1719 C.ar    1  UNL1       -0.0184
      5 C          -5.0957  -20.1567   19.7690 C.ar    1  UNL1       -0.0040
      6 C          -3.9700  -19.9336   20.7348 C.ar    1  UNL1       -0.0003
      7 C          -4.2529  -19.3890   22.1035 C.ar    1  UNL1       -0.0000
      8 C          -5.6615  -19.0675   22.5064 C.ar    1  UNL1       -0.0006
      9 C          -6.7873  -19.2906   21.5406 C.ar    1  UNL1       -0.0078
     10 C          -8.9875  -18.5327   22.8557 C.3     1  UNL1        0.0730
     11 C          -8.3426  -15.6359   27.1209 C.3     1  UNL1        0.0537
     12 C          -8.1996  -15.8153   25.6385 C.ar    1  UNL1        0.0781
     13 C          -7.5911  -14.7256   24.8065 C.ar    1  UNL1        0.1135
     14 N          -7.4480  -14.9050   23.3241 N.ar    1  UNL1       -0.2398
     15 C          -7.9135  -16.1740   22.6739 C.ar    1  UNL1        0.1139
     16 C          -8.5221  -17.2638   23.5059 C.ar    1  UNL1        0.0820
     17 N          -8.6651  -17.0843   24.9883 N.ar    1  UNL1       -0.2505
     18 C         -10.3608  -19.4187   20.0310 C.3     1  UNL1        0.0394
     19 C         -10.9989  -18.1098   19.6709 C.3     1  UNL1        0.0765
     20 N         -11.6016  -17.2495   20.7417 N.3     1  UNL1       -0.2700
     21 C         -12.7286  -17.7754   21.5804 C.3     1  UNL1        0.0897
     22 C         -11.0774  -15.8634   20.9737 C.3     1  UNL1        0.0897
@<TRIPOS>BOND
     1    11    12    1
     2    12    13   ar
     3    13    14   ar
     4    14    15   ar
     5    15    16   ar
     6    16    10    1
     7    10     1    1
     8     1     2    2
     9     2    18    1
    10    18    19    1
    11    19    20    1
    12    20    21    1
    13    20    22    1
    14     2     3    1
    15     3     4    1
    16     4     5   ar
    17     5     6   ar
    18     6     7   ar
    19     7     8   ar
    20     8     9   ar
    21    16    17   ar
    22    17    12   ar
    23     9     1    1
    24     9     4   ar
@<TRIPOS>MOLECULE
*****
 22 24 0 0 0
SMALL
GASTEIGER

@<TRIPOS>ATOM
      1 C          -7.2946  -18.2435   22.1188 C.2     1  UNL1       -0.0240
      2 C          -7.3461  -16.9246   22.8315 C.2     1  UNL1       -0.0420
      3 C          -8.6416  -16.2567   22.4772 C.3     1  UNL1        0.0480
      4 C          -9.3908  -17.1628   21.5456 C.ar    1  UNL1       -0.0184
      5 C         -10.7234  -17.0284   20.8704 C.ar    1  UNL1       -0.0040
      6 C         -11.2235  -18.1219   19.9737 C.ar    1  UNL1       -0.0003
      7 C         -10.3910  -19.3498   19.7522 C.ar    1  UNL1       -0.0000
      8 C          -9.0583  -19.4842   20.4274 C.ar    1  UNL1       -0.0006
      9 C          -8.5582  -18.3907   21.3241 C.ar    1  UNL1       -0.0078
     10 C          -6.1758  -19.2402   22.1886 C.3     1  UNL1        0.0730
     11 C          -1.7552  -16.6871   21.2190 C.3     1  UNL1        0.0537
     12 C          -2.7341  -17.7687   20.8698 C.ar    1  UNL1        0.0781
     13 C          -2.4816  -18.6552   19.6864 C.ar    1  UNL1        0.1135
     14 N          -3.4605  -19.7368   19.3371 N.ar    1  UNL1       -0.2398
     15 C          -4.6919  -19.9317   20.1712 C.ar    1  UNL1        0.1139
     16 C          -4.9444  -19.0452   21.3546 C.ar    1  UNL1        0.0820
     17 N          -3.9655  -17.9636   21.7038 N.ar    1  UNL1       -0.2505
     18 C          -6.2879  -16.3708   23.7390 C.3     1  UNL1        0.0394
     19 C          -6.5978  -15.2022   24.6268 C.3     1  UNL1        0.0765
     20 N          -7.2706  -15.4226   25.9492 N.3     1  UNL1       -0.2700
     21 C          -8.7634  -15.5529   26.0187 C.3     1  UNL1        0.0897
     22 C          -6.4508  -15.5126   27.2021 C.3     1  UNL1        0.0897
@<TRIPOS>BOND
     1    11    12    1
     2    12    13   ar
     3    13    14   ar
     4    14    15   ar
     5    15    16   ar
     6    16    10    1
     7    10     1    1
     8     1     2    2
     9     2    18    1
    10    18    19    1
    11    19    20    1
    12    20    21    1
    13    20    22    1
    14     2     3    1
    15     3     4    1
    16     4     5   ar
    17     5     6   ar
    18     6     7   ar
    19     7     8   ar
    20     8     9   ar
    21    16    17   ar
    22    17    12   ar
    23     9     1    1
    24     9     4   ar
@<TRIPOS>MOLECULE
*****
 22 24 0 0 0
SMALL
GASTEIGER

@<TRIPOS>ATOM
      1 C          -8.3054  -16.9138   23.7534 C.2     1  UNL1       -0.0240
      2 C          -9.4617  -17.6838   24.3192 C.2     1  UNL1       -0.0420
      3 C          -9.4748  -17.4755   25.8046 C.3     1  UNL1        0.0480
      4 C          -8.3267  -16.5767   26.1568 C.ar    1  UNL1       -0.0184
      5 C          -7.8459  -16.0296   27.4681 C.ar    1  UNL1       -0.0040
      6 C          -6.6425  -15.1354   27.5117 C.ar    1  UNL1       -0.0003
      7 C          -5.9197  -14.7882   26.2439 C.ar    1  UNL1       -0.0000
      8 C          -6.4004  -15.3354   24.9326 C.ar    1  UNL1       -0.0006
      9 C          -7.6039  -16.2296   24.8891 C.ar    1  UNL1       -0.0078
     10 C          -7.9185  -16.8408   22.3060 C.3     1  UNL1        0.0730
     11 C          -8.7526  -20.3348   18.5515 C.3     1  UNL1        0.0537
     12 C          -7.9263  -19.8322   19.6981 C.ar    1  UNL1        0.0781
     13 C          -6.6907  -20.5741   20.1140 C.ar    1  UNL1        0.1135
     14 N          -5.8644  -20.0716   21.2606 N.ar    1  UNL1       -0.2398
     15 C          -6.2737  -18.8272   21.9912 C.ar    1  UNL1        0.1139
     16 C          -7.5093  -18.0852   21.5753 C.ar    1  UNL1        0.0820
     17 N          -8.3356  -18.5878   20.4287 N.ar    1  UNL1       -0.2505
     18 C         -10.4341  -18.5160   23.5370 C.3     1  UNL1        0.0394
     19 C         -11.7778  -18.8435   24.1176 C.3     1  UNL1        0.0765
     20 N         -13.0075  -18.1637   23.5927 N.3     1  UNL1       -0.2700
     21 C         -14.2633  -18.1470   24.4130 C.3     1  UNL1        0.0897
     22 C         -12.9816  -17.5006   22.2475 C.3     1  UNL1        0.0897
@<TRIPOS>BOND
     1    11    12    1
     2    12    13   ar
     3    13    14   ar
     4    14    15   ar
     5    15    16   ar
     6    16    10    1
     7    10     1    1
     8     1     2    2
     9     2    18    1
    10    18    19    1
    11    19    20    1
    12    20    21    1
    13    20    22    1
    14     2     3    1
    15     3     4    1
    16     4     5   ar
    17     5     6   ar
    18     6     7   ar
    19     7     8   ar
    20     8     9   ar
    21    16    17   ar
    22    17    12   ar
    23     9     1    1
    24     9     4   ar
@<TRIPOS>MOLECULE
*****
 22 24 0 0 0
SMALL
GASTEIGER

@<TRIPOS>ATOM
      1 C          -6.8890  -18.5139   21.9538 C.2     1  UNL1       -0.0240
      2 C          -7.5442  -17.3705   22.6702 C.2     1  UNL1       -0.0420
      3 C          -8.8934  -17.1491   22.0533 C.3     1  UNL1        0.0480
      4 C          -9.0721  -18.1557   20.9557 C.ar    1  UNL1       -0.0184
      5 C         -10.2028  -18.4132   20.0043 C.ar    1  UNL1       -0.0040
      6 C         -10.0946  -19.5142   18.9914 C.ar    1  UNL1       -0.0003
      7 C          -8.8557  -20.3577   18.9299 C.ar    1  UNL1       -0.0000
      8 C          -7.7251  -20.1002   19.8813 C.ar    1  UNL1       -0.0006
      9 C          -7.8333  -18.9992   20.8942 C.ar    1  UNL1       -0.0078
     10 C          -5.5284  -19.0737   22.2458 C.3     1  UNL1        0.0730
     11 C          -2.0344  -17.7741   18.6260 C.3     1  UNL1        0.0537
     12 C          -2.5543  -17.6635   20.0287 C.ar    1  UNL1        0.0781
     13 C          -1.8469  -16.7926   21.0241 C.ar    1  UNL1        0.1135
     14 N          -2.3666  -16.6820   22.4269 N.ar    1  UNL1       -0.2398
     15 C          -3.5938  -17.4424   22.8340 C.ar    1  UNL1        0.1139
     16 C          -4.3012  -18.3134   21.8386 C.ar    1  UNL1        0.0820
     17 N          -3.7814  -18.4239   20.4359 N.ar    1  UNL1       -0.2505
     18 C          -6.9539  -16.5861   23.8044 C.3     1  UNL1        0.0394
     19 C          -7.8503  -15.9735   24.8393 C.3     1  UNL1        0.0765
     20 N          -7.2843  -15.5361   26.1577 N.3     1  UNL1       -0.2700
     21 C          -8.1973  -15.2968   27.3236 C.3     1  UNL1        0.0897
     22 C          -5.8053  -15.3379   26.3103 C.3     1  UNL1        0.0897
@<TRIPOS>BOND
     1    11    12    1
     2    12    13   ar
     3    13    14   ar
     4    14    15   ar
     5    15    16   ar
     6    16    10    1
     7    10     1    1
     8     1     2    2
     9     2    18    1
    10    18    19    1
    11    19    20    1
    12    20    21    1
    13    20    22    1
    14     2     3    1
    15     3     4    1
    16     4     5   ar
    17     5     6   ar
    18     6     7   ar
    19     7     8   ar
    20     8     9   ar
    21    16    17   ar
    22    17    12   ar
    23     9     1    1
    24     9     4   ar
@<TRIPOS>MOLECULE
*****
 22 24 0 0 0
SMALL
GASTEIGER

@<TRIPOS>ATOM
      1 C          -9.9275  -19.1070   22.4004 C.2     1  UNL1       -0.0240
      2 C         -10.8648  -18.8220   21.2646 C.2     1  UNL1       -0.0420
      3 C         -10.1420  -19.1132   19.9829 C.3     1  UNL1        0.0480
      4 C          -8.7579  -19.5783   20.3267 C.ar    1  UNL1       -0.0184
      5 C          -7.6012  -20.0048   19.4722 C.ar    1  UNL1       -0.0040
      6 C          -6.3120  -20.4275   20.1119 C.ar    1  UNL1       -0.0003
      7 C          -6.1795  -20.4237   21.6060 C.ar    1  UNL1       -0.0000
      8 C          -7.3362  -19.9972   22.4605 C.ar    1  UNL1       -0.0006
      9 C          -8.6254  -19.5745   21.8208 C.ar    1  UNL1       -0.0078
     10 C         -10.2379  -18.9519   23.8598 C.3     1  UNL1        0.0730
     11 C          -7.2374  -14.7192   24.1443 C.3     1  UNL1        0.0537
     12 C          -7.9998  -15.8190   24.8219 C.ar    1  UNL1        0.0781
     13 C          -8.0242  -15.9023   26.3193 C.ar    1  UNL1        0.1135
     14 N          -8.7866  -17.0022   26.9970 N.ar    1  UNL1       -0.2398
     15 C          -9.5245  -18.0187   26.1771 C.ar    1  UNL1        0.1139
     16 C          -9.5000  -17.9354   24.6796 C.ar    1  UNL1        0.0820
     17 N          -8.7376  -16.8356   24.0020 N.ar    1  UNL1       -0.2505
     18 C         -12.2770  -18.3317   21.3886 C.3     1  UNL1        0.0394
     19 C         -12.5915  -16.8838   21.1547 C.3     1  UNL1        0.0765
     20 N         -11.5862  -15.9972   20.4815 N.3     1  UNL1       -0.2700
     21 C         -11.7994  -15.5653   19.0609 C.3     1  UNL1        0.0897
     22 C         -10.3678  -15.5424   21.2288 C.3     1  UNL1        0.0897
@<TRIPOS>BOND
     1    11    12    1
     2    12    13   ar
     3    13    14   ar
     4    14    15   ar
     5    15    16   ar
     6    16    10    1
     7    10     1    1
     8     1     2    2
     9     2    18    1
    10    18    19    1
    11    19    20    1
    12    20    21    1
    13    20    22    1
    14     2     3    1
    15     3     4    1
    16     4     5   ar
    17     5     6   ar
    18     6     7   ar
    19     7     8   ar
    20     8     9   ar
    21    16    17   ar
    22    17    12   ar
    23     9     1    1
    24     9     4   ar
@<TRIPOS>MOLECULE
*****
 22 24 0 0 0
SMALL
GASTEIGER

@<TRIPOS>ATOM
      1 C          -9.1380  -17.8452   22.0318 C.2     1  UNL1       -0.0240
      2 C         -10.1461  -17.9841   20.9298 C.2     1  UNL1       -0.0420
      3 C          -9.5784  -18.9114   19.8965 C.3     1  UNL1        0.0480
      4 C          -8.2194  -19.3457   20.3599 C.ar    1  UNL1       -0.0184
      5 C          -7.1947  -20.2560   19.7506 C.ar    1  UNL1       -0.0040
      6 C          -5.8978  -20.5073   20.4611 C.ar    1  UNL1       -0.0003
      7 C          -5.6256  -19.8484   21.7808 C.ar    1  UNL1       -0.0000
      8 C          -6.6504  -18.9381   22.3901 C.ar    1  UNL1       -0.0006
      9 C          -7.9473  -18.6867   21.6796 C.ar    1  UNL1       -0.0078
     10 C          -9.2933  -17.0113   23.2689 C.3     1  UNL1        0.0730
     11 C          -6.6019  -15.4619   27.4349 C.3     1  UNL1        0.0537
     12 C          -6.7558  -15.5455   25.9451 C.ar    1  UNL1        0.0781
     13 C          -5.7178  -14.9381   25.0487 C.ar    1  UNL1        0.1135
     14 N          -5.8717  -15.0218   23.5589 N.ar    1  UNL1       -0.2398
     15 C          -7.0635  -15.7128   22.9657 C.ar    1  UNL1        0.1139
     16 C          -8.1016  -16.3203   23.8622 C.ar    1  UNL1        0.0820
     17 N          -7.9477  -16.2366   25.3519 N.ar    1  UNL1       -0.2505
     18 C         -11.4865  -17.3134   20.8713 C.3     1  UNL1        0.0394
     19 C         -12.6855  -17.9794   21.4784 C.3     1  UNL1        0.0765
     20 N         -12.6818  -18.3504   22.9318 N.3     1  UNL1       -0.2700
     21 C         -13.6328  -17.6809   23.8792 C.3     1  UNL1        0.0897
     22 C         -11.7272  -19.3909   23.4378 C.3     1  UNL1        0.0897
@<TRIPOS>BOND
     1    11    12    1
     2    12    13   ar
     3    13    14   ar
     4    14    15   ar
     5    15    16   ar
     6    16    10    1
     7    10     1    1
     8     1     2    2
     9     2    18    1
    10    18    19    1
    11    19    20    1
    12    20    21    1
    13    20    22    1
    14     2     3    1
    15     3     4    1
    16     4     5   ar
    17     5     6   ar
    18     6     7   ar
    19     7     8   ar
    20     8     9   ar
    21    16    17   ar
    22    17    12   ar
    23     9     1    1
    24     9     4   ar
@<TRIPOS>MOLECULE
*****
 22 24 0 0 0
SMALL
GASTEIGER

@<TRIPOS>ATOM
      1 C          -9.3106  -17.9226   23.0415 C.2     1  UNL1       -0.0240
      2 C          -9.6486  -16.8032   23.9811 C.2     1  UNL1       -0.0420
      3 C         -10.6747  -15.9341   23.3164 C.3     1  UNL1        0.0480
      4 C         -10.9708  -16.5163   21.9661 C.ar    1  UNL1       -0.0184
      5 C         -11.8992  -16.0862   20.8692 C.ar    1  UNL1       -0.0040
      6 C         -11.9846  -16.8851   19.6026 C.ar    1  UNL1       -0.0003
      7 C         -11.1415  -18.1141   19.4327 C.ar    1  UNL1       -0.0000
      8 C         -10.2132  -18.5442   20.5296 C.ar    1  UNL1       -0.0006
      9 C         -10.1278  -17.7453   21.7962 C.ar    1  UNL1       -0.0078
     10 C          -8.3280  -19.0257   23.3017 C.3     1  UNL1        0.0730
     11 C          -5.2292  -21.3940   19.8683 C.3     1  UNL1        0.0537
     12 C          -5.4904  -20.2631   20.8184 C.ar    1  UNL1        0.0781
     13 C          -4.4634  -19.1853   21.0018 C.ar    1  UNL1        0.1135
     14 N          -4.7246  -18.0543   21.9519 N.ar    1  UNL1       -0.2398
     15 C          -6.0128  -18.0011   22.7185 C.ar    1  UNL1        0.1139
     16 C          -7.0399  -19.0789   22.5351 C.ar    1  UNL1        0.0820
     17 N          -6.7786  -20.2099   21.5850 N.ar    1  UNL1       -0.2505
     18 C          -9.0633  -16.5903   25.3456 C.3     1  UNL1        0.0394
     19 C          -8.1910  -15.3991   25.6101 C.3     1  UNL1        0.0765
     20 N          -6.8044  -15.5898   26.1495 N.3     1  UNL1       -0.2700
     21 C          -6.6063  -16.0393   27.5668 C.3     1  UNL1        0.0897
     22 C          -5.6160  -15.3310   25.2717 C.3     1  UNL1        0.0897
@<TRIPOS>BOND
     1    11    12    1
     2    12    13   ar
     3    13    14   ar
     4    14    15   ar
     5    15    16   ar
     6    16    10    1
     7    10     1    1
     8     1     2    2
     9     2    18    1
    10    18    19    1
    11    19    20    1
    12    20    21    1
    13    20    22    1
    14     2     3    1
    15     3     4    1
    16     4     5   ar
    17     5     6   ar
    18     6     7   ar
    19     7     8   ar
    20     8     9   ar
    21    16    17   ar
    22    17    12   ar
    23     9     1    1
    24     9     4   ar
