@<TRIPOS>MOLECULE
*****
 33 37 0 0 0
SMALL
GASTEIGER

@<TRIPOS>ATOM
      1 C          -4.9012  -15.9086   24.1335 C.ar    1  UNL1        0.0519
      2 C          -4.5371  -15.3273   25.4675 C.ar    1  UNL1        0.0148
      3 C          -5.5933  -15.1337   26.5148 C.ar    1  UNL1        0.0044
      4 C          -7.0137  -15.5214   26.2281 C.ar    1  UNL1        0.0402
      5 C          -8.2611  -15.4484   27.0579 C.ar    1  UNL1        0.1235
      6 N          -9.3962  -15.9845   26.2368 N.ar    1  UNL1       -0.1468
      7 N          -8.8503  -16.3889   24.8994 N.ar    1  UNL1       -0.1274
      8 C          -7.3779  -16.1027   24.8941 C.ar    1  UNL1        0.1053
      9 C          -6.3216  -16.2963   23.8468 C.ar    1  UNL1        0.0354
     10 O          -3.9333  -18.6700   23.4715 O.2     1  UNL1       -0.2747
     11 C          -3.3610  -17.4828   22.7553 C.2     1  UNL1        0.2270
     12 N          -3.8449  -16.1022   23.0862 N.am    1  UNL1       -0.2838
     13 H          -3.4693  -15.3230   22.6161 H       1  UNL1        0.1549
     14 C          -2.3046  -17.6763   21.7080 C.3     1  UNL1        0.0925
     15 C          -1.5245  -16.4988   21.2030 C.3     1  UNL1        0.0119
     16 C          -0.4682  -16.6922   20.1558 C.3     1  UNL1        0.0176
     17 C          -0.1920  -18.0632   19.6135 C.3     1  UNL1        0.0686
     18 N          -0.9720  -19.2407   20.1184 N.3     1  UNL1       -0.2971
     19 C          -2.0284  -19.0473   21.1657 C.3     1  UNL1        0.0777
     20 H          -0.2948  -19.9001   20.5016 H       1  UNL1        0.1233
     21 S          -9.6384  -16.9763   23.7664 S.O2    1  UNL1        0.1006
     22 O          -9.4224  -15.7252   22.9675 O.2     1  UNL1       -0.1463
     23 O          -9.8545  -18.2273   24.5653 O.2     1  UNL1       -0.1463
     24 C         -10.4266  -17.5637   22.6334 C.ar    1  UNL1        0.1291
     25 C         -11.9174  -17.4030   22.5942 C.ar    1  UNL1        0.0204
     26 C         -12.7056  -17.9904   21.4612 C.ar    1  UNL1        0.0014
     27 C         -12.0029  -18.7386   20.3673 C.ar    1  UNL1        0.0001
     28 C         -10.5120  -18.8993   20.4065 C.ar    1  UNL1        0.0013
     29 C          -9.8094  -19.6475   19.3127 C.ar    1  UNL1        0.0000
     30 C          -8.3185  -19.8082   19.3519 C.ar    1  UNL1        0.0000
     31 C          -7.5304  -19.2207   20.4849 C.ar    1  UNL1        0.0000
     32 C          -8.2330  -18.4726   21.5787 C.ar    1  UNL1        0.0013
     33 C          -9.7239  -18.3119   21.5395 C.ar    1  UNL1        0.0191
@<TRIPOS>BOND
     1    10    11    2
     2    11    12   am
     3    12     1    1
     4     1     2   ar
     5     2     3   ar
     6     3     4   ar
     7     4     5   ar
     8     5     6   ar
     9     6     7   ar
    10     7    21    1
    11    21    22    2
    12    21    23    2
    13    21    24    1
    14    24    25   ar
    15    25    26   ar
    16    26    27   ar
    17    27    28   ar
    18    28    29   ar
    19    29    30   ar
    20    30    31   ar
    21    31    32   ar
    22    32    33   ar
    23     7     8   ar
    24     8     9   ar
    25    11    14    1
    26    14    15    1
    27    15    16    1
    28    16    17    1
    29    17    18    1
    30    18    19    1
    31     9     1   ar
    32    19    14    1
    33     8     4   ar
    34    33    24   ar
    35    33    28   ar
    36    12    13    1
    37    18    20    1
@<TRIPOS>MOLECULE
*****
 33 37 0 0 0
SMALL
GASTEIGER

@<TRIPOS>ATOM
      1 C           7.4579   -5.4748   25.9968 C.ar    1  UNL1        0.0519
      2 C           8.6054   -6.3995   25.7176 C.ar    1  UNL1        0.0148
      3 C           9.1254   -6.5484   24.3185 C.ar    1  UNL1        0.0044
      4 C           8.4977   -5.7726   23.1986 C.ar    1  UNL1        0.0402
      5 C           8.7932   -5.7141   21.7292 C.ar    1  UNL1        0.1235
      6 N           7.8282   -4.7532   21.1003 N.ar    1  UNL1       -0.1468
      7 N           6.9363   -4.2178   22.1810 N.ar    1  UNL1       -0.1274
      8 C           7.3502   -4.8479   23.4779 C.ar    1  UNL1        0.1053
      9 C           6.8302   -4.6990   24.8770 C.ar    1  UNL1        0.0354
     10 O           8.8326   -3.6269   27.9193 O.2     1  UNL1       -0.2747
     11 C           7.6253   -4.4021   28.3572 C.2     1  UNL1        0.2270
     12 N           6.9380   -5.3260   27.3959 N.am    1  UNL1       -0.2838
     13 H           6.1457   -5.8347   27.6834 H       1  UNL1        0.1549
     14 C           7.1054   -4.2533   29.7564 C.3     1  UNL1        0.0925
     15 C           6.6044   -2.9221   30.2327 C.3     1  UNL1        0.0119
     16 C           6.0845   -2.7732   31.6318 C.3     1  UNL1        0.0176
     17 C           6.0656   -3.9557   32.5546 C.3     1  UNL1        0.0686
     18 N           6.5665   -5.2869   32.0782 N.3     1  UNL1       -0.2971
     19 C           7.0865   -5.4357   30.6791 C.3     1  UNL1        0.0777
     20 H           5.7933   -5.9448   32.1765 H       1  UNL1        0.1233
     21 S           5.8257   -3.2265   21.9972 S.O2    1  UNL1        0.1006
     22 O           6.8028   -2.1008   22.1646 O.2     1  UNL1       -0.1463
     23 O           4.8486   -4.3522   21.8298 O.2     1  UNL1       -0.1463
     24 C           4.7151   -2.2352   21.8134 C.ar    1  UNL1        0.1291
     25 C           3.9636   -1.7212   23.0054 C.ar    1  UNL1        0.0204
     26 C           2.8530   -0.7298   22.8216 C.ar    1  UNL1        0.0014
     27 C           2.4939   -0.2525   21.4457 C.ar    1  UNL1        0.0001
     28 C           3.2453   -0.7665   20.2536 C.ar    1  UNL1        0.0013
     29 C           2.8862   -0.2892   18.8777 C.ar    1  UNL1        0.0000
     30 C           3.6376   -0.8032   17.6856 C.ar    1  UNL1        0.0000
     31 C           4.7482   -1.7945   17.8694 C.ar    1  UNL1        0.0000
     32 C           5.1074   -2.2719   19.2453 C.ar    1  UNL1        0.0013
     33 C           4.3559   -1.7579   20.4374 C.ar    1  UNL1        0.0191
@<TRIPOS>BOND
     1    10    11    2
     2    11    12   am
     3    12     1    1
     4     1     2   ar
     5     2     3   ar
     6     3     4   ar
     7     4     5   ar
     8     5     6   ar
     9     6     7   ar
    10     7    21    1
    11    21    22    2
    12    21    23    2
    13    21    24    1
    14    24    25   ar
    15    25    26   ar
    16    26    27   ar
    17    27    28   ar
    18    28    29   ar
    19    29    30   ar
    20    30    31   ar
    21    31    32   ar
    22    32    33   ar
    23     7     8   ar
    24     8     9   ar
    25    11    14    1
    26    14    15    1
    27    15    16    1
    28    16    17    1
    29    17    18    1
    30    18    19    1
    31     9     1   ar
    32    19    14    1
    33     8     4   ar
    34    33    24   ar
    35    33    28   ar
    36    12    13    1
    37    18    20    1
@<TRIPOS>MOLECULE
*****
 33 37 0 0 0
SMALL
GASTEIGER

@<TRIPOS>ATOM
      1 C           8.0365   -4.4463   25.8139 C.ar    1  UNL1        0.0519
      2 C           9.2014   -5.3527   25.5467 C.ar    1  UNL1        0.0148
      3 C           9.5209   -5.7690   24.1415 C.ar    1  UNL1        0.0044
      4 C           8.6755   -5.2789   23.0035 C.ar    1  UNL1        0.0402
      5 C           8.7467   -5.5184   21.5245 C.ar    1  UNL1        0.1235
      6 N           7.6258   -4.7600   20.8776 N.ar    1  UNL1       -0.1468
      7 N           6.8618   -4.0517   21.9569 N.ar    1  UNL1       -0.1274
      8 C           7.5106   -4.3724   23.2707 C.ar    1  UNL1        0.1053
      9 C           7.1911   -3.9561   24.6759 C.ar    1  UNL1        0.0354
     10 O           7.0591   -6.4767   27.7944 O.2     1  UNL1       -0.2747
     11 C           7.2284   -5.0452   28.2094 C.2     1  UNL1        0.2270
     12 N           7.7172   -4.0300   27.2191 N.am    1  UNL1       -0.2838
     13 H           7.8283   -3.0905   27.4915 H       1  UNL1        0.1549
     14 C           6.9090   -4.6288   29.6147 C.3     1  UNL1        0.0925
     15 C           6.5598   -3.2008   29.9128 C.3     1  UNL1        0.0119
     16 C           6.2405   -2.7844   31.3180 C.3     1  UNL1        0.0176
     17 C           6.2703   -3.7961   32.4251 C.3     1  UNL1        0.0686
     18 N           6.6194   -5.2241   32.1269 N.3     1  UNL1       -0.2971
     19 C           6.9388   -5.6405   30.7218 C.3     1  UNL1        0.0777
     20 H           5.8265   -5.7903   32.4288 H       1  UNL1        0.1233
     21 S           5.6601   -3.1764   21.7573 S.O2    1  UNL1        0.1006
     22 O           6.5579   -2.0027   21.4997 O.2     1  UNL1       -0.1463
     23 O           4.7624   -4.3502   22.0149 O.2     1  UNL1       -0.1463
     24 C           4.4584   -2.3012   21.5577 C.ar    1  UNL1        0.1291
     25 C           3.8047   -2.2207   20.2101 C.ar    1  UNL1        0.0204
     26 C           2.6030   -1.3454   20.0105 C.ar    1  UNL1        0.0014
     27 C           2.0551   -0.5506   21.1586 C.ar    1  UNL1        0.0001
     28 C           2.7088   -0.6311   22.5063 C.ar    1  UNL1        0.0013
     29 C           2.1608    0.1637   23.6543 C.ar    1  UNL1        0.0000
     30 C           2.8146    0.0832   25.0019 C.ar    1  UNL1        0.0000
     31 C           4.0163   -0.7921   25.2015 C.ar    1  UNL1        0.0000
     32 C           4.5642   -1.5869   24.0535 C.ar    1  UNL1        0.0013
     33 C           3.9105   -1.5064   22.7059 C.ar    1  UNL1        0.0191
@<TRIPOS>BOND
     1    10    11    2
     2    11    12   am
     3    12     1    1
     4     1     2   ar
     5     2     3   ar
     6     3     4   ar
     7     4     5   ar
     8     5     6   ar
     9     6     7   ar
    10     7    21    1
    11    21    22    2
    12    21    23    2
    13    21    24    1
    14    24    25   ar
    15    25    26   ar
    16    26    27   ar
    17    27    28   ar
    18    28    29   ar
    19    29    30   ar
    20    30    31   ar
    21    31    32   ar
    22    32    33   ar
    23     7     8   ar
    24     8     9   ar
    25    11    14    1
    26    14    15    1
    27    15    16    1
    28    16    17    1
    29    17    18    1
    30    18    19    1
    31     9     1   ar
    32    19    14    1
    33     8     4   ar
    34    33    24   ar
    35    33    28   ar
    36    12    13    1
    37    18    20    1
@<TRIPOS>MOLECULE
*****
 33 37 0 0 0
SMALL
GASTEIGER

@<TRIPOS>ATOM
      1 C           0.4315    1.3986   25.0685 C.ar    1  UNL1        0.0519
      2 C          -0.5782    2.5044   25.1577 C.ar    1  UNL1        0.0148
      3 C          -1.0381    3.2023   23.9121 C.ar    1  UNL1        0.0044
      4 C          -0.4884    2.7944   22.5774 C.ar    1  UNL1        0.0402
      5 C          -0.7510    3.2953   21.1881 C.ar    1  UNL1        0.1235
      6 N           0.0963    2.4991   20.2404 N.ar    1  UNL1       -0.1468
      7 N           0.8826    1.5061   21.0439 N.ar    1  UNL1       -0.1274
      8 C           0.5213    1.6886   22.4883 C.ar    1  UNL1        0.1053
      9 C           0.9812    0.9907   23.7338 C.ar    1  UNL1        0.0354
     10 O           2.4452    2.7086   26.8655 O.2     1  UNL1       -0.2747
     11 C           1.8981    1.3558   27.2126 C.2     1  UNL1        0.2270
     12 N           0.8913    0.7008   26.3141 N.am    1  UNL1       -0.2838
     13 H           0.5323   -0.1871   26.5420 H       1  UNL1        0.1549
     14 C           2.3580    0.6578   28.4583 C.3     1  UNL1        0.0925
     15 C           3.7824    0.7898   28.9095 C.3     1  UNL1        0.0119
     16 C           4.2422    0.0919   30.1551 C.3     1  UNL1        0.0176
     17 C           3.2776   -0.7379   30.9494 C.3     1  UNL1        0.0686
     18 N           1.8532   -0.8698   30.4981 N.3     1  UNL1       -0.2971
     19 C           1.3934   -0.1720   29.2526 C.3     1  UNL1        0.0777
     20 H           1.2697   -0.5260   31.2608 H       1  UNL1        0.1233
     21 S           1.8589    0.5062   20.4988 S.O2    1  UNL1        0.1006
     22 O           2.9701    1.4996   20.6669 O.2     1  UNL1       -0.1463
     23 O           0.7476   -0.4872   20.3308 O.2     1  UNL1       -0.1463
     24 C           2.8351   -0.4937   19.9537 C.ar    1  UNL1        0.1291
     25 C           3.0950   -0.5606   18.4780 C.ar    1  UNL1        0.0204
     26 C           4.0712   -1.5605   17.9329 C.ar    1  UNL1        0.0014
     27 C           4.7876   -2.4935   18.8635 C.ar    1  UNL1        0.0001
     28 C           4.5277   -2.4267   20.3394 C.ar    1  UNL1        0.0013
     29 C           5.2440   -3.3598   21.2701 C.ar    1  UNL1        0.0000
     30 C           4.9841   -3.2930   22.7458 C.ar    1  UNL1        0.0000
     31 C           4.0079   -2.2931   23.2909 C.ar    1  UNL1        0.0000
     32 C           3.2915   -1.3600   22.3603 C.ar    1  UNL1        0.0013
     33 C           3.5515   -1.4268   20.8845 C.ar    1  UNL1        0.0191
@<TRIPOS>BOND
     1    10    11    2
     2    11    12   am
     3    12     1    1
     4     1     2   ar
     5     2     3   ar
     6     3     4   ar
     7     4     5   ar
     8     5     6   ar
     9     6     7   ar
    10     7    21    1
    11    21    22    2
    12    21    23    2
    13    21    24    1
    14    24    25   ar
    15    25    26   ar
    16    26    27   ar
    17    27    28   ar
    18    28    29   ar
    19    29    30   ar
    20    30    31   ar
    21    31    32   ar
    22    32    33   ar
    23     7     8   ar
    24     8     9   ar
    25    11    14    1
    26    14    15    1
    27    15    16    1
    28    16    17    1
    29    17    18    1
    30    18    19    1
    31     9     1   ar
    32    19    14    1
    33     8     4   ar
    34    33    24   ar
    35    33    28   ar
    36    12    13    1
    37    18    20    1
@<TRIPOS>MOLECULE
*****
 33 37 0 0 0
SMALL
GASTEIGER

@<TRIPOS>ATOM
      1 C           0.7456    2.1931   20.2515 C.ar    1  UNL1        0.0519
      2 C           1.1010    2.3671   18.8046 C.ar    1  UNL1        0.0148
      3 C           0.1581    3.0799   17.8812 C.ar    1  UNL1        0.0044
      4 C          -1.1403    3.6188   18.4046 C.ar    1  UNL1        0.0402
      5 C          -2.2611    4.3598   17.7379 C.ar    1  UNL1        0.1235
      6 N          -3.3092    4.6438   18.7727 N.ar    1  UNL1       -0.1468
      7 N          -2.8361    4.0783   20.0790 N.ar    1  UNL1       -0.1274
      8 C          -1.4957    3.4448   19.8515 C.ar    1  UNL1        0.1053
      9 C          -0.5527    2.7320   20.7749 C.ar    1  UNL1        0.0354
     10 O           0.8874   -0.8035   20.2303 O.2     1  UNL1       -0.2747
     11 C           1.7595   -0.0179   21.1643 C.2     1  UNL1        0.2270
     12 N           1.6886    1.4803   21.1749 N.am    1  UNL1       -0.2838
     13 H           2.2610    1.9959   21.7879 H       1  UNL1        0.1549
     14 C           2.7026   -0.7307   22.0877 C.3     1  UNL1        0.0925
     15 C           3.5716   -1.8361   21.5653 C.3     1  UNL1        0.0119
     16 C           4.5146   -2.5489   22.4886 C.3     1  UNL1        0.0176
     17 C           4.5886   -2.1563   23.9344 C.3     1  UNL1        0.0686
     18 N           3.7196   -1.0509   24.4568 N.3     1  UNL1       -0.2971
     19 C           2.7766   -0.3381   23.5335 C.3     1  UNL1        0.0777
     20 H           4.3441   -0.3432   24.8437 H       1  UNL1        0.1233
     21 S          -3.5740    4.1361   21.3837 S.O2    1  UNL1        0.1006
     22 O          -3.1407    5.5606   21.5656 O.2     1  UNL1       -0.1463
     23 O          -4.0073    2.7117   21.2018 O.2     1  UNL1       -0.1463
     24 C          -4.3118    4.1940   22.6884 C.ar    1  UNL1        0.1291
     25 C          -5.7743    4.5265   22.7089 C.ar    1  UNL1        0.0204
     26 C          -6.5121    4.5844   24.0136 C.ar    1  UNL1        0.0014
     27 C          -5.7875    4.3097   25.2978 C.ar    1  UNL1        0.0001
     28 C          -4.3249    3.9771   25.2774 C.ar    1  UNL1        0.0013
     29 C          -3.6002    3.7024   26.5617 C.ar    1  UNL1        0.0000
     30 C          -2.1377    3.3699   26.5412 C.ar    1  UNL1        0.0000
     31 C          -1.3999    3.3120   25.2365 C.ar    1  UNL1        0.0000
     32 C          -2.1246    3.5867   23.9523 C.ar    1  UNL1        0.0013
     33 C          -3.5871    3.9193   23.9727 C.ar    1  UNL1        0.0191
@<TRIPOS>BOND
     1    10    11    2
     2    11    12   am
     3    12     1    1
     4     1     2   ar
     5     2     3   ar
     6     3     4   ar
     7     4     5   ar
     8     5     6   ar
     9     6     7   ar
    10     7    21    1
    11    21    22    2
    12    21    23    2
    13    21    24    1
    14    24    25   ar
    15    25    26   ar
    16    26    27   ar
    17    27    28   ar
    18    28    29   ar
    19    29    30   ar
    20    30    31   ar
    21    31    32   ar
    22    32    33   ar
    23     7     8   ar
    24     8     9   ar
    25    11    14    1
    26    14    15    1
    27    15    16    1
    28    16    17    1
    29    17    18    1
    30    18    19    1
    31     9     1   ar
    32    19    14    1
    33     8     4   ar
    34    33    24   ar
    35    33    28   ar
    36    12    13    1
    37    18    20    1
@<TRIPOS>MOLECULE
*****
 33 37 0 0 0
SMALL
GASTEIGER

@<TRIPOS>ATOM
      1 C           4.9247   -3.2158   20.7565 C.ar    1  UNL1        0.0519
      2 C           5.5875   -3.6681   19.4891 C.ar    1  UNL1        0.0148
      3 C           5.2867   -2.9712   18.1954 C.ar    1  UNL1        0.0044
      4 C           4.3232   -1.8219   18.1689 C.ar    1  UNL1        0.0402
      5 C           3.8337   -0.9480   17.0524 C.ar    1  UNL1        0.1235
      6 N           2.8684    0.0445   17.6297 N.ar    1  UNL1       -0.1468
      7 N           2.7613   -0.2161   19.1030 N.ar    1  UNL1       -0.1274
      8 C           3.6604   -1.3696   19.4363 C.ar    1  UNL1        0.1053
      9 C           3.9612   -2.0665   20.7300 C.ar    1  UNL1        0.0354
     10 O           7.5105   -2.6831   22.1814 O.2     1  UNL1       -0.2747
     11 C           6.5184   -3.6464   22.7626 C.2     1  UNL1        0.2270
     12 N           5.2256   -3.9127   22.0502 N.am    1  UNL1       -0.2838
     13 H           4.5744   -4.5450   22.4317 H       1  UNL1        0.1549
     14 C           6.8192   -4.3434   24.0564 C.3     1  UNL1        0.0925
     15 C           7.6508   -5.5918   24.0601 C.3     1  UNL1        0.0119
     16 C           7.9517   -6.2888   25.3538 C.3     1  UNL1        0.0176
     17 C           7.4208   -5.7375   26.6438 C.3     1  UNL1        0.0686
     18 N           6.5891   -4.4892   26.6401 N.3     1  UNL1       -0.2971
     19 C           6.2883   -3.7921   25.3465 C.3     1  UNL1        0.0777
     20 H           7.0698   -3.8133   27.2339 H       1  UNL1        0.1233
     21 S           1.9054    0.5435   20.0728 S.O2    1  UNL1        0.1006
     22 O           0.8995   -0.5691   20.0564 O.2     1  UNL1       -0.1463
     23 O           2.9113    1.6561   20.0892 O.2     1  UNL1       -0.1463
     24 C           1.0495    1.3031   21.0426 C.ar    1  UNL1        0.1291
     25 C          -0.0465    2.1940   20.5375 C.ar    1  UNL1        0.0204
     26 C          -0.9024    2.9535   21.5073 C.ar    1  UNL1        0.0014
     27 C          -0.6623    2.8223   22.9821 C.ar    1  UNL1        0.0001
     28 C           0.4338    1.9315   23.4872 C.ar    1  UNL1        0.0013
     29 C           0.6739    1.8002   24.9620 C.ar    1  UNL1        0.0000
     30 C           1.7700    0.9094   25.4670 C.ar    1  UNL1        0.0000
     31 C           2.6259    0.1498   24.4973 C.ar    1  UNL1        0.0000
     32 C           2.3857    0.2810   23.0225 C.ar    1  UNL1        0.0013
     33 C           1.2897    1.1719   22.5174 C.ar    1  UNL1        0.0191
@<TRIPOS>BOND
     1    10    11    2
     2    11    12   am
     3    12     1    1
     4     1     2   ar
     5     2     3   ar
     6     3     4   ar
     7     4     5   ar
     8     5     6   ar
     9     6     7   ar
    10     7    21    1
    11    21    22    2
    12    21    23    2
    13    21    24    1
    14    24    25   ar
    15    25    26   ar
    16    26    27   ar
    17    27    28   ar
    18    28    29   ar
    19    29    30   ar
    20    30    31   ar
    21    31    32   ar
    22    32    33   ar
    23     7     8   ar
    24     8     9   ar
    25    11    14    1
    26    14    15    1
    27    15    16    1
    28    16    17    1
    29    17    18    1
    30    18    19    1
    31     9     1   ar
    32    19    14    1
    33     8     4   ar
    34    33    24   ar
    35    33    28   ar
    36    12    13    1
    37    18    20    1
@<TRIPOS>MOLECULE
*****
 33 37 0 0 0
SMALL
GASTEIGER

@<TRIPOS>ATOM
      1 C           5.2442   -2.0770   26.9644 C.ar    1  UNL1        0.0519
      2 C           6.4058   -2.2430   27.8989 C.ar    1  UNL1        0.0148
      3 C           7.7477   -2.6457   27.3632 C.ar    1  UNL1        0.0044
      4 C           7.9281   -2.8825   25.8930 C.ar    1  UNL1        0.0402
      5 C           9.1230   -3.2850   25.0804 C.ar    1  UNL1        0.1235
      6 N           8.6998   -3.3678   23.6437 N.ar    1  UNL1       -0.1468
      7 N           7.2435   -3.0165   23.5684 N.ar    1  UNL1       -0.1274
      8 C           6.7666   -2.7166   24.9585 C.ar    1  UNL1        0.1053
      9 C           5.4246   -2.3138   25.4942 C.ar    1  UNL1        0.0354
     10 O           4.3454    0.7784   26.7663 O.2     1  UNL1       -0.2747
     11 C           3.4529   -0.2466   27.4011 C.2     1  UNL1        0.2270
     12 N           3.9024   -1.6743   27.5001 N.am    1  UNL1       -0.2838
     13 H           3.3166   -2.3469   27.9168 H       1  UNL1        0.1549
     14 C           2.1109    0.1561   27.9369 C.3     1  UNL1        0.0925
     15 C           1.1772    0.9674   27.0884 C.3     1  UNL1        0.0119
     16 C          -0.1647    1.3701   27.6241 C.3     1  UNL1        0.0176
     17 C          -0.5729    0.9615   29.0084 C.3     1  UNL1        0.0686
     18 N           0.3608    0.1503   29.8570 N.3     1  UNL1       -0.2971
     19 C           1.7027   -0.2525   29.3213 C.3     1  UNL1        0.0777
     20 H          -0.1313   -0.7106   30.0959 H       1  UNL1        0.1233
     21 S           6.4104   -2.9727   22.3218 S.O2    1  UNL1        0.1006
     22 O           5.7904   -4.2880   22.6900 O.2     1  UNL1       -0.1463
     23 O           7.0304   -1.6574   21.9536 O.2     1  UNL1       -0.1463
     24 C           5.5772   -2.9290   21.0752 C.ar    1  UNL1        0.1291
     25 C           6.0059   -3.6957   19.8593 C.ar    1  UNL1        0.0204
     26 C           5.1728   -3.6520   18.6127 C.ar    1  UNL1        0.0014
     27 C           3.9110   -2.8415   18.5820 C.ar    1  UNL1        0.0001
     28 C           3.4823   -2.0747   19.7979 C.ar    1  UNL1        0.0013
     29 C           2.2205   -1.2642   19.7671 C.ar    1  UNL1        0.0000
     30 C           1.7919   -0.4975   20.9829 C.ar    1  UNL1        0.0000
     31 C           2.6250   -0.5412   22.2295 C.ar    1  UNL1        0.0000
     32 C           3.8868   -1.3517   22.2603 C.ar    1  UNL1        0.0013
     33 C           4.3154   -2.1184   21.0445 C.ar    1  UNL1        0.0191
@<TRIPOS>BOND
     1    10    11    2
     2    11    12   am
     3    12     1    1
     4     1     2   ar
     5     2     3   ar
     6     3     4   ar
     7     4     5   ar
     8     5     6   ar
     9     6     7   ar
    10     7    21    1
    11    21    22    2
    12    21    23    2
    13    21    24    1
    14    24    25   ar
    15    25    26   ar
    16    26    27   ar
    17    27    28   ar
    18    28    29   ar
    19    29    30   ar
    20    30    31   ar
    21    31    32   ar
    22    32    33   ar
    23     7     8   ar
    24     8     9   ar
    25    11    14    1
    26    14    15    1
    27    15    16    1
    28    16    17    1
    29    17    18    1
    30    18    19    1
    31     9     1   ar
    32    19    14    1
    33     8     4   ar
    34    33    24   ar
    35    33    28   ar
    36    12    13    1
    37    18    20    1
