@<TRIPOS>MOLECULE
*****
 33 36 0 0 0
SMALL
GASTEIGER

@<TRIPOS>ATOM
      1 C          -4.8324  -19.6591   21.1870 C.ar    1  UNL1        0.1399
      2 C          -3.5275  -19.7823   20.4575 C.ar    1  UNL1        0.0554
      3 C          -2.3438  -18.9719   20.8958 C.ar    1  UNL1        0.1047
      4 N          -2.4649  -18.0383   22.0636 N.ar    1  UNL1       -0.2119
      5 C          -3.7697  -17.9151   22.7931 C.ar    1  UNL1        0.2218
      6 N          -4.9535  -18.7255   22.3548 N.ar    1  UNL1       -0.1983
      7 N          -6.0161  -20.4694   20.7488 N.pl3   1  UNL1       -0.2705
      8 C          -5.8104  -21.7939   20.0754 C.3     1  UNL1        0.1187
      9 C         -12.6173  -17.8507   21.1951 C.3     1  UNL1        0.0540
     10 C         -11.5247  -18.5106   21.9830 C.ar    1  UNL1        0.0804
     11 N         -11.5807  -18.8698   23.4383 N.ar    1  UNL1       -0.1736
     12 N         -10.2749  -19.5083   23.8086 N.ar    1  UNL1       -0.2491
     13 C          -9.8982  -20.0214   25.1669 C.3     1  UNL1        0.1537
     14 C          -9.4119  -19.5438   22.5823 C.ar    1  UNL1        0.0803
     15 C          -8.0225  -20.0579   22.3472 C.ar    1  UNL1        0.0336
     16 C          -7.4056  -19.9553   20.9839 C.ar    1  UNL1        0.0542
     17 C          -8.1780  -19.3387   19.8556 C.ar    1  UNL1        0.0150
     18 C          -9.5674  -18.8246   20.0906 C.ar    1  UNL1        0.0040
     19 C         -10.1843  -18.9271   21.4540 C.ar    1  UNL1        0.0326
     20 N          -3.8908  -16.9815   23.9609 N.pl3   1  UNL1       -0.2825
     21 H          -3.0996  -16.7726   24.5082 H       1  UNL1        0.1551
     22 C          -5.2174  -16.3662   24.2947 C.ar    1  UNL1        0.0518
     23 C          -5.4754  -15.8442   25.6771 C.ar    1  UNL1        0.0148
     24 C          -6.8020  -15.2289   26.0110 C.ar    1  UNL1        0.0026
     25 C          -7.8706  -15.1355   24.9626 C.ar    1  UNL1        0.0200
     26 C          -7.6126  -15.6575   23.5801 C.ar    1  UNL1        0.1229
     27 C          -6.2860  -16.2728   23.2463 C.ar    1  UNL1        0.0346
     28 S          -8.6812  -15.5641   22.5316 S.O2    1  UNL1        0.0572
     29 N          -9.7498  -15.4707   21.4831 N.3     1  UNL1       -0.2035
     30 O          -7.6701  -15.0577   21.5462 O.2     1  UNL1       -0.1532
     31 O          -9.6924  -16.0706   23.5171 O.2     1  UNL1       -0.1532
     32 H          -9.3438  -15.1249   20.6137 H       1  UNL1        0.1442
     33 H         -10.4787  -14.8297   21.7966 H       1  UNL1        0.1442
@<TRIPOS>BOND
     1     9    10    1
     2    10    11   ar
     3    11    12   ar
     4    12    13    1
     5    12    14   ar
     6    14    15   ar
     7    15    16   ar
     8    16     7    1
     9     7     8    1
    10     7     1    1
    11     1     2   ar
    12     2     3   ar
    13     3     4   ar
    14     4     5   ar
    15     5    20    1
    16    20    22    1
    17    22    23   ar
    18    23    24   ar
    19    24    25   ar
    20    25    26   ar
    21    26    28    1
    22    28    29    1
    23    28    30    2
    24    28    31    2
    25    26    27   ar
    26     5     6   ar
    27    16    17   ar
    28    17    18   ar
    29    18    19   ar
    30    19    10   ar
    31    19    14   ar
    32     6     1   ar
    33    27    22   ar
    34    20    21    1
    35    29    32    1
    36    29    33    1
@<TRIPOS>MOLECULE
*****
 33 36 0 0 0
SMALL
GASTEIGER

@<TRIPOS>ATOM
      1 C          -8.2144  -16.2872   23.7552 C.ar    1  UNL1        0.1399
      2 C          -8.3258  -16.0309   25.2290 C.ar    1  UNL1        0.0554
      3 C          -7.1096  -15.6432   26.0168 C.ar    1  UNL1        0.1047
      4 N          -5.7821  -15.5119   25.3309 N.ar    1  UNL1       -0.2119
      5 C          -5.6707  -15.7682   23.8572 C.ar    1  UNL1        0.2218
      6 N          -6.8869  -16.1559   23.0693 N.ar    1  UNL1       -0.1983
      7 N          -9.4305  -16.6749   22.9674 N.pl3   1  UNL1       -0.2705
      8 C         -10.7691  -16.0983   23.3220 C.3     1  UNL1        0.1187
      9 C          -9.4749  -21.0322   17.3421 C.3     1  UNL1        0.0540
     10 C          -8.6633  -20.5989   18.5268 C.ar    1  UNL1        0.0804
     11 N          -7.3091  -21.1206   18.9063 N.ar    1  UNL1       -0.1736
     12 N          -6.8723  -20.4118   20.1540 N.ar    1  UNL1       -0.2491
     13 C          -5.5785  -20.6253   20.8823 C.3     1  UNL1        0.1537
     14 C          -7.9565  -19.4521   20.5457 C.ar    1  UNL1        0.0803
     15 C          -8.0789  -18.4878   21.6881 C.ar    1  UNL1        0.0336
     16 C          -9.3081  -17.6392   21.8249 C.ar    1  UNL1        0.0542
     17 C         -10.4150  -17.7548   20.8192 C.ar    1  UNL1        0.0150
     18 C         -10.2927  -18.7191   19.6767 C.ar    1  UNL1        0.0040
     19 C          -9.0634  -19.5677   19.5400 C.ar    1  UNL1        0.0326
     20 N          -4.3432  -15.6369   23.1713 N.pl3   1  UNL1       -0.2825
     21 H          -3.9128  -14.7546   23.0968 H       1  UNL1        0.1551
     22 C          -3.6715  -16.8498   22.5990 C.ar    1  UNL1        0.0518
     23 C          -3.6994  -18.1475   23.3508 C.ar    1  UNL1        0.0148
     24 C          -3.0277  -19.3605   22.7784 C.ar    1  UNL1        0.0026
     25 C          -2.3280  -19.2757   21.4543 C.ar    1  UNL1        0.0200
     26 C          -2.3001  -17.9779   20.7025 C.ar    1  UNL1        0.1229
     27 C          -2.9718  -16.7650   21.2749 C.ar    1  UNL1        0.0346
     28 S          -1.6004  -17.8932   19.3784 S.O2    1  UNL1        0.0572
     29 N          -0.9008  -17.8084   18.0543 N.3     1  UNL1       -0.2035
     30 O          -2.7233  -17.0578   18.8386 O.2     1  UNL1       -0.1532
     31 O          -0.4776  -18.7286   19.9182 O.2     1  UNL1       -0.1532
     32 H          -1.4620  -17.2536   17.4081 H       1  UNL1        0.1442
     33 H          -0.7747  -18.7471   17.6756 H       1  UNL1        0.1442
@<TRIPOS>BOND
     1     9    10    1
     2    10    11   ar
     3    11    12   ar
     4    12    13    1
     5    12    14   ar
     6    14    15   ar
     7    15    16   ar
     8    16     7    1
     9     7     8    1
    10     7     1    1
    11     1     2   ar
    12     2     3   ar
    13     3     4   ar
    14     4     5   ar
    15     5    20    1
    16    20    22    1
    17    22    23   ar
    18    23    24   ar
    19    24    25   ar
    20    25    26   ar
    21    26    28    1
    22    28    29    1
    23    28    30    2
    24    28    31    2
    25    26    27   ar
    26     5     6   ar
    27    16    17   ar
    28    17    18   ar
    29    18    19   ar
    30    19    10   ar
    31    19    14   ar
    32     6     1   ar
    33    27    22   ar
    34    20    21    1
    35    29    32    1
    36    29    33    1
@<TRIPOS>MOLECULE
*****
 33 36 0 0 0
SMALL
GASTEIGER

@<TRIPOS>ATOM
      1 C          -7.5106  -16.4314   25.2027 C.ar    1  UNL1        0.1399
      2 C          -7.3506  -15.6348   26.4636 C.ar    1  UNL1        0.0554
      3 C          -6.1315  -14.7841   26.6636 C.ar    1  UNL1        0.1047
      4 N          -5.0724  -14.7299   25.6028 N.ar    1  UNL1       -0.2119
      5 C          -5.2324  -15.5265   24.3419 C.ar    1  UNL1        0.2218
      6 N          -6.4515  -16.3773   24.1419 N.ar    1  UNL1       -0.1983
      7 N          -8.7297  -17.2821   25.0027 N.pl3   1  UNL1       -0.2705
      8 C          -9.6217  -17.5998   26.1661 C.3     1  UNL1        0.1187
      9 C          -9.7729  -20.2714   18.6303 C.3     1  UNL1        0.0540
     10 C         -10.2570  -19.1898   19.5499 C.ar    1  UNL1        0.0804
     11 N         -11.3721  -18.2268   19.2684 N.ar    1  UNL1       -0.1736
     12 N         -11.5153  -17.3232   20.4570 N.ar    1  UNL1       -0.2491
     13 C         -12.5103  -16.2103   20.6038 C.3     1  UNL1        0.1537
     14 C         -10.4887  -17.7277   21.4732 C.ar    1  UNL1        0.0803
     15 C         -10.1616  -17.1946   22.8366 C.ar    1  UNL1        0.0336
     16 C          -9.0569  -17.8152   23.6393 C.ar    1  UNL1        0.0542
     17 C          -8.2793  -18.9689   23.0786 C.ar    1  UNL1        0.0150
     18 C          -8.6064  -19.5020   21.7153 C.ar    1  UNL1        0.0040
     19 C          -9.7111  -18.8814   20.9126 C.ar    1  UNL1        0.0326
     20 N          -4.1733  -15.4724   23.2811 N.pl3   1  UNL1       -0.2825
     21 H          -3.8110  -14.6041   22.9910 H       1  UNL1        0.1551
     22 C          -3.6662  -16.7411   22.6621 C.ar    1  UNL1        0.0518
     23 C          -4.0790  -18.0681   23.2265 C.ar    1  UNL1        0.0148
     24 C          -3.5719  -19.3369   22.6075 C.ar    1  UNL1        0.0026
     25 C          -2.6520  -19.2786   21.4241 C.ar    1  UNL1        0.0200
     26 C          -2.2393  -17.9515   20.8597 C.ar    1  UNL1        0.1229
     27 C          -2.7463  -16.6828   21.4787 C.ar    1  UNL1        0.0346
     28 S          -1.3194  -17.8932   19.6763 S.O2    1  UNL1        0.0572
     29 N          -0.3995  -17.8349   18.4929 N.3     1  UNL1       -0.2035
     30 O          -2.4376  -17.3553   18.8336 O.2     1  UNL1       -0.1532
     31 O          -0.2011  -18.4311   20.5191 O.2     1  UNL1       -0.1532
     32 H          -0.9079  -17.4768   17.6844 H       1  UNL1        0.1442
     33 H          -0.0500  -18.7709   18.2876 H       1  UNL1        0.1442
@<TRIPOS>BOND
     1     9    10    1
     2    10    11   ar
     3    11    12   ar
     4    12    13    1
     5    12    14   ar
     6    14    15   ar
     7    15    16   ar
     8    16     7    1
     9     7     8    1
    10     7     1    1
    11     1     2   ar
    12     2     3   ar
    13     3     4   ar
    14     4     5   ar
    15     5    20    1
    16    20    22    1
    17    22    23   ar
    18    23    24   ar
    19    24    25   ar
    20    25    26   ar
    21    26    28    1
    22    28    29    1
    23    28    30    2
    24    28    31    2
    25    26    27   ar
    26     5     6   ar
    27    16    17   ar
    28    17    18   ar
    29    18    19   ar
    30    19    10   ar
    31    19    14   ar
    32     6     1   ar
    33    27    22   ar
    34    20    21    1
    35    29    32    1
    36    29    33    1
@<TRIPOS>MOLECULE
*****
 33 36 0 0 0
SMALL
GASTEIGER

@<TRIPOS>ATOM
      1 C          -7.6795  -16.3942   25.2440 C.ar    1  UNL1        0.1399
      2 C          -7.4477  -15.7145   26.5609 C.ar    1  UNL1        0.0554
      3 C          -6.1740  -14.9596   26.8014 C.ar    1  UNL1        0.1047
      4 N          -5.1321  -14.8844   25.7249 N.ar    1  UNL1       -0.2119
      5 C          -5.3638  -15.5640   24.4080 C.ar    1  UNL1        0.2218
      6 N          -6.6376  -16.3190   24.1675 N.ar    1  UNL1       -0.1983
      7 N          -8.9531  -17.1492   25.0035 N.pl3   1  UNL1       -0.2705
      8 C          -9.4778  -18.0874   26.0497 C.3     1  UNL1        0.1187
      9 C         -12.7918  -15.7169   19.1858 C.3     1  UNL1        0.0540
     10 C         -11.7966  -16.6755   19.7694 C.ar    1  UNL1        0.0804
     11 N         -11.2231  -17.8787   19.0813 N.ar    1  UNL1       -0.1736
     12 N         -10.2722  -18.5460   20.0303 N.ar    1  UNL1       -0.2491
     13 C          -9.4754  -19.7863   19.7533 C.3     1  UNL1        0.1537
     14 C         -10.2581  -17.7553   21.3049 C.ar    1  UNL1        0.0803
     15 C          -9.5091  -17.9386   22.5915 C.ar    1  UNL1        0.0336
     16 C          -9.7022  -16.9659   23.7168 C.ar    1  UNL1        0.0542
     17 C         -10.6443  -15.8098   23.5556 C.ar    1  UNL1        0.0150
     18 C         -11.3933  -15.6265   22.2690 C.ar    1  UNL1        0.0040
     19 C         -11.2002  -16.5992   21.1437 C.ar    1  UNL1        0.0326
     20 N          -4.3219  -15.4888   23.3316 N.pl3   1  UNL1       -0.2825
     21 H          -3.9947  -14.6128   23.0236 H       1  UNL1        0.1551
     22 C          -3.7786  -16.7482   22.7244 C.ar    1  UNL1        0.0518
     23 C          -4.1616  -18.0816   23.2946 C.ar    1  UNL1        0.0148
     24 C          -3.6183  -19.3410   22.6874 C.ar    1  UNL1        0.0026
     25 C          -2.6918  -19.2670   21.5100 C.ar    1  UNL1        0.0200
     26 C          -2.3088  -17.9334   20.9398 C.ar    1  UNL1        0.1229
     27 C          -2.8521  -16.6741   21.5470 C.ar    1  UNL1        0.0346
     28 S          -1.3824  -17.8594   19.7624 S.O2    1  UNL1        0.0572
     29 N          -0.4559  -17.7853   18.5850 N.3     1  UNL1       -0.2035
     30 O          -2.1894  -18.9115   19.0612 O.2     1  UNL1       -0.1532
     31 O          -0.5753  -16.8072   20.4636 O.2     1  UNL1       -0.1532
     32 H          -0.7633  -18.4431   17.8686 H       1  UNL1        0.1442
     33 H           0.4905  -18.0234   18.8816 H       1  UNL1        0.1442
@<TRIPOS>BOND
     1     9    10    1
     2    10    11   ar
     3    11    12   ar
     4    12    13    1
     5    12    14   ar
     6    14    15   ar
     7    15    16   ar
     8    16     7    1
     9     7     8    1
    10     7     1    1
    11     1     2   ar
    12     2     3   ar
    13     3     4   ar
    14     4     5   ar
    15     5    20    1
    16    20    22    1
    17    22    23   ar
    18    23    24   ar
    19    24    25   ar
    20    25    26   ar
    21    26    28    1
    22    28    29    1
    23    28    30    2
    24    28    31    2
    25    26    27   ar
    26     5     6   ar
    27    16    17   ar
    28    17    18   ar
    29    18    19   ar
    30    19    10   ar
    31    19    14   ar
    32     6     1   ar
    33    27    22   ar
    34    20    21    1
    35    29    32    1
    36    29    33    1
@<TRIPOS>MOLECULE
*****
 33 36 0 0 0
SMALL
GASTEIGER

@<TRIPOS>ATOM
      1 C           6.2973   -3.5847   20.0374 C.ar    1  UNL1        0.1399
      2 C           7.0824   -2.4492   19.4505 C.ar    1  UNL1        0.0554
      3 C           8.5760   -2.4209   19.5863 C.ar    1  UNL1        0.1047
      4 N           9.2845   -3.5281   20.3089 N.ar    1  UNL1       -0.2119
      5 C           8.4995   -4.6636   20.8958 C.ar    1  UNL1        0.2218
      6 N           7.0059   -4.6919   20.7600 N.ar    1  UNL1       -0.1983
      7 N           4.8038   -3.6130   19.9016 N.pl3   1  UNL1       -0.2705
      8 C           4.1404   -4.7253   19.1448 C.3     1  UNL1        0.1187
      9 C           0.6060    1.6457   22.2159 C.3     1  UNL1        0.0540
     10 C           1.6263    0.6357   22.6505 C.ar    1  UNL1        0.0804
     11 N           2.1388    0.4450   24.0473 N.ar    1  UNL1       -0.1736
     12 N           3.1424   -0.6695   24.0246 N.ar    1  UNL1       -0.2491
     13 C           3.9045   -1.1939   25.2054 C.3     1  UNL1        0.1537
     14 C           3.2501   -1.1678   22.6139 C.ar    1  UNL1        0.0803
     15 C           4.0803   -2.2517   21.9929 C.ar    1  UNL1        0.0336
     16 C           3.9735   -2.5290   20.5227 C.ar    1  UNL1        0.0542
     17 C           3.0365   -1.7223   19.6734 C.ar    1  UNL1        0.0150
     18 C           2.2063   -0.6384   20.2944 C.ar    1  UNL1        0.0040
     19 C           2.3131   -0.3611   21.7646 C.ar    1  UNL1        0.0326
     20 N           9.2080   -5.7707   21.6184 N.pl3   1  UNL1       -0.2825
     21 H           9.9407   -6.2574   21.1762 H       1  UNL1        0.1551
     22 C           8.8002   -6.1364   23.0148 C.ar    1  UNL1        0.0518
     23 C           9.1655   -7.4789   23.5755 C.ar    1  UNL1        0.0148
     24 C           8.7576   -7.8446   24.9719 C.ar    1  UNL1        0.0026
     25 C           7.9846   -6.8679   25.8076 C.ar    1  UNL1        0.0200
     26 C           7.6193   -5.5254   25.2468 C.ar    1  UNL1        0.1229
     27 C           8.0271   -5.1597   23.8505 C.ar    1  UNL1        0.0346
     28 S           6.8463   -4.5487   26.0825 S.O2    1  UNL1        0.0572
     29 N           6.0732   -3.5719   26.9182 N.3     1  UNL1       -0.2035
     30 O           6.3041   -3.9123   24.8371 O.2     1  UNL1       -0.1532
     31 O           7.3885   -5.1851   27.3279 O.2     1  UNL1       -0.1532
     32 H           5.5504   -2.9425   26.3092 H       1  UNL1        0.1442
     33 H           6.7189   -3.0305   27.4929 H       1  UNL1        0.1442
@<TRIPOS>BOND
     1     9    10    1
     2    10    11   ar
     3    11    12   ar
     4    12    13    1
     5    12    14   ar
     6    14    15   ar
     7    15    16   ar
     8    16     7    1
     9     7     8    1
    10     7     1    1
    11     1     2   ar
    12     2     3   ar
    13     3     4   ar
    14     4     5   ar
    15     5    20    1
    16    20    22    1
    17    22    23   ar
    18    23    24   ar
    19    24    25   ar
    20    25    26   ar
    21    26    28    1
    22    28    29    1
    23    28    30    2
    24    28    31    2
    25    26    27   ar
    26     5     6   ar
    27    16    17   ar
    28    17    18   ar
    29    18    19   ar
    30    19    10   ar
    31    19    14   ar
    32     6     1   ar
    33    27    22   ar
    34    20    21    1
    35    29    32    1
    36    29    33    1
@<TRIPOS>MOLECULE
*****
 33 36 0 0 0
SMALL
GASTEIGER

@<TRIPOS>ATOM
      1 C          -6.5978  -15.7382   23.6927 C.ar    1  UNL1        0.1399
      2 C          -6.5531  -15.0775   25.0387 C.ar    1  UNL1        0.0554
      3 C          -5.4773  -15.4428   26.0181 C.ar    1  UNL1        0.1047
      4 N          -4.4462  -16.4687   25.6516 N.ar    1  UNL1       -0.2119
      5 C          -4.4910  -17.1295   24.3057 C.ar    1  UNL1        0.2218
      6 N          -5.5668  -16.7642   23.3263 N.ar    1  UNL1       -0.1983
      7 N          -7.6736  -15.3730   22.7134 N.pl3   1  UNL1       -0.2705
      8 C          -7.3844  -14.3984   21.6104 C.3     1  UNL1        0.1187
      9 C         -13.9748  -18.4402   23.9461 C.3     1  UNL1        0.0540
     10 C         -13.1688  -17.7114   22.9120 C.ar    1  UNL1        0.0804
     11 N         -13.6214  -17.3649   21.5245 N.ar    1  UNL1       -0.1736
     12 N         -12.5010  -16.6405   20.8390 N.ar    1  UNL1       -0.2491
     13 C         -12.5219  -16.1104   19.4359 C.3     1  UNL1        0.1537
     14 C         -11.3561  -16.5392   21.8027 C.ar    1  UNL1        0.0803
     15 C          -9.9910  -15.9299   21.6792 C.ar    1  UNL1        0.0336
     16 C          -9.0388  -15.9824   22.8369 C.ar    1  UNL1        0.0542
     17 C          -9.4515  -16.6442   24.1181 C.ar    1  UNL1        0.0150
     18 C         -10.8165  -17.2535   24.2417 C.ar    1  UNL1        0.0040
     19 C         -11.7688  -17.2011   23.0840 C.ar    1  UNL1        0.0326
     20 N          -3.4599  -18.1555   23.9393 N.pl3   1  UNL1       -0.2825
     21 H          -2.8152  -18.4683   24.6143 H       1  UNL1        0.1551
     22 C          -3.4112  -18.7047   22.5443 C.ar    1  UNL1        0.0518
     23 C          -4.3688  -19.7818   22.1286 C.ar    1  UNL1        0.0148
     24 C          -4.3201  -20.3311   20.7336 C.ar    1  UNL1        0.0026
     25 C          -3.3138  -19.8033   19.7544 C.ar    1  UNL1        0.0200
     26 C          -2.3562  -18.7262   20.1702 C.ar    1  UNL1        0.1229
     27 C          -2.4049  -18.1769   21.5652 C.ar    1  UNL1        0.0346
     28 S          -1.3499  -18.1984   19.1911 S.O2    1  UNL1        0.0572
     29 N          -0.3436  -17.6706   18.2119 N.3     1  UNL1       -0.2035
     30 O          -0.2702  -18.9797   19.8794 O.2     1  UNL1       -0.1532
     31 O          -2.4295  -17.4170   18.5027 O.2     1  UNL1       -0.1532
     32 H           0.5767  -18.0519   18.4313 H       1  UNL1        0.1442
     33 H          -0.3129  -16.6527   18.2712 H       1  UNL1        0.1442
@<TRIPOS>BOND
     1     9    10    1
     2    10    11   ar
     3    11    12   ar
     4    12    13    1
     5    12    14   ar
     6    14    15   ar
     7    15    16   ar
     8    16     7    1
     9     7     8    1
    10     7     1    1
    11     1     2   ar
    12     2     3   ar
    13     3     4   ar
    14     4     5   ar
    15     5    20    1
    16    20    22    1
    17    22    23   ar
    18    23    24   ar
    19    24    25   ar
    20    25    26   ar
    21    26    28    1
    22    28    29    1
    23    28    30    2
    24    28    31    2
    25    26    27   ar
    26     5     6   ar
    27    16    17   ar
    28    17    18   ar
    29    18    19   ar
    30    19    10   ar
    31    19    14   ar
    32     6     1   ar
    33    27    22   ar
    34    20    21    1
    35    29    32    1
    36    29    33    1
@<TRIPOS>MOLECULE
*****
 33 36 0 0 0
SMALL
GASTEIGER

@<TRIPOS>ATOM
      1 C           6.3573   -3.4997   20.1299 C.ar    1  UNL1        0.1399
      2 C           7.1933   -2.3185   19.7348 C.ar    1  UNL1        0.0554
      3 C           8.6775   -2.3446   19.9497 C.ar    1  UNL1        0.1047
      4 N           9.3259   -3.5519   20.5596 N.ar    1  UNL1       -0.2119
      5 C           8.4901   -4.7330   20.9547 C.ar    1  UNL1        0.2218
      6 N           7.0057   -4.7069   20.7398 N.ar    1  UNL1       -0.1983
      7 N           4.8730   -3.4736   19.9149 N.pl3   1  UNL1       -0.2705
      8 C           4.2232   -4.5067   19.0430 C.3     1  UNL1        0.1187
      9 C           1.1686    1.3283   23.6366 C.3     1  UNL1        0.0540
     10 C           1.4476    0.8300   22.2496 C.ar    1  UNL1        0.0804
     11 N           0.8534    1.3700   20.9826 N.ar    1  UNL1       -0.1736
     12 N           1.4084    0.5778   19.8361 N.ar    1  UNL1       -0.2491
     13 C           1.0833    0.7798   18.3857 C.3     1  UNL1        0.1537
     14 C           2.3456   -0.4517   20.3945 C.ar    1  UNL1        0.0803
     15 C           3.1800   -1.5109   19.7374 C.ar    1  UNL1        0.0336
     16 C           4.0386   -2.4143   20.5720 C.ar    1  UNL1        0.0542
     17 C           4.0628   -2.2584   22.0637 C.ar    1  UNL1        0.0150
     18 C           3.2284   -1.1992   22.7208 C.ar    1  UNL1        0.0040
     19 C           2.3698   -0.2959   21.8862 C.ar    1  UNL1        0.0326
     20 N           9.1384   -5.9403   21.5647 N.pl3   1  UNL1       -0.2825
     21 H           9.7449   -6.4983   21.0261 H       1  UNL1        0.1551
     22 C           8.8628   -6.2974   22.9952 C.ar    1  UNL1        0.0518
     23 C           9.4316   -7.5577   23.5766 C.ar    1  UNL1        0.0148
     24 C           9.1560   -7.9149   25.0072 C.ar    1  UNL1        0.0026
     25 C           8.3116   -7.0117   25.8564 C.ar    1  UNL1        0.0200
     26 C           7.7428   -5.7513   25.2749 C.ar    1  UNL1        0.1229
     27 C           8.0184   -5.3942   23.8444 C.ar    1  UNL1        0.0346
     28 S           6.8983   -4.8481   26.1241 S.O2    1  UNL1        0.0572
     29 N           6.0539   -3.9449   26.9733 N.3     1  UNL1       -0.2035
     30 O           7.3564   -3.6660   25.3224 O.2     1  UNL1       -0.1532
     31 O           6.4402   -6.0302   26.9259 O.2     1  UNL1       -0.1532
     32 H           6.1562   -2.9823   26.6518 H       1  UNL1        0.1442
     33 H           6.3552   -4.0125   27.9455 H       1  UNL1        0.1442
@<TRIPOS>BOND
     1     9    10    1
     2    10    11   ar
     3    11    12   ar
     4    12    13    1
     5    12    14   ar
     6    14    15   ar
     7    15    16   ar
     8    16     7    1
     9     7     8    1
    10     7     1    1
    11     1     2   ar
    12     2     3   ar
    13     3     4   ar
    14     4     5   ar
    15     5    20    1
    16    20    22    1
    17    22    23   ar
    18    23    24   ar
    19    24    25   ar
    20    25    26   ar
    21    26    28    1
    22    28    29    1
    23    28    30    2
    24    28    31    2
    25    26    27   ar
    26     5     6   ar
    27    16    17   ar
    28    17    18   ar
    29    18    19   ar
    30    19    10   ar
    31    19    14   ar
    32     6     1   ar
    33    27    22   ar
    34    20    21    1
    35    29    32    1
    36    29    33    1
@<TRIPOS>MOLECULE
*****
 33 36 0 0 0
SMALL
GASTEIGER

@<TRIPOS>ATOM
      1 C          -1.2823    3.6598   19.8274 C.ar    1  UNL1        0.1399
      2 C          -1.7675    4.3405   18.5818 C.ar    1  UNL1        0.0554
      3 C          -3.2363    4.4009   18.2838 C.ar    1  UNL1        0.1047
      4 N          -4.2200    3.7807   19.2312 N.ar    1  UNL1       -0.2119
      5 C          -3.7348    3.1000   20.4767 C.ar    1  UNL1        0.2218
      6 N          -2.2659    3.0395   20.7748 N.ar    1  UNL1       -0.1983
      7 N           0.1866    3.5993   20.1254 N.pl3   1  UNL1       -0.2705
      8 C           0.9399    4.8570   20.4426 C.3     1  UNL1        0.1187
      9 C           3.4854   -2.6573   19.3481 C.3     1  UNL1        0.0540
     10 C           3.0690   -1.6296   20.3583 C.ar    1  UNL1        0.0804
     11 N           3.3154   -1.6959   21.8364 N.ar    1  UNL1       -0.1736
     12 N           2.7319   -0.4625   22.4593 N.ar    1  UNL1       -0.2491
     13 C           2.7518   -0.1180   23.9191 C.3     1  UNL1        0.1537
     14 C           2.1249    0.3662   21.3662 C.ar    1  UNL1        0.0803
     15 C           1.4093    1.6843   21.3854 C.ar    1  UNL1        0.0336
     16 C           0.9022    2.2811   20.1062 C.ar    1  UNL1        0.0542
     17 C           1.1105    1.5597   18.8076 C.ar    1  UNL1        0.0150
     18 C           1.8261    0.2416   18.7884 C.ar    1  UNL1        0.0040
     19 C           2.3332   -0.3552   20.0676 C.ar    1  UNL1        0.0326
     20 N          -4.7185    2.4797   21.4242 N.pl3   1  UNL1       -0.2825
     21 H          -5.1004    1.5940   21.2271 H       1  UNL1        0.1551
     22 C          -5.1204    3.2090   22.6718 C.ar    1  UNL1        0.0518
     23 C          -4.2478    3.1477   23.8903 C.ar    1  UNL1        0.0148
     24 C          -4.6496    3.8770   25.1380 C.ar    1  UNL1        0.0026
     25 C          -5.9240    4.6676   25.1671 C.ar    1  UNL1        0.0200
     26 C          -6.7966    4.7289   23.9485 C.ar    1  UNL1        0.1229
     27 C          -6.3947    3.9996   22.7009 C.ar    1  UNL1        0.0346
     28 S          -8.0710    5.5196   23.9776 S.O2    1  UNL1        0.0572
     29 N          -9.3454    6.3102   24.0067 N.3     1  UNL1       -0.2035
     30 O          -7.2833    6.7824   24.1640 O.2     1  UNL1       -0.1532
     31 O          -8.8587    4.2567   23.7912 O.2     1  UNL1       -0.1532
     32 H          -9.1292    7.2990   24.1328 H       1  UNL1        0.1442
     33 H          -9.9277    5.9882   24.7798 H       1  UNL1        0.1442
@<TRIPOS>BOND
     1     9    10    1
     2    10    11   ar
     3    11    12   ar
     4    12    13    1
     5    12    14   ar
     6    14    15   ar
     7    15    16   ar
     8    16     7    1
     9     7     8    1
    10     7     1    1
    11     1     2   ar
    12     2     3   ar
    13     3     4   ar
    14     4     5   ar
    15     5    20    1
    16    20    22    1
    17    22    23   ar
    18    23    24   ar
    19    24    25   ar
    20    25    26   ar
    21    26    28    1
    22    28    29    1
    23    28    30    2
    24    28    31    2
    25    26    27   ar
    26     5     6   ar
    27    16    17   ar
    28    17    18   ar
    29    18    19   ar
    30    19    10   ar
    31    19    14   ar
    32     6     1   ar
    33    27    22   ar
    34    20    21    1
    35    29    32    1
    36    29    33    1
@<TRIPOS>MOLECULE
*****
 33 36 0 0 0
SMALL
GASTEIGER

@<TRIPOS>ATOM
      1 C          -7.7078  -16.4425   25.2406 C.ar    1  UNL1        0.1399
      2 C          -7.4266  -15.7320   26.5315 C.ar    1  UNL1        0.0554
      3 C          -6.1205  -15.0210   26.7272 C.ar    1  UNL1        0.1047
      4 N          -5.0954  -15.0204   25.6321 N.ar    1  UNL1       -0.2119
      5 C          -5.3765  -15.7308   24.3413 C.ar    1  UNL1        0.2218
      6 N          -6.6827  -16.4419   24.1455 N.ar    1  UNL1       -0.1983
      7 N          -9.0139  -17.1535   25.0449 N.pl3   1  UNL1       -0.2705
      8 C          -9.5526  -18.0437   26.1253 C.3     1  UNL1        0.1187
      9 C         -12.9720  -15.7686   19.2961 C.3     1  UNL1        0.0540
     10 C         -11.9169  -16.6837   19.8432 C.ar    1  UNL1        0.0804
     11 N         -11.2767  -17.8272   19.1133 N.ar    1  UNL1       -0.1736
     12 N         -10.2809  -18.4661   20.0353 N.ar    1  UNL1       -0.2491
     13 C          -9.4128  -19.6465   19.7140 C.3     1  UNL1        0.1537
     14 C         -10.3056  -17.7176   21.3350 C.ar    1  UNL1        0.0803
     15 C          -9.5380  -17.8968   22.6111 C.ar    1  UNL1        0.0336
     16 C          -9.7815  -16.9743   23.7686 C.ar    1  UNL1        0.0542
     17 C         -10.7926  -15.8727   23.6499 C.ar    1  UNL1        0.0150
     18 C         -11.5602  -15.6935   22.3737 C.ar    1  UNL1        0.0040
     19 C         -11.3167  -16.6160   21.2162 C.ar    1  UNL1        0.0326
     20 N          -4.3514  -15.7302   23.2463 N.pl3   1  UNL1       -0.2825
     21 H          -4.0173  -14.8774   22.8852 H       1  UNL1        0.1551
     22 C          -3.8354  -17.0289   22.7012 C.ar    1  UNL1        0.0518
     23 C          -2.3719  -17.3476   22.7823 C.ar    1  UNL1        0.0148
     24 C          -1.8558  -18.6464   22.2373 C.ar    1  UNL1        0.0026
     25 C          -2.8033  -19.6263   21.6112 C.ar    1  UNL1        0.0200
     26 C          -4.2668  -19.3075   21.5301 C.ar    1  UNL1        0.1229
     27 C          -4.7828  -18.0088   22.0751 C.ar    1  UNL1        0.0346
     28 S          -5.2143  -20.2875   20.9040 S.O2    1  UNL1        0.0572
     29 N          -6.1617  -21.2674   20.2779 N.3     1  UNL1       -0.2035
     30 O          -6.3108  -19.8037   21.8060 O.2     1  UNL1       -0.1532
     31 O          -4.1178  -20.7713   20.0019 O.2     1  UNL1       -0.1532
     32 H          -7.0795  -21.1794   20.7142 H       1  UNL1        0.1442
     33 H          -5.8100  -22.2151   20.4142 H       1  UNL1        0.1442
@<TRIPOS>BOND
     1     9    10    1
     2    10    11   ar
     3    11    12   ar
     4    12    13    1
     5    12    14   ar
     6    14    15   ar
     7    15    16   ar
     8    16     7    1
     9     7     8    1
    10     7     1    1
    11     1     2   ar
    12     2     3   ar
    13     3     4   ar
    14     4     5   ar
    15     5    20    1
    16    20    22    1
    17    22    23   ar
    18    23    24   ar
    19    24    25   ar
    20    25    26   ar
    21    26    28    1
    22    28    29    1
    23    28    30    2
    24    28    31    2
    25    26    27   ar
    26     5     6   ar
    27    16    17   ar
    28    17    18   ar
    29    18    19   ar
    30    19    10   ar
    31    19    14   ar
    32     6     1   ar
    33    27    22   ar
    34    20    21    1
    35    29    32    1
    36    29    33    1
