@<TRIPOS>MOLECULE
*****
 18 20 0 0 0
SMALL
GASTEIGER

@<TRIPOS>ATOM
      1 C         -11.1137  -15.5424   19.2248 C.3     1  UNL1        0.0896
      2 N         -11.3613  -16.3017   20.4945 N.3     1  UNL1       -0.2712
      3 C         -12.6852  -16.4645   21.1806 C.3     1  UNL1        0.0725
      4 C         -12.4707  -17.2949   22.4111 C.3     1  UNL1        0.0210
      5 C         -13.4134  -17.7772   23.4735 C.3     1  UNL1        0.0017
      6 C         -12.8996  -18.6100   24.6103 C.3     1  UNL1        0.0001
      7 C         -11.4430  -18.9605   24.6847 C.3     1  UNL1        0.0004
      8 C         -10.5003  -18.4782   23.6224 C.3     1  UNL1        0.0054
      9 C         -11.0141  -17.6454   22.4856 C.3     1  UNL1        0.0349
     10 C         -10.3285  -17.0316   21.3011 C.3     1  UNL1        0.0762
     11 C          -9.5396  -17.9146   22.4270 C.ar    1  UNL1       -0.0206
     12 C          -9.0281  -19.1405   21.7301 C.ar    1  UNL1       -0.0033
     13 C          -7.5537  -19.4097   21.6714 C.ar    1  UNL1        0.0119
     14 C          -6.5907  -18.4530   22.3097 C.ar    1  UNL1        0.0682
     15 CL         -5.1162  -18.7222   22.2510 Cl      1  UNL1       -0.0814
     16 C          -7.1021  -17.2272   23.0065 C.ar    1  UNL1        0.0679
     17 CL         -6.1390  -16.2704   23.6448 Cl      1  UNL1       -0.0814
     18 C          -8.5766  -16.9580   23.0652 C.ar    1  UNL1        0.0080
@<TRIPOS>BOND
     1     1     2    1
     2     2     3    1
     3     4     3    1
     4     4     5    1
     5     5     6    1
     6     6     7    1
     7     7     8    1
     8     8     9    1
     9     9    11    1
    10    11    12   ar
    11    12    13   ar
    12    13    14   ar
    13    14    15    1
    14    14    16   ar
    15    16    17    1
    16    16    18   ar
    17     9    10    1
    18    10     2    1
    19     9     4    1
    20    18    11   ar
@<TRIPOS>MOLECULE
*****
 18 20 0 0 0
SMALL
GASTEIGER

@<TRIPOS>ATOM
      1 C          -6.8859  -19.7317   20.9146 C.3     1  UNL1        0.0896
      2 N          -8.1396  -18.9424   21.1491 N.3     1  UNL1       -0.2712
      3 C          -9.4025  -19.0339   20.3449 C.3     1  UNL1        0.0725
      4 C         -10.3941  -18.0710   20.9278 C.3     1  UNL1        0.0210
      5 C         -11.8049  -17.7308   20.5487 C.3     1  UNL1        0.0017
      6 C         -12.5656  -16.7039   21.3340 C.3     1  UNL1        0.0001
      7 C         -11.9155  -16.0174   22.4985 C.3     1  UNL1        0.0004
      8 C         -10.5047  -16.3577   22.8777 C.3     1  UNL1        0.0054
      9 C          -9.7440  -17.3845   22.0923 C.3     1  UNL1        0.0349
     10 C          -8.3507  -17.9230   22.2291 C.3     1  UNL1        0.0762
     11 C          -8.9664  -16.7842   23.2259 C.ar    1  UNL1       -0.0206
     12 C          -7.9106  -15.7553   22.9493 C.ar    1  UNL1       -0.0033
     13 C          -7.1331  -15.1551   24.0829 C.ar    1  UNL1        0.0119
     14 C          -7.4113  -15.5837   25.4931 C.ar    1  UNL1        0.0682
     15 CL         -6.6338  -14.9834   26.6267 Cl      1  UNL1       -0.0814
     16 C          -8.4671  -16.6126   25.7698 C.ar    1  UNL1        0.0679
     17 CL         -8.7454  -17.0412   27.1801 Cl      1  UNL1       -0.0814
     18 C          -9.2447  -17.2128   24.6362 C.ar    1  UNL1        0.0080
@<TRIPOS>BOND
     1     1     2    1
     2     2     3    1
     3     4     3    1
     4     4     5    1
     5     5     6    1
     6     6     7    1
     7     7     8    1
     8     8     9    1
     9     9    11    1
    10    11    12   ar
    11    12    13   ar
    12    13    14   ar
    13    14    15    1
    14    14    16   ar
    15    16    17    1
    16    16    18   ar
    17     9    10    1
    18    10     2    1
    19     9     4    1
    20    18    11   ar
@<TRIPOS>MOLECULE
*****
 18 20 0 0 0
SMALL
GASTEIGER

@<TRIPOS>ATOM
      1 C          -5.0966  -15.9350   24.2973 C.3     1  UNL1        0.0896
      2 N          -5.1343  -17.0867   23.3371 N.3     1  UNL1       -0.2712
      3 C          -3.9462  -17.7343   22.6898 C.3     1  UNL1        0.0725
      4 C          -4.4444  -18.8409   21.8082 C.3     1  UNL1        0.0210
      5 C          -3.7290  -19.8201   20.9254 C.3     1  UNL1        0.0017
      6 C          -4.5097  -20.8357   20.1450 C.3     1  UNL1        0.0001
      7 C          -6.0057  -20.8721   20.2474 C.3     1  UNL1        0.0004
      8 C          -6.7211  -19.8929   21.1302 C.3     1  UNL1        0.0054
      9 C          -5.9404  -18.8773   21.9106 C.3     1  UNL1        0.0349
     10 C          -6.3668  -17.7931   22.8555 C.3     1  UNL1        0.0762
     11 C          -7.4243  -18.7930   22.1128 C.ar    1  UNL1       -0.0206
     12 C          -8.1501  -19.9034   22.8131 C.ar    1  UNL1       -0.0033
     13 C          -9.6339  -19.8192   23.0153 C.ar    1  UNL1        0.0119
     14 C         -10.3921  -18.6246   22.5172 C.ar    1  UNL1        0.0682
     15 CL        -11.8761  -18.5404   22.7194 Cl      1  UNL1       -0.0814
     16 C          -9.6665  -17.5143   21.8170 C.ar    1  UNL1        0.0679
     17 CL        -10.4247  -16.3196   21.3189 Cl      1  UNL1       -0.0814
     18 C          -8.1825  -17.5985   21.6147 C.ar    1  UNL1        0.0080
@<TRIPOS>BOND
     1     1     2    1
     2     2     3    1
     3     4     3    1
     4     4     5    1
     5     5     6    1
     6     6     7    1
     7     7     8    1
     8     8     9    1
     9     9    11    1
    10    11    12   ar
    11    12    13   ar
    12    13    14   ar
    13    14    15    1
    14    14    16   ar
    15    16    17    1
    16    16    18   ar
    17     9    10    1
    18    10     2    1
    19     9     4    1
    20    18    11   ar
@<TRIPOS>MOLECULE
*****
 18 20 0 0 0
SMALL
GASTEIGER

@<TRIPOS>ATOM
      1 C          -8.8501  -14.7582   20.8839 C.3     1  UNL1        0.0896
      2 N          -9.1852  -16.0000   21.6558 N.3     1  UNL1       -0.2712
      3 C         -10.4859  -16.2847   22.3465 C.3     1  UNL1        0.0725
      4 C         -10.3830  -17.6357   22.9901 C.3     1  UNL1        0.0210
      5 C         -11.3554  -18.4359   23.8050 C.3     1  UNL1        0.0017
      6 C         -10.9634  -19.7864   24.3270 C.3     1  UNL1        0.0001
      7 C          -9.5991  -20.3367   24.0340 C.3     1  UNL1        0.0004
      8 C          -8.6268  -19.5365   23.2190 C.3     1  UNL1        0.0054
      9 C          -9.0187  -18.1860   22.6971 C.3     1  UNL1        0.0349
     10 C          -8.2785  -17.1751   21.8725 C.3     1  UNL1        0.0762
     11 C          -7.6268  -18.6035   22.3250 C.ar    1  UNL1       -0.0206
     12 C          -6.4472  -17.8716   22.8931 C.ar    1  UNL1       -0.0033
     13 C          -5.0554  -18.2890   22.5210 C.ar    1  UNL1        0.0119
     14 C          -4.8432  -19.4384   21.5809 C.ar    1  UNL1        0.0682
     15 CL         -3.4513  -19.8559   21.2088 Cl      1  UNL1       -0.0814
     16 C          -6.0228  -20.1703   21.0128 C.ar    1  UNL1        0.0679
     17 CL         -5.8106  -21.3198   20.0726 Cl      1  UNL1       -0.0814
     18 C          -7.4146  -19.7529   21.3849 C.ar    1  UNL1        0.0080
@<TRIPOS>BOND
     1     1     2    1
     2     2     3    1
     3     4     3    1
     4     4     5    1
     5     5     6    1
     6     6     7    1
     7     7     8    1
     8     8     9    1
     9     9    11    1
    10    11    12   ar
    11    12    13   ar
    12    13    14   ar
    13    14    15    1
    14    14    16   ar
    15    16    17    1
    16    16    18   ar
    17     9    10    1
    18    10     2    1
    19     9     4    1
    20    18    11   ar
@<TRIPOS>MOLECULE
*****
 18 20 0 0 0
SMALL
GASTEIGER

@<TRIPOS>ATOM
      1 C          -8.8664  -19.9975   18.4710 C.3     1  UNL1        0.0896
      2 N          -9.2932  -19.6066   19.8549 N.3     1  UNL1       -0.2712
      3 C         -10.7011  -19.5921   20.3723 C.3     1  UNL1        0.0725
      4 C         -10.6650  -19.1381   21.8015 C.3     1  UNL1        0.0210
      5 C         -11.7497  -18.9326   22.8170 C.3     1  UNL1        0.0017
      6 C         -11.4042  -18.4611   24.1984 C.3     1  UNL1        0.0001
      7 C          -9.9740  -18.1951   24.5643 C.3     1  UNL1        0.0004
      8 C          -8.8894  -18.4006   23.5488 C.3     1  UNL1        0.0054
      9 C          -9.2349  -18.8721   22.1674 C.3     1  UNL1        0.0349
     10 C          -8.3871  -19.1617   20.9644 C.3     1  UNL1        0.0762
     11 C          -7.7679  -18.6484   22.3867 C.ar    1  UNL1       -0.0206
     12 C          -6.7875  -19.7388   22.0707 C.ar    1  UNL1       -0.0033
     13 C          -5.3206  -19.5151   22.2899 C.ar    1  UNL1        0.0119
     14 C          -4.8341  -18.2010   22.8252 C.ar    1  UNL1        0.0682
     15 CL         -3.3672  -17.9773   23.0444 Cl      1  UNL1       -0.0814
     16 C          -5.8144  -17.1107   23.1412 C.ar    1  UNL1        0.0679
     17 CL         -5.3279  -15.7965   23.6765 Cl      1  UNL1       -0.0814
     18 C          -7.2814  -17.3344   22.9220 C.ar    1  UNL1        0.0080
@<TRIPOS>BOND
     1     1     2    1
     2     2     3    1
     3     4     3    1
     4     4     5    1
     5     5     6    1
     6     6     7    1
     7     7     8    1
     8     8     9    1
     9     9    11    1
    10    11    12   ar
    11    12    13   ar
    12    13    14   ar
    13    14    15    1
    14    14    16   ar
    15    16    17    1
    16    16    18   ar
    17     9    10    1
    18    10     2    1
    19     9     4    1
    20    18    11   ar
@<TRIPOS>MOLECULE
*****
 18 20 0 0 0
SMALL
GASTEIGER

@<TRIPOS>ATOM
      1 C         -10.7701  -20.1949   22.9041 C.3     1  UNL1        0.0896
      2 N          -9.9081  -19.0056   23.2086 N.3     1  UNL1       -0.2712
      3 C         -10.2723  -17.8588   24.1042 C.3     1  UNL1        0.0725
      4 C          -9.1198  -16.8988   24.1200 C.3     1  UNL1        0.0210
      5 C          -8.9116  -15.5922   24.8266 C.3     1  UNL1        0.0017
      6 C          -7.6268  -14.8391   24.6474 C.3     1  UNL1        0.0001
      7 C          -6.5503  -15.3926   23.7615 C.3     1  UNL1        0.0004
      8 C          -6.7586  -16.6992   23.0548 C.3     1  UNL1        0.0054
      9 C          -8.0433  -17.4523   23.2341 C.3     1  UNL1        0.0349
     10 C          -8.5305  -18.7544   22.6708 C.3     1  UNL1        0.0762
     11 C          -7.0628  -18.1271   22.3212 C.ar    1  UNL1       -0.0206
     12 C          -7.4733  -18.5085   20.9298 C.ar    1  UNL1       -0.0033
     13 C          -6.4929  -19.1832   20.0170 C.ar    1  UNL1        0.0119
     14 C          -5.1019  -19.4766   20.4955 C.ar    1  UNL1        0.0682
     15 CL         -4.1214  -20.1514   19.5826 Cl      1  UNL1       -0.0814
     16 C          -4.6913  -19.0953   21.8869 C.ar    1  UNL1        0.0679
     17 CL         -3.3003  -19.3886   22.3654 Cl      1  UNL1       -0.0814
     18 C          -5.6718  -18.4205   22.7998 C.ar    1  UNL1        0.0080
@<TRIPOS>BOND
     1     1     2    1
     2     2     3    1
     3     4     3    1
     4     4     5    1
     5     5     6    1
     6     6     7    1
     7     7     8    1
     8     8     9    1
     9     9    11    1
    10    11    12   ar
    11    12    13   ar
    12    13    14   ar
    13    14    15    1
    14    14    16   ar
    15    16    17    1
    16    16    18   ar
    17     9    10    1
    18    10     2    1
    19     9     4    1
    20    18    11   ar
@<TRIPOS>MOLECULE
*****
 18 20 0 0 0
SMALL
GASTEIGER

@<TRIPOS>ATOM
      1 C         -14.7709   -6.5533   15.9836 C.3     1  UNL1        0.0896
      2 N         -13.4710   -6.5572   16.7321 N.3     1  UNL1       -0.2712
      3 C         -12.6021   -7.7538   16.9837 C.3     1  UNL1        0.0725
      4 C         -11.4059   -7.3014   17.7676 C.3     1  UNL1        0.0210
      5 C         -10.2154   -8.0429   18.2994 C.3     1  UNL1        0.0017
      6 C          -9.1545   -7.3083   19.0641 C.3     1  UNL1        0.0001
      7 C          -9.2841   -5.8321   19.2969 C.3     1  UNL1        0.0004
      8 C         -10.4745   -5.0906   18.7651 C.3     1  UNL1        0.0054
      9 C         -11.5354   -5.8253   18.0004 C.3     1  UNL1        0.0349
     10 C         -12.8117   -5.3654   17.3605 C.3     1  UNL1        0.0762
     11 C         -11.8002   -4.3568   18.1538 C.ar    1  UNL1       -0.0206
     12 C         -12.7058   -3.8678   19.2450 C.ar    1  UNL1       -0.0033
     13 C         -12.9705   -2.3994   19.3983 C.ar    1  UNL1        0.0119
     14 C         -12.3297   -1.4199   18.4604 C.ar    1  UNL1        0.0682
     15 CL        -12.5944    0.0486   18.6137 Cl      1  UNL1       -0.0814
     16 C         -11.4241   -1.9087   17.3691 C.ar    1  UNL1        0.0679
     17 CL        -10.7832   -0.9291   16.4311 Cl      1  UNL1       -0.0814
     18 C         -11.1594   -3.3772   17.2158 C.ar    1  UNL1        0.0080
@<TRIPOS>BOND
     1     1     2    1
     2     2     3    1
     3     4     3    1
     4     4     5    1
     5     5     6    1
     6     6     7    1
     7     7     8    1
     8     8     9    1
     9     9    11    1
    10    11    12   ar
    11    12    13   ar
    12    13    14   ar
    13    14    15    1
    14    14    16   ar
    15    16    17    1
    16    16    18   ar
    17     9    10    1
    18    10     2    1
    19     9     4    1
    20    18    11   ar
@<TRIPOS>MOLECULE
*****
 18 20 0 0 0
SMALL
GASTEIGER

@<TRIPOS>ATOM
      1 C         -14.4081   -2.0158   18.7370 C.3     1  UNL1        0.0896
      2 N         -13.4160   -3.1408   18.7475 N.3     1  UNL1       -0.2712
      3 C         -11.9501   -3.0209   19.0418 C.3     1  UNL1        0.0725
      4 C         -11.3437   -4.3893   18.9417 C.3     1  UNL1        0.0210
      5 C          -9.9390   -4.8807   19.1288 C.3     1  UNL1        0.0017
      6 C          -9.6254   -6.3378   18.9597 C.3     1  UNL1        0.0001
      7 C         -10.7166   -7.3034   18.6035 C.3     1  UNL1        0.0004
      8 C         -12.1214   -6.8119   18.4163 C.3     1  UNL1        0.0054
      9 C         -12.4349   -5.3548   18.5854 C.3     1  UNL1        0.0349
     10 C         -13.7157   -4.5832   18.4654 C.3     1  UNL1        0.0762
     11 C         -13.6239   -6.1975   18.2300 C.ar    1  UNL1       -0.0206
     12 C         -13.9133   -6.5184   16.7936 C.ar    1  UNL1       -0.0033
     13 C         -15.1022   -7.3611   16.4382 C.ar    1  UNL1        0.0119
     14 C         -16.0017   -7.8829   17.5192 C.ar    1  UNL1        0.0682
     15 CL        -17.1906   -8.7256   17.1637 Cl      1  UNL1       -0.0814
     16 C         -15.7123   -7.5621   18.9555 C.ar    1  UNL1        0.0679
     17 CL        -16.6119   -8.0839   20.0366 Cl      1  UNL1       -0.0814
     18 C         -14.5234   -6.7194   19.3109 C.ar    1  UNL1        0.0080
@<TRIPOS>BOND
     1     1     2    1
     2     2     3    1
     3     4     3    1
     4     4     5    1
     5     5     6    1
     6     6     7    1
     7     7     8    1
     8     8     9    1
     9     9    11    1
    10    11    12   ar
    11    12    13   ar
    12    13    14   ar
    13    14    15    1
    14    14    16   ar
    15    16    17    1
    16    16    18   ar
    17     9    10    1
    18    10     2    1
    19     9     4    1
    20    18    11   ar
@<TRIPOS>MOLECULE
*****
 18 20 0 0 0
SMALL
GASTEIGER

@<TRIPOS>ATOM
      1 C         -15.4510   -2.2848   19.7404 C.3     1  UNL1        0.0896
      2 N         -15.3367   -3.7577   19.4805 N.3     1  UNL1       -0.2712
      3 C         -16.3793   -4.7910   19.7893 C.3     1  UNL1        0.0725
      4 C         -15.8467   -6.1278   19.3657 C.3     1  UNL1        0.0210
      5 C         -16.4336   -7.5069   19.4259 C.3     1  UNL1        0.0017
      6 C         -15.6488   -8.6788   18.9155 C.3     1  UNL1        0.0001
      7 C         -14.2771   -8.4717   18.3450 C.3     1  UNL1        0.0004
      8 C         -13.6902   -7.0926   18.2848 C.3     1  UNL1        0.0054
      9 C         -14.4750   -5.9207   18.7952 C.3     1  UNL1        0.0349
     10 C         -14.1598   -4.4559   18.8662 C.3     1  UNL1        0.0762
     11 C         -13.1227   -5.5607   18.2550 C.ar    1  UNL1       -0.0206
     12 C         -12.9831   -5.0839   16.8397 C.ar    1  UNL1       -0.0033
     13 C         -11.6309   -4.7240   16.2995 C.ar    1  UNL1        0.0119
     14 C         -10.4183   -4.8409   17.1746 C.ar    1  UNL1        0.0682
     15 CL         -9.0660   -4.4809   16.6343 Cl      1  UNL1       -0.0814
     16 C         -10.5578   -5.3177   18.5898 C.ar    1  UNL1        0.0679
     17 CL         -9.3451   -5.4347   19.4650 Cl      1  UNL1       -0.0814
     18 C         -11.9101   -5.6777   19.1301 C.ar    1  UNL1        0.0080
@<TRIPOS>BOND
     1     1     2    1
     2     2     3    1
     3     4     3    1
     4     4     5    1
     5     5     6    1
     6     6     7    1
     7     7     8    1
     8     8     9    1
     9     9    11    1
    10    11    12   ar
    11    12    13   ar
    12    13    14   ar
    13    14    15    1
    14    14    16   ar
    15    16    17    1
    16    16    18   ar
    17     9    10    1
    18    10     2    1
    19     9     4    1
    20    18    11   ar
