@<TRIPOS>MOLECULE
*****
 24 27 0 0 0
SMALL
GASTEIGER

@<TRIPOS>ATOM
      1 C          -7.3613  -15.7444   24.3806 C.2     1  UNL1        0.1655
      2 C          -6.8514  -16.7224   23.3639 C.2     1  UNL1        0.0374
      3 C          -7.8073  -17.6394   22.6602 C.2     1  UNL1        0.0149
      4 C          -7.5992  -18.6988   21.6188 C.2     1  UNL1        0.0926
      5 C          -8.9363  -19.2927   21.2880 C.2     1  UNL1        0.1000
      6 N          -9.9708  -18.6003   22.1250 N.2     1  UNL1       -0.2617
      7 C          -9.2730  -17.5786   22.9730 C.3     1  UNL1        0.1502
      8 C          -9.7829  -16.6006   23.9896 C.2     1  UNL1        0.0349
      9 C          -8.8271  -15.6835   24.6935 C.2     1  UNL1        0.1718
     10 F          -9.3370  -14.7055   25.7101 F       1  UNL1       -0.2012
     11 C          -5.2097  -15.3909   25.7931 C.3     1  UNL1        0.2526
     12 O          -6.4055  -14.8273   25.0844 O.2     1  UNL1       -0.4692
     13 C          -6.2848  -19.0948   21.0143 C.2     1  UNL1        0.3425
     14 O          -5.9277  -18.6386   19.6308 O.2     1  UNL1       -0.2448
     15 O          -5.3274  -19.9471   21.7935 O.3     1  UNL1       -0.4454
     16 C          -4.2289  -19.3061   22.5890 C.3     1  UNL1        0.2087
     17 C          -3.1955  -18.4658   21.8992 C.3     1  UNL1        0.0445
     18 C          -2.9452  -17.0594   22.3565 C.3     1  UNL1        0.0210
     19 C          -1.9117  -16.2192   21.6666 C.3     1  UNL1        0.0722
     20 N          -1.1285  -16.7854   20.5195 N.3     1  UNL1       -0.2727
     21 C          -1.3788  -18.1919   20.0622 C.3     1  UNL1        0.0722
     22 C          -2.4123  -19.0321   20.7520 C.3     1  UNL1        0.0210
     23 C          -1.6844  -17.2840   20.8663 C.3     1  UNL1        0.0722
     24 C          -2.6189  -18.0438   21.4900 C.3     1  UNL1        0.0210
@<TRIPOS>BOND
     1    11    12    1
     2    12     1    1
     3     1     2    2
     4     2     3    1
     5     3     4    2
     6     4    13    1
     7    13    14    2
     8    13    15    1
     9    15    16    1
    10    16    17    1
    11    17    18    1
    12    18    19    1
    13    19    20    1
    14    20    21    1
    15    21    22    1
    16    20    23    1
    17    23    24    1
    18     4     5    1
    19     5     6    2
    20     6     7    1
    21     7     8    1
    22     8     9    2
    23     9    10    1
    24     9     1    1
    25     7     3    1
    26    22    17    1
    27    24    17    1
@<TRIPOS>MOLECULE
*****
 24 27 0 0 0
SMALL
GASTEIGER

@<TRIPOS>ATOM
      1 C          -7.6581  -15.8974   25.0339 C.2     1  UNL1        0.1655
      2 C          -8.0824  -16.4924   23.7239 C.2     1  UNL1        0.0374
      3 C          -9.1310  -17.5645   23.6917 C.2     1  UNL1        0.0149
      4 C          -9.7469  -18.3325   22.5598 C.2     1  UNL1        0.0926
      5 C         -10.7517  -19.2843   23.1380 C.2     1  UNL1        0.1000
      6 N         -10.7568  -19.1046   24.6272 N.2     1  UNL1       -0.2617
      7 C          -9.7552  -18.0417   24.9694 C.3     1  UNL1        0.1502
      8 C          -9.3309  -17.4468   26.2793 C.2     1  UNL1        0.0349
      9 C          -8.2823  -16.3746   26.3116 C.2     1  UNL1        0.1718
     10 F          -7.8580  -15.7797   27.6215 F       1  UNL1       -0.2012
     11 C          -5.2893  -15.0870   25.7283 C.3     1  UNL1        0.2526
     12 O          -6.6096  -14.8253   25.0661 O.2     1  UNL1       -0.4692
     13 C          -9.4159  -18.1760   21.1052 C.2     1  UNL1        0.3425
     14 O         -10.4333  -17.6062   20.1616 O.2     1  UNL1       -0.2448
     15 O          -8.0676  -18.5893   20.5941 O.3     1  UNL1       -0.4454
     16 C          -7.2949  -19.6639   21.3000 C.3     1  UNL1        0.2087
     17 C          -5.7969  -19.6034   21.3459 C.3     1  UNL1        0.0445
     18 C          -5.1098  -18.8625   22.4545 C.3     1  UNL1        0.0210
     19 C          -3.6117  -18.8021   22.5004 C.3     1  UNL1        0.0722
     20 N          -2.8008  -19.4826   21.4377 N.3     1  UNL1       -0.2727
     21 C          -3.4879  -20.2235   20.3292 C.3     1  UNL1        0.0722
     22 C          -4.9859  -20.2839   20.2833 C.3     1  UNL1        0.0210
     23 C          -3.6191  -19.5433   21.3705 C.3     1  UNL1        0.0722
     24 C          -4.9737  -19.5980   21.3289 C.3     1  UNL1        0.0210
@<TRIPOS>BOND
     1    11    12    1
     2    12     1    1
     3     1     2    2
     4     2     3    1
     5     3     4    2
     6     4    13    1
     7    13    14    2
     8    13    15    1
     9    15    16    1
    10    16    17    1
    11    17    18    1
    12    18    19    1
    13    19    20    1
    14    20    21    1
    15    21    22    1
    16    20    23    1
    17    23    24    1
    18     4     5    1
    19     5     6    2
    20     6     7    1
    21     7     8    1
    22     8     9    2
    23     9    10    1
    24     9     1    1
    25     7     3    1
    26    22    17    1
    27    24    17    1
@<TRIPOS>MOLECULE
*****
 24 27 0 0 0
SMALL
GASTEIGER

@<TRIPOS>ATOM
      1 C         -14.2527   -5.3480   19.8521 C.2     1  UNL1        0.1655
      2 C         -12.8086   -5.2501   19.4581 C.2     1  UNL1        0.0374
      3 C         -12.2099   -6.2758   18.5420 C.2     1  UNL1        0.0149
      4 C         -10.8270   -6.4380   17.9840 C.2     1  UNL1        0.0926
      5 C         -10.8176   -7.6619   17.1169 C.2     1  UNL1        0.1000
      6 N         -12.1947   -8.2562   17.1390 N.2     1  UNL1       -0.2617
      7 C         -13.0552   -7.3995   18.0197 C.3     1  UNL1        0.1502
      8 C         -14.4992   -7.4975   18.4136 C.2     1  UNL1        0.0349
      9 C         -15.0980   -6.4717   19.3298 C.2     1  UNL1        0.1718
     10 F         -16.5420   -6.5697   19.7236 F       1  UNL1       -0.2012
     11 C         -14.0257   -3.1601   21.2346 C.3     1  UNL1        0.2526
     12 O         -14.8514   -4.3223   20.7682 O.2     1  UNL1       -0.4692
     13 C          -9.6586   -5.5348   18.2470 C.2     1  UNL1        0.3425
     14 O          -9.2145   -5.2740   19.6558 O.2     1  UNL1       -0.2448
     15 O          -8.9343   -4.8925   17.1013 O.3     1  UNL1       -0.4454
     16 C          -9.3628   -3.5435   16.6047 C.3     1  UNL1        0.2087
     17 C         -10.6703   -2.9602   17.0520 C.3     1  UNL1        0.0445
     18 C         -11.9290   -3.2758   16.2996 C.3     1  UNL1        0.0210
     19 C         -13.2364   -2.6924   16.7470 C.3     1  UNL1        0.0722
     20 N         -13.2852   -1.7934   17.9468 N.3     1  UNL1       -0.2727
     21 C         -12.0266   -1.4778   18.6992 C.3     1  UNL1        0.0722
     22 C         -10.7191   -2.0612   18.2518 C.3     1  UNL1        0.0210
     23 C         -12.5455   -2.0895   17.7396 C.3     1  UNL1        0.0722
     24 C         -11.3632   -2.6169   17.3351 C.3     1  UNL1        0.0210
@<TRIPOS>BOND
     1    11    12    1
     2    12     1    1
     3     1     2    2
     4     2     3    1
     5     3     4    2
     6     4    13    1
     7    13    14    2
     8    13    15    1
     9    15    16    1
    10    16    17    1
    11    17    18    1
    12    18    19    1
    13    19    20    1
    14    20    21    1
    15    21    22    1
    16    20    23    1
    17    23    24    1
    18     4     5    1
    19     5     6    2
    20     6     7    1
    21     7     8    1
    22     8     9    2
    23     9    10    1
    24     9     1    1
    25     7     3    1
    26    22    17    1
    27    24    17    1
@<TRIPOS>MOLECULE
*****
 24 27 0 0 0
SMALL
GASTEIGER

@<TRIPOS>ATOM
      1 C         -14.9320   -3.9844   19.8238 C.2     1  UNL1        0.1655
      2 C         -13.8212   -4.8690   19.3402 C.2     1  UNL1        0.0374
      3 C         -14.1217   -6.2616   18.8709 C.2     1  UNL1        0.0149
      4 C         -13.2407   -7.3550   18.3433 C.2     1  UNL1        0.0926
      5 C         -14.1074   -8.5389   18.0314 C.2     1  UNL1        0.1000
      6 N         -15.5241   -8.1771   18.3663 N.2     1  UNL1       -0.2617
      7 C         -15.5329   -6.7697   18.8851 C.3     1  UNL1        0.1502
      8 C         -16.6437   -5.8852   19.3686 C.2     1  UNL1        0.0349
      9 C         -16.3432   -4.4925   19.8380 C.2     1  UNL1        0.1718
     10 F         -17.4540   -3.6080   20.3215 F       1  UNL1       -0.2012
     11 C         -14.7759   -1.4348   19.3495 C.3     1  UNL1        0.2526
     12 O         -14.6314   -2.5918   20.2931 O.2     1  UNL1       -0.4692
     13 C         -11.7539   -7.2781   18.1598 C.2     1  UNL1        0.3425
     14 O         -11.1401   -7.6555   16.8443 O.2     1  UNL1       -0.2448
     15 O         -10.8811   -6.8236   19.2919 O.3     1  UNL1       -0.4454
     16 C          -9.6878   -5.9570   19.0178 C.3     1  UNL1        0.2087
     17 C          -9.8316   -4.7296   18.1676 C.3     1  UNL1        0.0445
     18 C          -9.1523   -4.6584   16.8322 C.3     1  UNL1        0.0210
     19 C          -9.2962   -3.4311   15.9820 C.3     1  UNL1        0.0722
     20 N         -10.1194   -2.2749   16.4673 N.3     1  UNL1       -0.2727
     21 C         -10.7988   -2.3461   17.8027 C.3     1  UNL1        0.0722
     22 C         -10.6549   -3.5735   18.6529 C.3     1  UNL1        0.0210
     23 C         -10.0697   -2.9263   16.9684 C.3     1  UNL1        0.0722
     24 C          -9.9397   -4.0360   17.7372 C.3     1  UNL1        0.0210
@<TRIPOS>BOND
     1    11    12    1
     2    12     1    1
     3     1     2    2
     4     2     3    1
     5     3     4    2
     6     4    13    1
     7    13    14    2
     8    13    15    1
     9    15    16    1
    10    16    17    1
    11    17    18    1
    12    18    19    1
    13    19    20    1
    14    20    21    1
    15    21    22    1
    16    20    23    1
    17    23    24    1
    18     4     5    1
    19     5     6    2
    20     6     7    1
    21     7     8    1
    22     8     9    2
    23     9    10    1
    24     9     1    1
    25     7     3    1
    26    22    17    1
    27    24    17    1
@<TRIPOS>MOLECULE
*****
 24 27 0 0 0
SMALL
GASTEIGER

@<TRIPOS>ATOM
      1 C         -10.3083   -5.1648   18.5816 C.2     1  UNL1        0.1655
      2 C         -11.6500   -4.8740   19.1860 C.2     1  UNL1        0.0374
      3 C         -12.5157   -3.7949   18.6062 C.2     1  UNL1        0.0149
      4 C         -13.8749   -3.2863   18.9856 C.2     1  UNL1        0.0926
      5 C         -14.2390   -2.1836   18.0361 C.2     1  UNL1        0.1000
      6 N         -13.1047   -2.0108   17.0698 N.2     1  UNL1       -0.2617
      7 C         -12.0397   -3.0066   17.4222 C.3     1  UNL1        0.1502
      8 C         -10.6981   -3.2974   16.8178 C.2     1  UNL1        0.0349
      9 C          -9.8323   -4.3765   17.3975 C.2     1  UNL1        0.1718
     10 F          -8.4906   -4.6673   16.7932 F       1  UNL1       -0.2012
     11 C          -9.5652   -7.6530   18.6621 C.3     1  UNL1        0.2526
     12 O          -9.4426   -6.2439   19.1613 O.2     1  UNL1       -0.4692
     13 C         -14.7214   -3.7916   20.1162 C.2     1  UNL1        0.3425
     14 O         -14.1693   -3.8235   21.5105 O.2     1  UNL1       -0.2448
     15 O         -16.1201   -4.2650   19.8524 O.3     1  UNL1       -0.4454
     16 C         -16.3934   -5.1976   18.7097 C.3     1  UNL1        0.2087
     17 C         -15.9255   -6.6212   18.7752 C.3     1  UNL1        0.0445
     18 C         -16.7587   -7.6531   19.4760 C.3     1  UNL1        0.0210
     19 C         -16.2907   -9.0767   19.5415 C.3     1  UNL1        0.0722
     20 N         -14.9896   -9.4685   18.9061 N.3     1  UNL1       -0.2727
     21 C         -14.1565   -8.4366   18.2053 C.3     1  UNL1        0.0722
     22 C         -14.6244   -7.0130   18.1399 C.3     1  UNL1        0.0210
     23 C         -15.2046   -8.6761   18.8443 C.3     1  UNL1        0.0722
     24 C         -15.6276   -7.3888   18.7851 C.3     1  UNL1        0.0210
@<TRIPOS>BOND
     1    11    12    1
     2    12     1    1
     3     1     2    2
     4     2     3    1
     5     3     4    2
     6     4    13    1
     7    13    14    2
     8    13    15    1
     9    15    16    1
    10    16    17    1
    11    17    18    1
    12    18    19    1
    13    19    20    1
    14    20    21    1
    15    21    22    1
    16    20    23    1
    17    23    24    1
    18     4     5    1
    19     5     6    2
    20     6     7    1
    21     7     8    1
    22     8     9    2
    23     9    10    1
    24     9     1    1
    25     7     3    1
    26    22    17    1
    27    24    17    1
@<TRIPOS>MOLECULE
*****
 24 27 0 0 0
SMALL
GASTEIGER

@<TRIPOS>ATOM
      1 C         -13.7247   -3.7160   19.5713 C.2     1  UNL1        0.1655
      2 C         -13.7540   -5.1190   19.0415 C.2     1  UNL1        0.0374
      3 C         -15.0430   -5.8859   19.0200 C.2     1  UNL1        0.0149
      4 C         -15.3776   -7.2739   18.5602 C.2     1  UNL1        0.0926
      5 C         -16.8440   -7.4957   18.7845 C.2     1  UNL1        0.1000
      6 N         -17.4158   -6.2447   19.3829 N.2     1  UNL1       -0.2617
      7 C         -16.3027   -5.2498   19.5285 C.3     1  UNL1        0.1502
      8 C         -16.2734   -3.8468   20.0584 C.2     1  UNL1        0.0349
      9 C         -14.9844   -3.0799   20.0798 C.2     1  UNL1        0.1718
     10 F         -14.9552   -1.6769   20.6097 F       1  UNL1       -0.2012
     11 C         -12.1921   -1.8637   18.5866 C.3     1  UNL1        0.2526
     12 O         -12.4358   -2.9491   19.5928 O.2     1  UNL1       -0.4692
     13 C         -14.4147   -8.2660   17.9783 C.2     1  UNL1        0.3425
     14 O         -14.4005   -9.6799   18.4789 O.2     1  UNL1       -0.2448
     15 O         -13.4660   -7.8441   16.8957 O.3     1  UNL1       -0.4454
     16 C         -11.9865   -7.9901   17.0960 C.3     1  UNL1        0.2087
     17 C         -11.1506   -6.7864   17.4155 C.3     1  UNL1        0.0445
     18 C         -10.9657   -5.7078   16.3896 C.3     1  UNL1        0.0210
     19 C         -10.1297   -4.5041   16.7092 C.3     1  UNL1        0.0722
     20 N          -9.4786   -4.3789   18.0547 N.3     1  UNL1       -0.2727
     21 C          -9.6636   -5.4574   19.0807 C.3     1  UNL1        0.0722
     22 C         -10.4995   -6.6612   18.7611 C.3     1  UNL1        0.0210
     23 C          -9.9276   -5.0569   17.9256 C.3     1  UNL1        0.0722
     24 C         -10.6835   -6.1454   17.6368 C.3     1  UNL1        0.0210
@<TRIPOS>BOND
     1    11    12    1
     2    12     1    1
     3     1     2    2
     4     2     3    1
     5     3     4    2
     6     4    13    1
     7    13    14    2
     8    13    15    1
     9    15    16    1
    10    16    17    1
    11    17    18    1
    12    18    19    1
    13    19    20    1
    14    20    21    1
    15    21    22    1
    16    20    23    1
    17    23    24    1
    18     4     5    1
    19     5     6    2
    20     6     7    1
    21     7     8    1
    22     8     9    2
    23     9    10    1
    24     9     1    1
    25     7     3    1
    26    22    17    1
    27    24    17    1
@<TRIPOS>MOLECULE
*****
 24 27 0 0 0
SMALL
GASTEIGER

@<TRIPOS>ATOM
      1 C         -13.1140   -2.5021   19.4652 C.2     1  UNL1        0.1655
      2 C         -12.5433   -3.8835   19.3379 C.2     1  UNL1        0.0374
      3 C         -11.3236   -4.1165   18.4965 C.2     1  UNL1        0.0149
      4 C         -10.5410   -5.3578   18.1853 C.2     1  UNL1        0.0926
      5 C          -9.4083   -4.9766   17.2788 C.2     1  UNL1        0.1000
      6 N          -9.4908   -3.4997   17.0298 N.2     1  UNL1       -0.2617
      7 C         -10.6745   -2.9681   17.7824 C.3     1  UNL1        0.1502
      8 C         -11.2451   -1.5868   17.9096 C.2     1  UNL1        0.0349
      9 C         -12.4649   -1.3537   18.7511 C.2     1  UNL1        0.1718
     10 F         -13.0355    0.0276   18.8783 F       1  UNL1       -0.2012
     11 C         -15.6761   -2.1157   19.6551 C.3     1  UNL1        0.2526
     12 O         -14.3337   -2.2691   20.3066 O.2     1  UNL1       -0.4692
     13 C         -10.8390   -6.7379   18.6916 C.2     1  UNL1        0.3425
     14 O          -9.7775   -7.7970   18.6511 O.2     1  UNL1       -0.2448
     15 O         -12.1983   -7.0590   19.2384 O.3     1  UNL1       -0.4454
     16 C         -13.3407   -7.3210   18.3023 C.3     1  UNL1        0.2087
     17 C         -14.7537   -7.1947   18.7895 C.3     1  UNL1        0.0445
     18 C         -15.5368   -8.4234   19.1460 C.3     1  UNL1        0.0210
     19 C         -16.9498   -8.2970   19.6333 C.3     1  UNL1        0.0722
     20 N         -17.5797   -6.9420   19.7640 N.3     1  UNL1       -0.2727
     21 C         -16.7967   -5.7133   19.4075 C.3     1  UNL1        0.0722
     22 C         -15.3837   -5.8397   18.9203 C.3     1  UNL1        0.0210
     23 C         -16.8026   -6.9611   19.4927 C.3     1  UNL1        0.0722
     24 C         -15.5250   -7.0752   19.0521 C.3     1  UNL1        0.0210
@<TRIPOS>BOND
     1    11    12    1
     2    12     1    1
     3     1     2    2
     4     2     3    1
     5     3     4    2
     6     4    13    1
     7    13    14    2
     8    13    15    1
     9    15    16    1
    10    16    17    1
    11    17    18    1
    12    18    19    1
    13    19    20    1
    14    20    21    1
    15    21    22    1
    16    20    23    1
    17    23    24    1
    18     4     5    1
    19     5     6    2
    20     6     7    1
    21     7     8    1
    22     8     9    2
    23     9    10    1
    24     9     1    1
    25     7     3    1
    26    22    17    1
    27    24    17    1
@<TRIPOS>MOLECULE
*****
 24 27 0 0 0
SMALL
GASTEIGER

@<TRIPOS>ATOM
      1 C           1.5285   -0.3280   19.6614 C.2     1  UNL1        0.1655
      2 C           2.2313   -1.6033   20.0218 C.2     1  UNL1        0.0374
      3 C           3.4306   -2.0462   19.2373 C.2     1  UNL1        0.0149
      4 C           4.3216   -3.2469   19.3582 C.2     1  UNL1        0.0926
      5 C           5.3689   -3.1566   18.2882 C.2     1  UNL1        0.1000
      6 N           5.1252   -1.9001   17.5060 N.2     1  UNL1       -0.2617
      7 C           3.9273   -1.2139   18.0925 C.3     1  UNL1        0.1502
      8 C           3.2246    0.0614   17.7322 C.2     1  UNL1        0.0349
      9 C           2.0252    0.5043   18.5166 C.2     1  UNL1        0.1718
     10 F           1.3225    1.7796   18.1563 F       1  UNL1       -0.2012
     11 C           0.4480    1.2474   21.4222 C.3     1  UNL1        0.2526
     12 O           0.3292    0.1149   20.4458 O.2     1  UNL1       -0.4692
     13 C           4.1886   -4.3450   20.3713 C.2     1  UNL1        0.3425
     14 O           3.4466   -5.6011   20.0228 O.2     1  UNL1       -0.2448
     15 O           4.7977   -4.1870   21.7330 O.3     1  UNL1       -0.4454
     16 C           5.3483   -2.8583   22.1589 C.3     1  UNL1        0.2087
     17 C           4.6996   -2.1023   23.2803 C.3     1  UNL1        0.0445
     18 C           5.2172   -2.2473   24.6807 C.3     1  UNL1        0.0210
     19 C           4.5684   -1.4913   25.8020 C.3     1  UNL1        0.0722
     20 N           3.4022   -0.5902   25.5230 N.3     1  UNL1       -0.2727
     21 C           2.8846   -0.4451   24.1227 C.3     1  UNL1        0.0722
     22 C           3.5333   -1.2012   23.0013 C.3     1  UNL1        0.0210
     23 C           3.7249   -0.9841   24.8761 C.3     1  UNL1        0.0722
     24 C           4.3114   -1.6677   23.8620 C.3     1  UNL1        0.0210
@<TRIPOS>BOND
     1    11    12    1
     2    12     1    1
     3     1     2    2
     4     2     3    1
     5     3     4    2
     6     4    13    1
     7    13    14    2
     8    13    15    1
     9    15    16    1
    10    16    17    1
    11    17    18    1
    12    18    19    1
    13    19    20    1
    14    20    21    1
    15    21    22    1
    16    20    23    1
    17    23    24    1
    18     4     5    1
    19     5     6    2
    20     6     7    1
    21     7     8    1
    22     8     9    2
    23     9    10    1
    24     9     1    1
    25     7     3    1
    26    22    17    1
    27    24    17    1
@<TRIPOS>MOLECULE
*****
 24 27 0 0 0
SMALL
GASTEIGER

@<TRIPOS>ATOM
      1 C         -15.1713   -3.8317   18.8731 C.2     1  UNL1        0.1655
      2 C         -14.5478   -5.0318   18.2240 C.2     1  UNL1        0.0374
      3 C         -13.0815   -5.2987   18.3928 C.2     1  UNL1        0.0149
      4 C         -12.1944   -6.3925   17.8764 C.2     1  UNL1        0.0926
      5 C         -10.8033   -6.1356   18.3752 C.2     1  UNL1        0.1000
      6 N         -10.8306   -4.8830   19.1999 N.2     1  UNL1       -0.2617
      7 C         -12.2386   -4.3657   19.2108 C.3     1  UNL1        0.1502
      8 C         -12.8620   -3.1658   19.8599 C.2     1  UNL1        0.0349
      9 C         -14.3284   -2.8987   19.6910 C.2     1  UNL1        0.1718
     10 F         -14.9519   -1.6988   20.3401 F       1  UNL1       -0.2012
     11 C         -17.5918   -3.8887   19.8153 C.3     1  UNL1        0.2526
     12 O         -16.6376   -3.5648   18.7042 O.2     1  UNL1       -0.4692
     13 C         -12.6232   -7.5416   17.0128 C.2     1  UNL1        0.3425
     14 O         -11.6694   -8.1253   16.0131 O.2     1  UNL1       -0.2448
     15 O         -14.0059   -8.1070   17.1490 O.3     1  UNL1       -0.4454
     16 C         -14.3814   -8.8832   18.3764 C.3     1  UNL1        0.2087
     17 C         -15.8189   -8.9761   18.7945 C.3     1  UNL1        0.0445
     18 C         -16.4153   -7.9146   19.6707 C.3     1  UNL1        0.0210
     19 C         -17.8528   -8.0076   20.0887 C.3     1  UNL1        0.0722
     20 N         -18.6940   -9.1619   19.6305 N.3     1  UNL1       -0.2727
     21 C         -18.0976  -10.2233   18.7544 C.3     1  UNL1        0.0722
     22 C         -16.6601  -10.1304   18.3363 C.3     1  UNL1        0.0210
     23 C         -17.9112   -9.1540   19.3756 C.3     1  UNL1        0.0722
     24 C         -16.6113   -9.0701   18.9976 C.3     1  UNL1        0.0210
@<TRIPOS>BOND
     1    11    12    1
     2    12     1    1
     3     1     2    2
     4     2     3    1
     5     3     4    2
     6     4    13    1
     7    13    14    2
     8    13    15    1
     9    15    16    1
    10    16    17    1
    11    17    18    1
    12    18    19    1
    13    19    20    1
    14    20    21    1
    15    21    22    1
    16    20    23    1
    17    23    24    1
    18     4     5    1
    19     5     6    2
    20     6     7    1
    21     7     8    1
    22     8     9    2
    23     9    10    1
    24     9     1    1
    25     7     3    1
    26    22    17    1
    27    24    17    1
