@<TRIPOS>MOLECULE
*****
 42 47 0 0 0
SMALL
GASTEIGER

@<TRIPOS>ATOM
      1 N           3.1226    0.3171   31.5132 N.am    1  UNL1       -0.2222
      2 C           2.4592    0.4239   30.1720 C.2     1  UNL1        0.3219
      3 O           2.7535   -0.4273   28.9725 O.2     1  UNL1       -0.2512
      4 N           1.4499    1.5315   30.2410 N.am    1  UNL1       -0.1907
      5 C           1.4894    2.1091   31.6248 C.2     1  UNL1        0.2529
      6 O           0.6438    3.2389   32.1331 O.2     1  UNL1       -0.2724
      7 C           2.5232    1.3586   32.4111 C.3     1  UNL1        0.1391
      8 C           3.5820    0.5232   33.0676 C.3     1  UNL1        0.0449
      9 C           3.9515    0.7708   34.5001 C.3     1  UNL1        0.0746
     10 N           3.2622    1.8537   35.2761 N.3     1  UNL1       -0.2676
     11 C           2.2034    2.6890   34.6196 C.3     1  UNL1        0.0746
     12 C           1.8339    2.4415   33.1871 C.3     1  UNL1        0.0449
     13 C           6.7071   -1.3239   31.9690 C.ar    1  UNL1        0.2293
     14 C           5.6330   -0.3471   31.5919 C.ar    1  UNL1        0.0924
     15 C           4.1966   -0.6597   31.8903 C.ar    1  UNL1        0.1453
     16 N           3.8343   -1.9491   32.5656 N.ar    1  UNL1       -0.2084
     17 C           4.9083   -2.9259   32.9427 C.ar    1  UNL1        0.2027
     18 N           6.3448   -2.6133   32.6444 N.ar    1  UNL1       -0.1892
     19 C           9.2339   -1.6582   32.4724 C.3     1  UNL1        0.2542
     20 O           8.1435   -1.0114   31.6707 O.3     1  UNL1       -0.4560
     21 C           0.5577    1.9822   29.1227 C.ar    1  UNL1        0.0622
     22 C          -0.4566    1.0395   28.5460 C.ar    1  UNL1        0.0154
     23 C          -1.3488    1.4903   27.4276 C.ar    1  UNL1        0.0013
     24 C          -1.2267    2.8837   26.8859 C.ar    1  UNL1        0.0001
     25 C          -0.2123    3.8264   27.4625 C.ar    1  UNL1        0.0013
     26 C           0.6798    3.3756   28.5809 C.ar    1  UNL1        0.0154
     27 C          -2.1189    3.3344   25.7674 C.ar    1  UNL1        0.0000
     28 C          -3.5274    3.7611   26.0572 C.ar    1  UNL1        0.0007
     29 C          -4.4196    4.2119   24.9387 C.ar    1  UNL1        0.0103
     30 C          -3.9032    4.2359   23.5306 C.ar    1  UNL1        0.0684
     31 C          -2.4946    3.8092   23.2409 C.ar    1  UNL1        0.0103
     32 C          -1.6025    3.3585   24.3593 C.ar    1  UNL1        0.0007
     33 C          -4.7954    4.6866   22.4122 C.1     1  UNL1        0.1004
     34 N          -5.6876    5.1374   21.2938 N.1     1  UNL1       -0.1908
     35 C           3.6317    2.1012   36.7087 C.3     1  UNL1        0.1183
     36 C           2.6288    1.8518   37.7958 C.ar    1  UNL1        0.0712
     37 N           2.5488    0.5031   38.4475 N.ar    1  UNL1       -0.2471
     38 C           1.5458    0.2538   39.5346 C.ar    1  UNL1        0.0985
     39 C           0.6228    1.3531   39.9701 C.ar    1  UNL1        0.0203
     40 C           0.7028    2.7017   39.3184 C.ar    1  UNL1       -0.0015
     41 C           1.7058    2.9511   38.2313 C.ar    1  UNL1       -0.0069
     42 C           1.7858    4.2998   37.5796 C.3     1  UNL1        0.0323
@<TRIPOS>BOND
     1    19    20    1
     2    20    13    1
     3    13    14   ar
     4    14    15   ar
     5    15     1    1
     6     1     2   am
     7     2     3    2
     8     2     4   am
     9     4    21    1
    10    21    22   ar
    11    22    23   ar
    12    23    24   ar
    13    24    27    1
    14    27    28   ar
    15    28    29   ar
    16    29    30   ar
    17    30    33    1
    18    33    34    3
    19    30    31   ar
    20    31    32   ar
    21    24    25   ar
    22    25    26   ar
    23     4     5   am
    24     5     6    2
    25     5     7    1
    26     7     8    1
    27     8     9    1
    28     9    10    1
    29    10    35    1
    30    35    36    1
    31    36    37   ar
    32    37    38   ar
    33    38    39   ar
    34    39    40   ar
    35    40    41   ar
    36    41    42    1
    37    10    11    1
    38    11    12    1
    39    15    16   ar
    40    16    17   ar
    41    17    18   ar
    42    18    13   ar
    43     7     1    1
    44    41    36   ar
    45    26    21   ar
    46    12     7    1
    47    32    27   ar
@<TRIPOS>MOLECULE
*****
 42 47 0 0 0
SMALL
GASTEIGER

@<TRIPOS>ATOM
      1 N           2.8887    0.8695   31.4894 N.am    1  UNL1       -0.2222
      2 C           2.3294    0.8404   30.0978 C.2     1  UNL1        0.3219
      3 O           2.7136   -0.1218   29.0131 O.2     1  UNL1       -0.2512
      4 N           1.3185    1.9425   29.9814 N.am    1  UNL1       -0.1907
      5 C           1.2530    2.6527   31.3010 C.2     1  UNL1        0.2529
      6 O           0.3718    3.8209   31.6308 O.2     1  UNL1       -0.2724
      7 C           2.2234    1.9895   32.2330 C.3     1  UNL1        0.1391
      8 C           3.2287    1.2295   33.0465 C.3     1  UNL1        0.0449
      9 C           3.4882    1.6181   34.4718 C.3     1  UNL1        0.0746
     10 N           2.7425    2.7669   35.0836 N.3     1  UNL1       -0.2676
     11 C           1.7373    3.5270   34.2702 C.3     1  UNL1        0.0746
     12 C           1.4778    3.1383   32.8449 C.3     1  UNL1        0.0449
     13 C           6.4248   -0.6271   32.4922 C.ar    1  UNL1        0.2293
     14 C           5.3832    0.3009   31.9410 C.ar    1  UNL1        0.0924
     15 C           3.9303   -0.0585   32.0406 C.ar    1  UNL1        0.1453
     16 N           3.5190   -1.3460   32.6912 N.ar    1  UNL1       -0.2084
     17 C           4.5606   -2.2740   33.2424 C.ar    1  UNL1        0.2027
     18 N           6.0135   -1.9146   33.1429 N.ar    1  UNL1       -0.1892
     19 C           8.9176   -1.1824   32.9691 C.3     1  UNL1        0.2542
     20 O           7.8777   -0.2678   32.3927 O.3     1  UNL1       -0.4560
     21 C           0.5143    2.2758   28.7599 C.ar    1  UNL1        0.0622
     22 C           0.3614    3.7046   28.3295 C.ar    1  UNL1        0.0154
     23 C          -0.4428    4.0379   27.1080 C.ar    1  UNL1        0.0013
     24 C          -1.0941    2.9425   26.3168 C.ar    1  UNL1        0.0001
     25 C          -0.9412    1.5137   26.7472 C.ar    1  UNL1        0.0013
     26 C          -0.1370    1.1804   27.9688 C.ar    1  UNL1        0.0154
     27 C          -1.8983    3.2758   25.0953 C.ar    1  UNL1        0.0000
     28 C          -1.2358    3.3200   23.7502 C.ar    1  UNL1        0.0007
     29 C          -2.0401    3.6533   22.5287 C.ar    1  UNL1        0.0103
     30 C          -3.5067    3.9425   22.6523 C.ar    1  UNL1        0.0684
     31 C          -4.1692    3.8984   23.9974 C.ar    1  UNL1        0.0103
     32 C          -3.3650    3.5651   25.2188 C.ar    1  UNL1        0.0007
     33 C          -4.3109    4.2759   21.4308 C.1     1  UNL1        0.1004
     34 N          -5.1151    4.6092   20.2092 N.1     1  UNL1       -0.1908
     35 C           3.0022    3.1555   36.5090 C.3     1  UNL1        0.1183
     36 C           2.2369    2.4957   37.6176 C.ar    1  UNL1        0.0712
     37 N           0.9612    3.1074   38.1159 N.ar    1  UNL1       -0.2471
     38 C           0.1960    2.4475   39.2245 C.ar    1  UNL1        0.0985
     39 C           0.7065    1.1760   39.8348 C.ar    1  UNL1        0.0203
     40 C           1.9822    0.5642   39.3365 C.ar    1  UNL1       -0.0015
     41 C           2.7474    1.2241   38.2279 C.ar    1  UNL1       -0.0069
     42 C           4.0231    0.6123   37.7296 C.3     1  UNL1        0.0323
@<TRIPOS>BOND
     1    19    20    1
     2    20    13    1
     3    13    14   ar
     4    14    15   ar
     5    15     1    1
     6     1     2   am
     7     2     3    2
     8     2     4   am
     9     4    21    1
    10    21    22   ar
    11    22    23   ar
    12    23    24   ar
    13    24    27    1
    14    27    28   ar
    15    28    29   ar
    16    29    30   ar
    17    30    33    1
    18    33    34    3
    19    30    31   ar
    20    31    32   ar
    21    24    25   ar
    22    25    26   ar
    23     4     5   am
    24     5     6    2
    25     5     7    1
    26     7     8    1
    27     8     9    1
    28     9    10    1
    29    10    35    1
    30    35    36    1
    31    36    37   ar
    32    37    38   ar
    33    38    39   ar
    34    39    40   ar
    35    40    41   ar
    36    41    42    1
    37    10    11    1
    38    11    12    1
    39    15    16   ar
    40    16    17   ar
    41    17    18   ar
    42    18    13   ar
    43     7     1    1
    44    41    36   ar
    45    26    21   ar
    46    12     7    1
    47    32    27   ar
@<TRIPOS>MOLECULE
*****
 42 47 0 0 0
SMALL
GASTEIGER

@<TRIPOS>ATOM
      1 N           3.6232   -1.1788   21.5872 N.am    1  UNL1       -0.2222
      2 C           2.4048   -0.3044   21.6250 C.2     1  UNL1        0.3219
      3 O           1.5262    0.0345   20.4574 O.2     1  UNL1       -0.2512
      4 N           2.2194    0.1714   23.0354 N.am    1  UNL1       -0.1907
      5 C           3.3231   -0.4088   23.8692 C.2     1  UNL1        0.2529
      6 O           3.5240   -0.1926   25.3399 O.2     1  UNL1       -0.2724
      7 C           4.1907   -1.2433   22.9742 C.3     1  UNL1        0.1391
      8 C           4.9616   -2.0377   21.9620 C.3     1  UNL1        0.0449
      9 C           6.1822   -2.8024   22.3805 C.3     1  UNL1        0.0746
     10 N           6.6320   -2.7727   23.8111 N.3     1  UNL1       -0.2676
     11 C           5.8611   -1.9782   24.8233 C.3     1  UNL1        0.0746
     12 C           4.6405   -1.2136   24.4048 C.3     1  UNL1        0.0449
     13 C           5.6761   -1.8296   18.2538 C.ar    1  UNL1        0.2293
     14 C           5.1226   -1.1407   19.4658 C.ar    1  UNL1        0.0924
     15 C           4.1767   -1.8677   20.3751 C.ar    1  UNL1        0.1453
     16 N           3.7843   -3.2834   20.0724 N.ar    1  UNL1       -0.2084
     17 C           4.3378   -3.9723   18.8604 C.ar    1  UNL1        0.2027
     18 N           5.2838   -3.2454   17.9510 N.ar    1  UNL1       -0.1892
     19 C           6.3103    0.2960   16.9012 C.3     1  UNL1        0.2542
     20 O           6.6220   -1.1028   17.3444 O.3     1  UNL1       -0.4560
     21 C           1.1230    1.0697   23.5259 C.ar    1  UNL1        0.0622
     22 C           0.5774    2.1439   22.6323 C.ar    1  UNL1        0.0154
     23 C          -0.5192    3.0423   23.1228 C.ar    1  UNL1        0.0013
     24 C          -1.0702    2.8664   24.5068 C.ar    1  UNL1        0.0001
     25 C          -0.5246    1.7922   25.4004 C.ar    1  UNL1        0.0013
     26 C           0.5720    0.8939   24.9099 C.ar    1  UNL1        0.0154
     27 C          -2.1667    3.7648   24.9973 C.ar    1  UNL1        0.0000
     28 C          -2.7810    3.5311   26.3456 C.ar    1  UNL1        0.0007
     29 C          -3.8776    4.4294   26.8361 C.ar    1  UNL1        0.0103
     30 C          -4.3597    5.5615   25.9782 C.ar    1  UNL1        0.0684
     31 C          -3.7454    5.7952   24.6299 C.ar    1  UNL1        0.0103
     32 C          -2.6489    4.8969   24.1394 C.ar    1  UNL1        0.0007
     33 C          -5.4563    6.4598   26.4686 C.1     1  UNL1        0.1004
     34 N          -6.5529    7.3582   26.9591 N.1     1  UNL1       -0.1908
     35 C           7.8528   -3.5374   24.2296 C.3     1  UNL1        0.1183
     36 C           7.7173   -4.9325   24.7636 C.ar    1  UNL1        0.0712
     37 N           7.0177   -5.1714   26.0687 N.ar    1  UNL1       -0.2471
     38 C           6.8823   -6.5666   26.6027 C.ar    1  UNL1        0.0985
     39 C           7.4465   -7.7229   25.8316 C.ar    1  UNL1        0.0203
     40 C           8.1462   -7.4840   24.5265 C.ar    1  UNL1       -0.0015
     41 C           8.2816   -6.0889   23.9924 C.ar    1  UNL1       -0.0069
     42 C           8.9812   -5.8500   22.6873 C.3     1  UNL1        0.0323
@<TRIPOS>BOND
     1    19    20    1
     2    20    13    1
     3    13    14   ar
     4    14    15   ar
     5    15     1    1
     6     1     2   am
     7     2     3    2
     8     2     4   am
     9     4    21    1
    10    21    22   ar
    11    22    23   ar
    12    23    24   ar
    13    24    27    1
    14    27    28   ar
    15    28    29   ar
    16    29    30   ar
    17    30    33    1
    18    33    34    3
    19    30    31   ar
    20    31    32   ar
    21    24    25   ar
    22    25    26   ar
    23     4     5   am
    24     5     6    2
    25     5     7    1
    26     7     8    1
    27     8     9    1
    28     9    10    1
    29    10    35    1
    30    35    36    1
    31    36    37   ar
    32    37    38   ar
    33    38    39   ar
    34    39    40   ar
    35    40    41   ar
    36    41    42    1
    37    10    11    1
    38    11    12    1
    39    15    16   ar
    40    16    17   ar
    41    17    18   ar
    42    18    13   ar
    43     7     1    1
    44    41    36   ar
    45    26    21   ar
    46    12     7    1
    47    32    27   ar
@<TRIPOS>MOLECULE
*****
 42 47 0 0 0
SMALL
GASTEIGER

@<TRIPOS>ATOM
      1 N           3.5698   -0.7520   23.2931 N.am    1  UNL1       -0.2222
      2 C           2.3438    0.1058   23.1878 C.2     1  UNL1        0.3219
      3 O           1.6602    0.5147   21.9167 O.2     1  UNL1       -0.2512
      4 N           1.9213    0.4830   24.5768 N.am    1  UNL1       -0.1907
      5 C           2.8862   -0.1417   25.5405 C.2     1  UNL1        0.2529
      6 O           2.8403   -0.0239   27.0352 O.2     1  UNL1       -0.2724
      7 C           3.9051   -0.9050   24.7472 C.3     1  UNL1        0.1391
      8 C           4.8469   -1.6213   23.8253 C.3     1  UNL1        0.0449
      9 C           5.9987   -2.4006   24.3873 C.3     1  UNL1        0.0746
     10 N           6.2087   -2.4637   25.8712 N.3     1  UNL1       -0.2676
     11 C           5.2669   -1.7474   26.7931 C.3     1  UNL1        0.0746
     12 C           4.1151   -0.9680   26.2310 C.3     1  UNL1        0.0449
     13 C           4.8134   -3.3647   20.5770 C.ar    1  UNL1        0.2293
     14 C           4.0556   -2.7652   21.7244 C.ar    1  UNL1        0.0924
     15 C           4.3276   -1.3515   22.1458 C.ar    1  UNL1        0.1453
     16 N           5.3573   -0.5374   21.4199 N.ar    1  UNL1       -0.2084
     17 C           6.1151   -1.1368   20.2726 C.ar    1  UNL1        0.2027
     18 N           5.8431   -2.5506   19.8511 N.ar    1  UNL1       -0.1892
     19 C           4.5812   -5.1484   18.7024 C.3     1  UNL1        0.2542
     20 O           4.5415   -4.7783   20.1555 O.3     1  UNL1       -0.4560
     21 C           0.7411    1.3351   24.9386 C.ar    1  UNL1        0.0622
     22 C           0.1337    1.2335   26.3063 C.ar    1  UNL1        0.0154
     23 C          -1.0465    2.0857   26.6681 C.ar    1  UNL1        0.0013
     24 C          -1.6193    3.0396   25.6621 C.ar    1  UNL1        0.0001
     25 C          -1.0119    3.1413   24.2943 C.ar    1  UNL1        0.0013
     26 C           0.1683    2.2891   23.9326 C.ar    1  UNL1        0.0154
     27 C          -2.7995    3.8918   26.0239 C.ar    1  UNL1        0.0000
     28 C          -4.1318    3.6390   25.3828 C.ar    1  UNL1        0.0007
     29 C          -5.3120    4.4912   25.7446 C.ar    1  UNL1        0.0103
     30 C          -5.1598    5.5963   26.7474 C.ar    1  UNL1        0.0684
     31 C          -3.8275    5.8491   27.3885 C.ar    1  UNL1        0.0103
     32 C          -2.6473    4.9970   27.0267 C.ar    1  UNL1        0.0007
     33 C          -6.3400    6.4485   27.1092 C.1     1  UNL1        0.1004
     34 N          -7.5202    7.3007   27.4709 N.1     1  UNL1       -0.1908
     35 C           7.3606   -3.2431   26.4332 C.3     1  UNL1        0.1183
     36 C           7.5617   -4.6755   26.0361 C.ar    1  UNL1        0.0712
     37 N           8.3816   -5.0102   24.8255 N.ar    1  UNL1       -0.2471
     38 C           8.5828   -6.4427   24.4285 C.ar    1  UNL1        0.0985
     39 C           7.9640   -7.5405   25.2421 C.ar    1  UNL1        0.0203
     40 C           7.1441   -7.2058   26.4528 C.ar    1  UNL1       -0.0015
     41 C           6.9429   -5.7733   26.8498 C.ar    1  UNL1       -0.0069
     42 C           6.1230   -5.4387   28.0605 C.3     1  UNL1        0.0323
@<TRIPOS>BOND
     1    19    20    1
     2    20    13    1
     3    13    14   ar
     4    14    15   ar
     5    15     1    1
     6     1     2   am
     7     2     3    2
     8     2     4   am
     9     4    21    1
    10    21    22   ar
    11    22    23   ar
    12    23    24   ar
    13    24    27    1
    14    27    28   ar
    15    28    29   ar
    16    29    30   ar
    17    30    33    1
    18    33    34    3
    19    30    31   ar
    20    31    32   ar
    21    24    25   ar
    22    25    26   ar
    23     4     5   am
    24     5     6    2
    25     5     7    1
    26     7     8    1
    27     8     9    1
    28     9    10    1
    29    10    35    1
    30    35    36    1
    31    36    37   ar
    32    37    38   ar
    33    38    39   ar
    34    39    40   ar
    35    40    41   ar
    36    41    42    1
    37    10    11    1
    38    11    12    1
    39    15    16   ar
    40    16    17   ar
    41    17    18   ar
    42    18    13   ar
    43     7     1    1
    44    41    36   ar
    45    26    21   ar
    46    12     7    1
    47    32    27   ar
@<TRIPOS>MOLECULE
*****
 42 47 0 0 0
SMALL
GASTEIGER

@<TRIPOS>ATOM
      1 N           4.2383   -0.0367   31.3685 N.am    1  UNL1       -0.2222
      2 C           3.4900    0.1863   30.0876 C.2     1  UNL1        0.3219
      3 O           3.8419   -0.3915   28.7489 O.2     1  UNL1       -0.2512
      4 N           2.3279    1.0885   30.3807 N.am    1  UNL1       -0.1907
      5 C           2.3580    1.4230   31.8426 C.2     1  UNL1        0.2529
      6 O           1.3794    2.2991   32.5669 O.2     1  UNL1       -0.2724
      7 C           3.5387    0.7277   32.4531 C.3     1  UNL1        0.1391
      8 C           4.7496   -0.0243   32.9202 C.3     1  UNL1        0.0449
      9 C           5.1588    0.0344   34.3621 C.3     1  UNL1        0.0746
     10 N           4.3571    0.8451   35.3369 N.3     1  UNL1       -0.2676
     11 C           3.1462    1.5970   34.8697 C.3     1  UNL1        0.0746
     12 C           2.7370    1.5383   33.4279 C.3     1  UNL1        0.0449
     13 C           6.5757   -3.1794   32.0083 C.ar    1  UNL1        0.2293
     14 C           5.3441   -2.3396   31.8415 C.ar    1  UNL1        0.0924
     15 C           5.4698   -0.8765   31.5353 C.ar    1  UNL1        0.1453
     16 N           6.8271   -0.2534   31.3960 N.ar    1  UNL1       -0.2084
     17 C           8.0587   -1.0931   31.5629 C.ar    1  UNL1        0.2027
     18 N           7.9330   -2.5562   31.8690 N.ar    1  UNL1       -0.1892
     19 C           7.0814   -5.6556   31.4063 C.3     1  UNL1        0.2542
     20 O           6.4500   -4.6424   32.3145 O.3     1  UNL1       -0.4560
     21 C           1.3139    1.5712   29.3865 C.ar    1  UNL1        0.0622
     22 C           1.2113    3.0338   29.0699 C.ar    1  UNL1        0.0154
     23 C           0.1972    3.5166   28.0756 C.ar    1  UNL1        0.0013
     24 C          -0.7143    2.5368   27.3979 C.ar    1  UNL1        0.0001
     25 C          -0.6117    1.0741   27.7146 C.ar    1  UNL1        0.0013
     26 C           0.4024    0.5914   28.7089 C.ar    1  UNL1        0.0154
     27 C          -1.7284    3.0196   26.4037 C.ar    1  UNL1        0.0000
     28 C          -1.3941    3.0408   24.9416 C.ar    1  UNL1        0.0007
     29 C          -2.4082    3.5236   23.9473 C.ar    1  UNL1        0.0103
     30 C          -3.7565    3.9852   24.4152 C.ar    1  UNL1        0.0684
     31 C          -4.0908    3.9639   25.8774 C.ar    1  UNL1        0.0103
     32 C          -3.0768    3.4812   26.8716 C.ar    1  UNL1        0.0007
     33 C          -4.7706    4.4679   23.4210 C.1     1  UNL1        0.1004
     34 N          -5.7847    4.9507   22.4267 N.1     1  UNL1       -0.1908
     35 C           4.7663    0.9037   36.7788 C.3     1  UNL1        0.1183
     36 C           4.4902    2.1367   37.5872 C.ar    1  UNL1        0.0712
     37 N           5.3985    3.3252   37.4764 N.ar    1  UNL1       -0.2471
     38 C           5.1223    4.5582   38.2849 C.ar    1  UNL1        0.0985
     39 C           3.9379    4.6026   39.2041 C.ar    1  UNL1        0.0203
     40 C           3.0296    3.4140   39.3150 C.ar    1  UNL1       -0.0015
     41 C           3.3057    2.1811   38.5066 C.ar    1  UNL1       -0.0069
     42 C           2.3974    0.9925   38.6174 C.3     1  UNL1        0.0323
@<TRIPOS>BOND
     1    19    20    1
     2    20    13    1
     3    13    14   ar
     4    14    15   ar
     5    15     1    1
     6     1     2   am
     7     2     3    2
     8     2     4   am
     9     4    21    1
    10    21    22   ar
    11    22    23   ar
    12    23    24   ar
    13    24    27    1
    14    27    28   ar
    15    28    29   ar
    16    29    30   ar
    17    30    33    1
    18    33    34    3
    19    30    31   ar
    20    31    32   ar
    21    24    25   ar
    22    25    26   ar
    23     4     5   am
    24     5     6    2
    25     5     7    1
    26     7     8    1
    27     8     9    1
    28     9    10    1
    29    10    35    1
    30    35    36    1
    31    36    37   ar
    32    37    38   ar
    33    38    39   ar
    34    39    40   ar
    35    40    41   ar
    36    41    42    1
    37    10    11    1
    38    11    12    1
    39    15    16   ar
    40    16    17   ar
    41    17    18   ar
    42    18    13   ar
    43     7     1    1
    44    41    36   ar
    45    26    21   ar
    46    12     7    1
    47    32    27   ar
@<TRIPOS>MOLECULE
*****
 42 47 0 0 0
SMALL
GASTEIGER

@<TRIPOS>ATOM
      1 N           5.5367   -0.4918   32.6672 N.am    1  UNL1       -0.2222
      2 C           5.9782   -0.0400   34.0278 C.2     1  UNL1        0.3219
      3 O           7.2673   -0.4046   34.7026 O.2     1  UNL1       -0.2512
      4 N           4.9043    0.8404   34.5950 N.am    1  UNL1       -0.1907
      5 C           3.7991    0.9327   33.5850 C.2     1  UNL1        0.2529
      6 O           2.5265    1.7115   33.7393 O.2     1  UNL1       -0.2724
      7 C           4.1899    0.1094   32.3935 C.3     1  UNL1        0.1391
      8 C           4.7133   -0.7475   31.2792 C.3     1  UNL1        0.0449
      9 C           3.9002   -0.9365   30.0331 C.3     1  UNL1        0.0746
     10 N           2.5636   -0.2685   29.9012 N.3     1  UNL1       -0.2676
     11 C           2.0402    0.5884   31.0155 C.3     1  UNL1        0.0746
     12 C           2.8533    0.7773   32.2617 C.3     1  UNL1        0.0449
     13 C           6.9844   -3.7728   30.9675 C.ar    1  UNL1        0.2293
     14 C           6.2143   -2.8771   31.8921 C.ar    1  UNL1        0.0924
     15 C           6.3067   -1.3875   31.7426 C.ar    1  UNL1        0.1453
     16 N           7.1692   -0.7935   30.6687 N.ar    1  UNL1       -0.2084
     17 C           7.9392   -1.6891   29.7441 C.ar    1  UNL1        0.2027
     18 N           7.8468   -3.1788   29.8936 N.ar    1  UNL1       -0.1892
     19 C           7.7612   -6.1552   30.2816 C.3     1  UNL1        0.2542
     20 O           6.8920   -5.2625   31.1169 O.3     1  UNL1       -0.4560
     21 C           4.9309    1.5107   35.9365 C.ar    1  UNL1        0.0622
     22 C           5.7936    2.7182   36.1546 C.ar    1  UNL1        0.0154
     23 C           5.8203    3.3885   37.4962 C.ar    1  UNL1        0.0013
     24 C           4.9842    2.8514   38.6198 C.ar    1  UNL1        0.0001
     25 C           4.1214    1.6438   38.4017 C.ar    1  UNL1        0.0013
     26 C           4.0948    0.9735   37.0601 C.ar    1  UNL1        0.0154
     27 C           5.0108    3.5217   39.9614 C.ar    1  UNL1        0.0000
     28 C           6.1639    3.2907   40.8925 C.ar    1  UNL1        0.0007
     29 C           6.1906    3.9611   42.2341 C.ar    1  UNL1        0.0103
     30 C           5.0640    4.8624   42.6446 C.ar    1  UNL1        0.0684
     31 C           3.9108    5.0934   41.7135 C.ar    1  UNL1        0.0103
     32 C           3.8842    4.4231   40.3719 C.ar    1  UNL1        0.0007
     33 C           5.0906    5.5328   43.9862 C.1     1  UNL1        0.1004
     34 N           5.1172    6.2031   45.3278 N.1     1  UNL1       -0.1908
     35 C           1.7504   -0.4575   28.6549 C.3     1  UNL1        0.1183
     36 C           0.9545    0.6855   28.0982 C.ar    1  UNL1        0.0712
     37 N           1.6575    1.8693   27.5028 N.ar    1  UNL1       -0.2471
     38 C           0.8615    3.0123   26.9460 C.ar    1  UNL1        0.0985
     39 C          -0.6374    2.9716   26.9847 C.ar    1  UNL1        0.0203
     40 C          -1.3404    1.7878   27.5801 C.ar    1  UNL1       -0.0015
     41 C          -0.5445    0.6448   28.1368 C.ar    1  UNL1       -0.0069
     42 C          -1.2475   -0.5390   28.7323 C.3     1  UNL1        0.0323
@<TRIPOS>BOND
     1    19    20    1
     2    20    13    1
     3    13    14   ar
     4    14    15   ar
     5    15     1    1
     6     1     2   am
     7     2     3    2
     8     2     4   am
     9     4    21    1
    10    21    22   ar
    11    22    23   ar
    12    23    24   ar
    13    24    27    1
    14    27    28   ar
    15    28    29   ar
    16    29    30   ar
    17    30    33    1
    18    33    34    3
    19    30    31   ar
    20    31    32   ar
    21    24    25   ar
    22    25    26   ar
    23     4     5   am
    24     5     6    2
    25     5     7    1
    26     7     8    1
    27     8     9    1
    28     9    10    1
    29    10    35    1
    30    35    36    1
    31    36    37   ar
    32    37    38   ar
    33    38    39   ar
    34    39    40   ar
    35    40    41   ar
    36    41    42    1
    37    10    11    1
    38    11    12    1
    39    15    16   ar
    40    16    17   ar
    41    17    18   ar
    42    18    13   ar
    43     7     1    1
    44    41    36   ar
    45    26    21   ar
    46    12     7    1
    47    32    27   ar
@<TRIPOS>MOLECULE
*****
 42 47 0 0 0
SMALL
GASTEIGER

@<TRIPOS>ATOM
      1 N           3.5661   -0.5651   23.6462 N.am    1  UNL1       -0.2222
      2 C           2.2842    0.1877   23.4458 C.2     1  UNL1        0.3219
      3 O           1.5872    0.4092   22.1361 O.2     1  UNL1       -0.2512
      4 N           1.8216    0.6801   24.7851 N.am    1  UNL1       -0.1907
      5 C           2.8176    0.2317   25.8131 C.2     1  UNL1        0.2529
      6 O           2.7478    0.5048   27.2864 O.2     1  UNL1       -0.2724
      7 C           3.8958   -0.5379   25.1093 C.3     1  UNL1        0.1391
      8 C           4.8951   -1.2801   24.2723 C.3     1  UNL1        0.0449
      9 C           6.0927   -1.9116   24.9182 C.3     1  UNL1        0.0746
     10 N           6.2908   -1.8009   26.4009 N.3     1  UNL1       -0.2676
     11 C           5.2915   -1.0587   27.2378 C.3     1  UNL1        0.0746
     12 C           4.0940   -0.4273   26.5920 C.3     1  UNL1        0.0449
     13 C           4.8586   -3.2912   21.0679 C.ar    1  UNL1        0.2293
     14 C           4.0486   -2.6278   22.1420 C.ar    1  UNL1        0.0924
     15 C           4.3761   -1.2285   22.5720 C.ar    1  UNL1        0.1453
     16 N           5.5135   -0.4928   21.9279 N.ar    1  UNL1       -0.2084
     17 C           6.3235   -1.1561   20.8538 C.ar    1  UNL1        0.2027
     18 N           5.9960   -2.5554   20.4238 N.ar    1  UNL1       -0.1892
     19 C           3.6489   -4.9219   19.4471 C.3     1  UNL1        0.2542
     20 O           4.5313   -4.6904   20.6379 O.3     1  UNL1       -0.4560
     21 C           0.5810    1.4804   25.0498 C.ar    1  UNL1        0.0622
     22 C          -0.1166    1.3670   26.3729 C.ar    1  UNL1        0.0154
     23 C          -1.3573    2.1674   26.6376 C.ar    1  UNL1        0.0013
     24 C          -1.9005    3.0811   25.5792 C.ar    1  UNL1        0.0001
     25 C          -1.2030    3.1944   24.2561 C.ar    1  UNL1        0.0013
     26 C           0.0378    2.3941   23.9915 C.ar    1  UNL1        0.0154
     27 C          -3.1413    3.8814   25.8440 C.ar    1  UNL1        0.0000
     28 C          -3.1359    4.9459   26.9007 C.ar    1  UNL1        0.0007
     29 C          -4.3766    5.7463   27.1654 C.ar    1  UNL1        0.0103
     30 C          -5.6227    5.4820   26.3733 C.ar    1  UNL1        0.0684
     31 C          -5.6281    4.4174   25.3166 C.ar    1  UNL1        0.0103
     32 C          -4.3875    3.6171   25.0519 C.ar    1  UNL1        0.0007
     33 C          -6.8634    6.2823   26.6381 C.1     1  UNL1        0.1004
     34 N          -8.1042    7.0826   26.9028 N.1     1  UNL1       -0.1908
     35 C           7.4885   -2.4324   27.0467 C.3     1  UNL1        0.1183
     36 C           7.3140   -3.3244   28.2399 C.ar    1  UNL1        0.0712
     37 N           7.3675   -2.7460   29.6229 N.ar    1  UNL1       -0.2471
     38 C           7.1930   -3.6381   30.8162 C.ar    1  UNL1        0.0985
     39 C           6.9651   -5.1085   30.6265 C.ar    1  UNL1        0.0203
     40 C           6.9117   -5.6869   29.2435 C.ar    1  UNL1       -0.0015
     41 C           7.0861   -4.7949   28.0502 C.ar    1  UNL1       -0.0069
     42 C           7.0327   -5.3733   26.6673 C.3     1  UNL1        0.0323
@<TRIPOS>BOND
     1    19    20    1
     2    20    13    1
     3    13    14   ar
     4    14    15   ar
     5    15     1    1
     6     1     2   am
     7     2     3    2
     8     2     4   am
     9     4    21    1
    10    21    22   ar
    11    22    23   ar
    12    23    24   ar
    13    24    27    1
    14    27    28   ar
    15    28    29   ar
    16    29    30   ar
    17    30    33    1
    18    33    34    3
    19    30    31   ar
    20    31    32   ar
    21    24    25   ar
    22    25    26   ar
    23     4     5   am
    24     5     6    2
    25     5     7    1
    26     7     8    1
    27     8     9    1
    28     9    10    1
    29    10    35    1
    30    35    36    1
    31    36    37   ar
    32    37    38   ar
    33    38    39   ar
    34    39    40   ar
    35    40    41   ar
    36    41    42    1
    37    10    11    1
    38    11    12    1
    39    15    16   ar
    40    16    17   ar
    41    17    18   ar
    42    18    13   ar
    43     7     1    1
    44    41    36   ar
    45    26    21   ar
    46    12     7    1
    47    32    27   ar
@<TRIPOS>MOLECULE
*****
 42 47 0 0 0
SMALL
GASTEIGER

@<TRIPOS>ATOM
      1 N           3.4614   -0.1119   30.5771 N.am    1  UNL1       -0.2222
      2 C           2.2060    0.6659   30.3139 C.2     1  UNL1        0.3219
      3 O           1.3173    1.2833   31.3527 O.2     1  UNL1       -0.2512
      4 N           1.9954    0.7177   28.8297 N.am    1  UNL1       -0.1907
      5 C           3.1205   -0.0280   28.1755 C.2     1  UNL1        0.2529
      6 O           3.3070   -0.2262   26.7004 O.2     1  UNL1       -0.2724
      7 C           4.0266   -0.5407   29.2554 C.3     1  UNL1        0.1391
      8 C           4.8347   -0.9861   30.4380 C.3     1  UNL1        0.0449
      9 C           6.0862   -1.7870   30.2324 C.3     1  UNL1        0.0746
     10 N           6.5296   -2.1425   28.8442 N.3     1  UNL1       -0.2676
     11 C           5.7214   -1.6972   27.6617 C.3     1  UNL1        0.0746
     12 C           4.4699   -0.8963   27.8673 C.3     1  UNL1        0.0449
     13 C           5.5454    0.2894   33.9305 C.ar    1  UNL1        0.2293
     14 C           4.9584    0.5862   32.5824 C.ar    1  UNL1        0.0924
     15 C           4.0484   -0.4087   31.9251 C.ar    1  UNL1        0.1453
     16 N           3.7256   -1.7005   32.6159 N.ar    1  UNL1       -0.2084
     17 C           4.3125   -1.9974   33.9638 C.ar    1  UNL1        0.2027
     18 N           5.2225   -1.0024   34.6212 N.ar    1  UNL1       -0.1892
     19 C           5.9251    2.1940   35.6562 C.3     1  UNL1        0.2542
     20 O           6.4553    1.2843   34.5879 O.3     1  UNL1       -0.4560
     21 C           0.8591    1.3961   28.1236 C.ar    1  UNL1        0.0622
     22 C          -0.5510    0.9466   28.3676 C.ar    1  UNL1        0.0154
     23 C          -1.6873    1.6251   27.6615 C.ar    1  UNL1        0.0013
     24 C          -1.4135    2.7530   26.7114 C.ar    1  UNL1        0.0001
     25 C          -0.0033    3.2026   26.4673 C.ar    1  UNL1        0.0013
     26 C           1.1329    2.5241   27.1735 C.ar    1  UNL1        0.0154
     27 C          -2.5498    3.4315   26.0053 C.ar    1  UNL1        0.0000
     28 C          -2.4997    3.6265   24.5189 C.ar    1  UNL1        0.0007
     29 C          -3.6360    4.3049   23.8128 C.ar    1  UNL1        0.0103
     30 C          -4.8223    4.7883   24.5932 C.ar    1  UNL1        0.0684
     31 C          -4.8723    4.5934   26.0796 C.ar    1  UNL1        0.0103
     32 C          -3.7361    3.9149   26.7857 C.ar    1  UNL1        0.0007
     33 C          -5.9586    5.4668   23.8871 C.1     1  UNL1        0.1004
     34 N          -7.0949    6.1452   23.1810 N.1     1  UNL1       -0.1908
     35 C           7.7811   -2.9435   28.6387 C.3     1  UNL1        0.1183
     36 C           7.7881   -4.0886   27.6698 C.ar    1  UNL1        0.0712
     37 N           8.2082   -3.8649   26.2473 N.ar    1  UNL1       -0.2471
     38 C           8.2151   -5.0101   25.2785 C.ar    1  UNL1        0.0985
     39 C           7.8020   -6.3789   25.7322 C.ar    1  UNL1        0.0203
     40 C           7.3819   -6.6025   27.1546 C.ar    1  UNL1       -0.0015
     41 C           7.3749   -5.4574   28.1235 C.ar    1  UNL1       -0.0069
     42 C           6.9548   -5.6810   29.5460 C.3     1  UNL1        0.0323
@<TRIPOS>BOND
     1    19    20    1
     2    20    13    1
     3    13    14   ar
     4    14    15   ar
     5    15     1    1
     6     1     2   am
     7     2     3    2
     8     2     4   am
     9     4    21    1
    10    21    22   ar
    11    22    23   ar
    12    23    24   ar
    13    24    27    1
    14    27    28   ar
    15    28    29   ar
    16    29    30   ar
    17    30    33    1
    18    33    34    3
    19    30    31   ar
    20    31    32   ar
    21    24    25   ar
    22    25    26   ar
    23     4     5   am
    24     5     6    2
    25     5     7    1
    26     7     8    1
    27     8     9    1
    28     9    10    1
    29    10    35    1
    30    35    36    1
    31    36    37   ar
    32    37    38   ar
    33    38    39   ar
    34    39    40   ar
    35    40    41   ar
    36    41    42    1
    37    10    11    1
    38    11    12    1
    39    15    16   ar
    40    16    17   ar
    41    17    18   ar
    42    18    13   ar
    43     7     1    1
    44    41    36   ar
    45    26    21   ar
    46    12     7    1
    47    32    27   ar
@<TRIPOS>MOLECULE
*****
 42 47 0 0 0
SMALL
GASTEIGER

@<TRIPOS>ATOM
      1 N           6.2005   -2.2472   25.9987 N.am    1  UNL1       -0.2222
      2 C           6.3715   -2.0830   27.4799 C.2     1  UNL1        0.3219
      3 O           7.5043   -2.6223   28.3019 O.2     1  UNL1       -0.2512
      4 N           5.2105   -1.2847   27.9947 N.am    1  UNL1       -0.1907
      5 C           4.3222   -0.9556   26.8318 C.2     1  UNL1        0.2529
      6 O           3.0460   -0.1696   26.8918 O.2     1  UNL1       -0.2724
      7 C           4.9340   -1.5505   25.5981 C.3     1  UNL1        0.1391
      8 C           5.6609   -2.1985   24.4572 C.3     1  UNL1        0.0449
      9 C           5.1040   -2.1118   23.0672 C.3     1  UNL1        0.0746
     10 N           3.8202   -1.3771   22.8180 N.3     1  UNL1       -0.2676
     11 C           3.0933   -0.7291   23.9588 C.3     1  UNL1        0.0746
     12 C           3.6502   -0.8158   25.3489 C.3     1  UNL1        0.0449
     13 C           7.9211   -5.1932   23.9712 C.ar    1  UNL1        0.2293
     14 C           6.9891   -4.4608   24.8904 C.ar    1  UNL1        0.0924
     15 C           7.1325   -2.9797   25.0795 C.ar    1  UNL1        0.1453
     16 N           8.2079   -2.2310   24.3494 N.ar    1  UNL1       -0.2084
     17 C           9.1399   -2.9633   23.4302 C.ar    1  UNL1        0.2027
     18 N           8.9965   -4.4445   23.2411 N.ar    1  UNL1       -0.1892
     19 C           8.1531   -7.6117   24.8913 C.3     1  UNL1        0.2542
     20 O           7.7778   -6.6743   23.7821 O.3     1  UNL1       -0.4560
     21 C           4.9787   -0.8856   29.4219 C.ar    1  UNL1        0.0622
     22 C           3.6094   -1.0081   30.0220 C.ar    1  UNL1        0.0154
     23 C           3.3776   -0.6090   31.4492 C.ar    1  UNL1        0.0013
     24 C           4.5150   -0.0874   32.2764 C.ar    1  UNL1        0.0001
     25 C           5.8843    0.0352   31.6763 C.ar    1  UNL1        0.0013
     26 C           6.1161   -0.3639   30.2490 C.ar    1  UNL1        0.0154
     27 C           4.2832    0.3118   33.7036 C.ar    1  UNL1        0.0000
     28 C           4.9368   -0.4574   34.8131 C.ar    1  UNL1        0.0007
     29 C           4.7050   -0.0583   36.2404 C.ar    1  UNL1        0.0103
     30 C           3.8195    1.1100   36.5579 C.ar    1  UNL1        0.0684
     31 C           3.1658    1.8792   35.4484 C.ar    1  UNL1        0.0103
     32 C           3.3976    1.4801   34.0213 C.ar    1  UNL1        0.0007
     33 C           3.5876    1.5091   37.9852 C.1     1  UNL1        0.1004
     34 N           3.3558    1.9082   39.4124 N.1     1  UNL1       -0.1908
     35 C           3.2634   -1.2904   21.4278 C.3     1  UNL1        0.1183
     36 C           4.1906   -1.2530   20.2494 C.ar    1  UNL1        0.0712
     37 N           4.9317    0.0083   19.9179 N.ar    1  UNL1       -0.2471
     38 C           5.8590    0.0457   18.7394 C.ar    1  UNL1        0.0985
     39 C           6.0452   -1.1782   17.8925 C.ar    1  UNL1        0.0203
     40 C           5.3042   -2.4396   18.2240 C.ar    1  UNL1       -0.0015
     41 C           4.3769   -2.4770   19.4024 C.ar    1  UNL1       -0.0069
     42 C           3.6359   -3.7383   19.7339 C.3     1  UNL1        0.0323
@<TRIPOS>BOND
     1    19    20    1
     2    20    13    1
     3    13    14   ar
     4    14    15   ar
     5    15     1    1
     6     1     2   am
     7     2     3    2
     8     2     4   am
     9     4    21    1
    10    21    22   ar
    11    22    23   ar
    12    23    24   ar
    13    24    27    1
    14    27    28   ar
    15    28    29   ar
    16    29    30   ar
    17    30    33    1
    18    33    34    3
    19    30    31   ar
    20    31    32   ar
    21    24    25   ar
    22    25    26   ar
    23     4     5   am
    24     5     6    2
    25     5     7    1
    26     7     8    1
    27     8     9    1
    28     9    10    1
    29    10    35    1
    30    35    36    1
    31    36    37   ar
    32    37    38   ar
    33    38    39   ar
    34    39    40   ar
    35    40    41   ar
    36    41    42    1
    37    10    11    1
    38    11    12    1
    39    15    16   ar
    40    16    17   ar
    41    17    18   ar
    42    18    13   ar
    43     7     1    1
    44    41    36   ar
    45    26    21   ar
    46    12     7    1
    47    32    27   ar
