@<TRIPOS>MOLECULE
*****
 32 36 0 0 0
SMALL
GASTEIGER

@<TRIPOS>ATOM
      1 C          -8.8516  -19.1903   19.0730 C.3     1  UNL1        0.0730
      2 N          -7.8269  -19.4550   20.1360 N.3     1  UNL1       -0.2724
      3 C          -8.0666  -20.1684   21.4336 C.3     1  UNL1        0.0724
      4 C          -6.7705  -20.2070   22.1877 C.3     1  UNL1        0.0214
      5 C          -5.3627  -20.0915   22.6924 C.3     1  UNL1        0.0072
      6 C          -5.7297  -19.5176   21.3561 C.3     1  UNL1        0.0350
      7 C          -6.3827  -19.0528   20.0882 C.3     1  UNL1        0.0761
      8 C          -4.3622  -18.9954   21.0288 C.ar    1  UNL1       -0.0215
      9 C          -3.4462  -18.5499   22.1299 C.ar    1  UNL1       -0.0043
     10 C          -2.0785  -18.0277   21.8026 C.ar    1  UNL1        0.0035
     11 C          -1.6270  -17.9510   20.3742 C.ar    1  UNL1        0.0714
     12 C          -2.5432  -18.3965   19.2731 C.ar    1  UNL1        0.0035
     13 C          -3.9107  -18.9187   19.6004 C.ar    1  UNL1       -0.0043
     14 C          -0.2595  -17.4288   20.0469 C.3     1  UNL1        0.4186
     15 F           1.1080  -16.9066   19.7196 F       1  UNL1       -0.1659
     16 F           0.1367  -18.7840   19.5405 F       1  UNL1       -0.1659
     17 F          -0.6558  -16.0737   20.5534 F       1  UNL1       -0.1659
     18 C         -10.3117  -19.2160   19.4158 C.3     1  UNL1        0.0294
     19 C         -10.9775  -17.9842   19.9537 C.3     1  UNL1        0.0666
     20 S         -10.9638  -17.7073   21.4279 S.3     1  UNL1       -0.0756
     21 C          -8.2349  -16.0250   23.6160 C.ar    1  UNL1        0.2029
     22 N          -8.0164  -15.3375   22.3008 N.ar    1  UNL1       -0.1250
     23 N          -9.0121  -15.8840   21.3211 N.ar    1  UNL1       -0.1220
     24 C          -9.8459  -16.9092   22.0308 C.ar    1  UNL1        0.1933
     25 N          -9.3655  -16.9963   23.4491 N.ar    1  UNL1       -0.2860
     26 C          -9.9187  -17.8968   24.5136 C.3     1  UNL1        0.1341
     27 C          -5.0010  -15.6458   23.8350 C.3     1  UNL1        0.0556
     28 C          -5.9724  -15.6091   24.9774 C.ar    1  UNL1        0.1001
     29 N          -5.6279  -15.3917   26.4210 N.ar    1  UNL1       -0.2085
     30 C          -6.9015  -15.4316   27.2125 C.ar    1  UNL1        0.2849
     31 O          -8.0330  -15.6737   26.2582 O.2     1  UNL1       -0.4283
     32 C          -7.4588  -15.7834   24.8768 C.ar    1  UNL1        0.1964
@<TRIPOS>BOND
     1    27    28    1
     2    28    29   ar
     3    29    30   ar
     4    30    31   ar
     5    31    32   ar
     6    32    21    1
     7    21    22   ar
     8    22    23   ar
     9    23    24   ar
    10    24    20    1
    11    20    19    1
    12    19    18    1
    13    18     1    1
    14     1     2    1
    15     2     3    1
    16     3     4    1
    17     4     5    1
    18     5     6    1
    19     6     8    1
    20     8     9   ar
    21     9    10   ar
    22    10    11   ar
    23    11    14    1
    24    14    15    1
    25    14    16    1
    26    14    17    1
    27    11    12   ar
    28    12    13   ar
    29     6     7    1
    30    24    25   ar
    31    25    26    1
    32    32    28   ar
    33    25    21   ar
    34     7     2    1
    35     6     4    1
    36    13     8   ar
@<TRIPOS>MOLECULE
*****
 32 36 0 0 0
SMALL
GASTEIGER

@<TRIPOS>ATOM
      1 C          -9.2679  -19.2003   19.7330 C.3     1  UNL1        0.0730
      2 N          -9.9762  -19.0167   21.0425 N.3     1  UNL1       -0.2724
      3 C         -11.3260  -19.5649   21.3993 C.3     1  UNL1        0.0724
      4 C         -11.6430  -19.1397   22.8024 C.3     1  UNL1        0.0214
      5 C         -11.6794  -18.5751   24.1916 C.3     1  UNL1        0.0072
      6 C         -10.4891  -18.3286   23.3128 C.3     1  UNL1        0.0350
      7 C          -9.4589  -18.2526   22.2251 C.3     1  UNL1        0.0761
      8 C          -9.7229  -17.5130   24.3117 C.ar    1  UNL1       -0.0215
      9 C          -9.1153  -16.2039   23.9029 C.ar    1  UNL1       -0.0043
     10 C          -8.3491  -15.3883   24.9018 C.ar    1  UNL1        0.0035
     11 C          -8.1906  -15.8817   26.3095 C.ar    1  UNL1        0.0714
     12 C          -8.7983  -17.1908   26.7182 C.ar    1  UNL1        0.0035
     13 C          -9.5645  -18.0064   25.7193 C.ar    1  UNL1       -0.0043
     14 C          -7.4245  -15.0661   27.3084 C.3     1  UNL1        0.4186
     15 F          -6.6584  -14.2505   28.3072 F       1  UNL1       -0.1659
     16 F          -6.1351  -15.5706   26.7314 F       1  UNL1       -0.1659
     17 F          -8.7139  -14.5615   27.8853 F       1  UNL1       -0.1659
     18 C          -7.7987  -19.5017   19.7108 C.3     1  UNL1        0.0294
     19 C          -7.2316  -20.5378   20.6354 C.3     1  UNL1        0.0666
     20 S          -6.5422  -20.1179   21.8998 S.3     1  UNL1       -0.0756
     21 C          -3.1600  -18.3471   21.2002 C.ar    1  UNL1        0.2029
     22 N          -3.7312  -17.4675   22.2726 N.ar    1  UNL1       -0.1250
     23 N          -5.0677  -18.0238   22.6652 N.ar    1  UNL1       -0.1220
     24 C          -5.3225  -19.2472   21.8355 C.ar    1  UNL1        0.1933
     25 N          -4.1434  -19.4469   20.9301 N.ar    1  UNL1       -0.2860
     26 C          -3.9770  -20.5526   19.9301 C.3     1  UNL1        0.1341
     27 C          -2.7067  -17.2173   18.1724 C.3     1  UNL1        0.0556
     28 C          -1.6290  -17.6404   19.1262 C.ar    1  UNL1        0.1001
     29 N          -0.1538  -17.6184   18.8556 N.ar    1  UNL1       -0.2085
     30 C           0.5496  -18.1241   20.0801 C.ar    1  UNL1        0.2849
     31 O          -0.4908  -18.4586   21.1074 O.2     1  UNL1       -0.4283
     32 C          -1.8373  -18.1597   20.5178 C.ar    1  UNL1        0.1964
@<TRIPOS>BOND
     1    27    28    1
     2    28    29   ar
     3    29    30   ar
     4    30    31   ar
     5    31    32   ar
     6    32    21    1
     7    21    22   ar
     8    22    23   ar
     9    23    24   ar
    10    24    20    1
    11    20    19    1
    12    19    18    1
    13    18     1    1
    14     1     2    1
    15     2     3    1
    16     3     4    1
    17     4     5    1
    18     5     6    1
    19     6     8    1
    20     8     9   ar
    21     9    10   ar
    22    10    11   ar
    23    11    14    1
    24    14    15    1
    25    14    16    1
    26    14    17    1
    27    11    12   ar
    28    12    13   ar
    29     6     7    1
    30    24    25   ar
    31    25    26    1
    32    32    28   ar
    33    25    21   ar
    34     7     2    1
    35     6     4    1
    36    13     8   ar
@<TRIPOS>MOLECULE
*****
 32 36 0 0 0
SMALL
GASTEIGER

@<TRIPOS>ATOM
      1 C         -11.5690  -19.1647   22.6582 C.3     1  UNL1        0.0730
      2 N         -10.5840  -19.3683   21.5455 N.3     1  UNL1       -0.2724
      3 C         -10.9198  -19.6610   20.1131 C.3     1  UNL1        0.0724
      4 C          -9.6335  -19.7886   19.3521 C.3     1  UNL1        0.0214
      5 C          -8.2150  -19.8580   18.8695 C.3     1  UNL1        0.0072
      6 C          -8.5027  -19.5747   20.3141 C.3     1  UNL1        0.0350
      7 C          -9.0901  -19.3150   21.6696 C.3     1  UNL1        0.0761
      8 C          -7.0689  -19.4622   20.7403 C.ar    1  UNL1       -0.0215
      9 C          -6.7150  -18.7148   21.9917 C.ar    1  UNL1       -0.0043
     10 C          -5.2812  -18.6022   22.4180 C.ar    1  UNL1        0.0035
     11 C          -4.2014  -19.2371   21.5928 C.ar    1  UNL1        0.0714
     12 C          -4.5553  -19.9845   20.3413 C.ar    1  UNL1        0.0035
     13 C          -5.9891  -20.0970   19.9151 C.ar    1  UNL1       -0.0043
     14 C          -2.7676  -19.1245   22.0190 C.3     1  UNL1        0.4186
     15 F          -1.3339  -19.0120   22.4452 F       1  UNL1       -0.1659
     16 F          -2.3607  -20.0203   20.8868 F       1  UNL1       -0.1659
     17 F          -3.1745  -18.2287   23.1512 F       1  UNL1       -0.1659
     18 C         -12.6129  -18.0931   22.5491 C.3     1  UNL1        0.0294
     19 C         -12.2019  -16.6586   22.3959 C.3     1  UNL1        0.0666
     20 S         -11.1071  -16.2902   21.4390 S.3     1  UNL1       -0.0756
     21 C          -7.8701  -15.4980   23.4288 C.ar    1  UNL1        0.2029
     22 N          -7.5512  -14.8812   22.0992 N.ar    1  UNL1       -0.1250
     23 N          -8.7250  -15.1029   21.1920 N.ar    1  UNL1       -0.1220
     24 C          -9.7693  -15.8567   21.9609 C.ar    1  UNL1        0.1933
     25 N          -9.2409  -16.1008   23.3433 N.ar    1  UNL1       -0.2860
     26 C          -9.9576  -16.8214   24.4466 C.3     1  UNL1        0.1341
     27 C          -4.6110  -15.3334   23.3979 C.3     1  UNL1        0.0556
     28 C          -5.4772  -15.4341   24.6184 C.ar    1  UNL1        0.1001
     29 N          -4.9974  -15.4769   26.0389 N.ar    1  UNL1       -0.2085
     30 C          -6.1989  -15.5790   26.9311 C.ar    1  UNL1        0.2849
     31 O          -7.4212  -15.5993   26.0620 O.2     1  UNL1       -0.4283
     32 C          -6.9752  -15.5098   24.6326 C.ar    1  UNL1        0.1964
@<TRIPOS>BOND
     1    27    28    1
     2    28    29   ar
     3    29    30   ar
     4    30    31   ar
     5    31    32   ar
     6    32    21    1
     7    21    22   ar
     8    22    23   ar
     9    23    24   ar
    10    24    20    1
    11    20    19    1
    12    19    18    1
    13    18     1    1
    14     1     2    1
    15     2     3    1
    16     3     4    1
    17     4     5    1
    18     5     6    1
    19     6     8    1
    20     8     9   ar
    21     9    10   ar
    22    10    11   ar
    23    11    14    1
    24    14    15    1
    25    14    16    1
    26    14    17    1
    27    11    12   ar
    28    12    13   ar
    29     6     7    1
    30    24    25   ar
    31    25    26    1
    32    32    28   ar
    33    25    21   ar
    34     7     2    1
    35     6     4    1
    36    13     8   ar
@<TRIPOS>MOLECULE
*****
 32 36 0 0 0
SMALL
GASTEIGER

@<TRIPOS>ATOM
      1 C         -11.8623  -17.8367   20.9473 C.3     1  UNL1        0.0730
      2 N         -11.3180  -18.3749   22.2373 N.3     1  UNL1       -0.2724
      3 C         -11.4768  -19.7777   22.7442 C.3     1  UNL1        0.0724
      4 C         -10.7763  -19.8746   24.0671 C.3     1  UNL1        0.0214
      5 C         -10.0090  -19.6692   25.3395 C.3     1  UNL1        0.0072
      6 C         -10.1846  -18.5317   24.3777 C.3     1  UNL1        0.0350
      7 C         -10.5194  -17.6049   23.2468 C.3     1  UNL1        0.0761
      8 C          -9.4226  -17.5238   25.1861 C.ar    1  UNL1       -0.0215
      9 C          -9.2755  -17.7072   26.6676 C.ar    1  UNL1       -0.0043
     10 C          -8.5135  -16.6993   27.4761 C.ar    1  UNL1        0.0035
     11 C          -7.8987  -15.5080   26.8031 C.ar    1  UNL1        0.0714
     12 C          -8.0459  -15.3246   25.3216 C.ar    1  UNL1        0.0035
     13 C          -8.8078  -16.3325   24.5131 C.ar    1  UNL1       -0.0043
     14 C          -7.1368  -14.5001   27.6115 C.3     1  UNL1        0.4186
     15 F          -6.3749  -13.4922   28.4200 F       1  UNL1       -0.1659
     16 F          -8.4037  -14.1016   28.3088 F       1  UNL1       -0.1659
     17 F          -5.8699  -14.8986   26.9143 F       1  UNL1       -0.1659
     18 C         -10.9793  -17.7527   19.7377 C.3     1  UNL1        0.0294
     19 C         -10.3788  -18.9996   19.1594 C.3     1  UNL1        0.0666
     20 S          -9.4406  -19.8317   19.9826 S.3     1  UNL1       -0.0756
     21 C          -5.8361  -18.8982   21.0785 C.ar    1  UNL1        0.2029
     22 N          -6.6067  -17.7111   21.5754 N.ar    1  UNL1       -0.1250
     23 N          -8.0507  -17.9163   21.2254 N.ar    1  UNL1       -0.1220
     24 C          -8.1726  -19.2302   20.5121 C.ar    1  UNL1        0.1933
     25 N          -6.8038  -19.8370   20.4213 N.ar    1  UNL1       -0.2860
     26 C          -6.4628  -21.1519   19.7850 C.3     1  UNL1        0.1341
     27 C          -3.9696  -17.8605   23.5461 C.3     1  UNL1        0.0556
     28 C          -3.4994  -18.6323   22.3490 C.ar    1  UNL1        0.1001
     29 N          -2.0886  -19.0627   22.0760 N.ar    1  UNL1       -0.2085
     30 C          -2.0746  -19.8057   20.7730 C.ar    1  UNL1        0.2849
     31 O          -3.4767  -19.8345   20.2407 O.2     1  UNL1       -0.4283
     32 C          -4.3572  -19.1093   21.2148 C.ar    1  UNL1        0.1964
@<TRIPOS>BOND
     1    27    28    1
     2    28    29   ar
     3    29    30   ar
     4    30    31   ar
     5    31    32   ar
     6    32    21    1
     7    21    22   ar
     8    22    23   ar
     9    23    24   ar
    10    24    20    1
    11    20    19    1
    12    19    18    1
    13    18     1    1
    14     1     2    1
    15     2     3    1
    16     3     4    1
    17     4     5    1
    18     5     6    1
    19     6     8    1
    20     8     9   ar
    21     9    10   ar
    22    10    11   ar
    23    11    14    1
    24    14    15    1
    25    14    16    1
    26    14    17    1
    27    11    12   ar
    28    12    13   ar
    29     6     7    1
    30    24    25   ar
    31    25    26    1
    32    32    28   ar
    33    25    21   ar
    34     7     2    1
    35     6     4    1
    36    13     8   ar
@<TRIPOS>MOLECULE
*****
 32 36 0 0 0
SMALL
GASTEIGER

@<TRIPOS>ATOM
      1 C         -12.2358  -17.1937   20.9543 C.3     1  UNL1        0.0730
      2 N         -11.7341  -17.6117   22.3047 N.3     1  UNL1       -0.2724
      3 C         -12.3431  -18.6625   23.1850 C.3     1  UNL1        0.0724
      4 C         -11.5207  -18.7526   24.4362 C.3     1  UNL1        0.0214
      5 C         -10.5276  -18.6171   25.5521 C.3     1  UNL1        0.0072
      6 C         -10.4034  -17.7575   24.3292 C.3     1  UNL1        0.0350
      7 C         -10.5353  -17.0524   23.0118 C.3     1  UNL1        0.0761
      8 C          -9.1787  -17.0184   24.7807 C.ar    1  UNL1       -0.0215
      9 C          -8.8619  -16.9147   26.2431 C.ar    1  UNL1       -0.0043
     10 C          -7.6371  -16.1756   26.6947 C.ar    1  UNL1        0.0035
     11 C          -6.7292  -15.5403   25.6836 C.ar    1  UNL1        0.0714
     12 C          -7.0460  -15.6442   24.2211 C.ar    1  UNL1        0.0035
     13 C          -8.2708  -16.3832   23.7696 C.ar    1  UNL1       -0.0043
     14 C          -5.5044  -14.8013   26.1351 C.3     1  UNL1        0.4186
     15 F          -4.2797  -14.0623   26.5866 F       1  UNL1       -0.1659
     16 F          -4.8487  -15.0818   24.8155 F       1  UNL1       -0.1659
     17 F          -6.1601  -14.5208   27.4547 F       1  UNL1       -0.1659
     18 C         -11.4792  -17.5838   19.7193 C.3     1  UNL1        0.0294
     19 C         -11.2061  -19.0306   19.4327 C.3     1  UNL1        0.0666
     20 S         -10.2053  -19.7829   20.2589 S.3     1  UNL1       -0.0756
     21 C          -6.4319  -19.0337   20.7736 C.ar    1  UNL1        0.2029
     22 N          -6.5823  -18.7686   19.3049 N.ar    1  UNL1       -0.1250
     23 N          -8.0141  -19.0170   18.9334 N.ar    1  UNL1       -0.1220
     24 C          -8.7487  -19.4356   20.1724 C.ar    1  UNL1        0.1933
     25 N          -7.7707  -19.4459   21.3097 N.ar    1  UNL1       -0.2860
     26 C          -8.0779  -19.8053   22.7333 C.3     1  UNL1        0.1341
     27 C          -3.6476  -20.6389   20.2074 C.3     1  UNL1        0.0556
     28 C          -3.8852  -19.6463   21.3067 C.ar    1  UNL1        0.1001
     29 N          -2.8847  -19.2173   22.3386 N.ar    1  UNL1       -0.2085
     30 C          -3.5462  -18.2144   23.2367 C.ar    1  UNL1        0.2849
     31 O          -4.9554  -18.0235   22.7598 O.2     1  UNL1       -0.4283
     32 C          -5.1649  -18.9085   21.5669 C.ar    1  UNL1        0.1964
@<TRIPOS>BOND
     1    27    28    1
     2    28    29   ar
     3    29    30   ar
     4    30    31   ar
     5    31    32   ar
     6    32    21    1
     7    21    22   ar
     8    22    23   ar
     9    23    24   ar
    10    24    20    1
    11    20    19    1
    12    19    18    1
    13    18     1    1
    14     1     2    1
    15     2     3    1
    16     3     4    1
    17     4     5    1
    18     5     6    1
    19     6     8    1
    20     8     9   ar
    21     9    10   ar
    22    10    11   ar
    23    11    14    1
    24    14    15    1
    25    14    16    1
    26    14    17    1
    27    11    12   ar
    28    12    13   ar
    29     6     7    1
    30    24    25   ar
    31    25    26    1
    32    32    28   ar
    33    25    21   ar
    34     7     2    1
    35     6     4    1
    36    13     8   ar
@<TRIPOS>MOLECULE
*****
 32 36 0 0 0
SMALL
GASTEIGER

@<TRIPOS>ATOM
      1 C           7.7286   -8.5080   27.0982 C.3     1  UNL1        0.0730
      2 N           7.5848   -9.9258   27.5661 N.3     1  UNL1       -0.2724
      3 C           8.7027  -10.8331   27.9870 C.3     1  UNL1        0.0724
      4 C           8.1066  -12.1533   28.3764 C.3     1  UNL1        0.0214
      5 C           7.2389  -13.3356   28.6916 C.3     1  UNL1        0.0072
      6 C           6.6203  -12.0621   28.1962 C.3     1  UNL1        0.0350
      7 C           6.2978  -10.6854   27.6954 C.3     1  UNL1        0.0761
      8 C           5.2039  -12.5554   28.2218 C.ar    1  UNL1       -0.0215
      9 C           4.2995  -12.1799   29.3581 C.ar    1  UNL1       -0.0043
     10 C           2.8831  -12.6732   29.3838 C.ar    1  UNL1        0.0035
     11 C           2.3712  -13.5420   28.2732 C.ar    1  UNL1        0.0714
     12 C           3.2758  -13.9174   27.1370 C.ar    1  UNL1        0.0035
     13 C           4.6921  -13.4241   27.1113 C.ar    1  UNL1       -0.0043
     14 C           0.9549  -14.0353   28.2989 C.3     1  UNL1        0.4186
     15 F          -0.4614  -14.5286   28.3246 F       1  UNL1       -0.1659
     16 F           1.4282  -15.4128   27.9409 F       1  UNL1       -0.1659
     17 F           0.4816  -12.6577   28.6570 F       1  UNL1       -0.1659
     18 C           8.8675   -7.6666   27.5932 C.3     1  UNL1        0.0294
     19 C           8.7275   -6.1743   27.6515 C.3     1  UNL1        0.0666
     20 S           7.4127   -5.5585   28.0285 S.3     1  UNL1       -0.0756
     21 C           6.4983   -4.0174   31.4714 C.ar    1  UNL1        0.2029
     22 N           6.8576   -5.4189   31.8674 N.ar    1  UNL1       -0.1250
     23 N           7.2439   -6.1667   30.6259 N.ar    1  UNL1       -0.1220
     24 C           7.1233   -5.2275   29.4626 C.ar    1  UNL1        0.1933
     25 N           6.6625   -3.8992   29.9852 N.ar    1  UNL1       -0.2860
     26 C           6.4102   -2.6686   29.1654 C.3     1  UNL1        0.1341
     27 C           8.2892   -1.4618   32.4261 C.3     1  UNL1        0.0556
     28 C           6.8761   -1.7513   32.8377 C.ar    1  UNL1        0.1001
     29 N           6.0382   -0.9168   33.7605 N.ar    1  UNL1       -0.2085
     30 C           4.6971   -1.5757   33.8920 C.ar    1  UNL1        0.2849
     31 O           4.7062   -2.8174   33.0505 O.2     1  UNL1       -0.4283
     32 C           6.0530   -2.9259   32.3990 C.ar    1  UNL1        0.1964
@<TRIPOS>BOND
     1    27    28    1
     2    28    29   ar
     3    29    30   ar
     4    30    31   ar
     5    31    32   ar
     6    32    21    1
     7    21    22   ar
     8    22    23   ar
     9    23    24   ar
    10    24    20    1
    11    20    19    1
    12    19    18    1
    13    18     1    1
    14     1     2    1
    15     2     3    1
    16     3     4    1
    17     4     5    1
    18     5     6    1
    19     6     8    1
    20     8     9   ar
    21     9    10   ar
    22    10    11   ar
    23    11    14    1
    24    14    15    1
    25    14    16    1
    26    14    17    1
    27    11    12   ar
    28    12    13   ar
    29     6     7    1
    30    24    25   ar
    31    25    26    1
    32    32    28   ar
    33    25    21   ar
    34     7     2    1
    35     6     4    1
    36    13     8   ar
@<TRIPOS>MOLECULE
*****
 32 36 0 0 0
SMALL
GASTEIGER

@<TRIPOS>ATOM
      1 C           1.2082    1.9361   24.7098 C.3     1  UNL1        0.0730
      2 N           2.2419    0.8570   24.8398 N.3     1  UNL1       -0.2724
      3 C           3.0496    0.5529   26.0666 C.3     1  UNL1        0.0724
      4 C           3.9563   -0.5996   25.7508 C.3     1  UNL1        0.0214
      5 C           4.7278   -1.7382   25.1523 C.3     1  UNL1        0.0072
      6 C           3.7090   -1.0078   24.3287 C.3     1  UNL1        0.0350
      7 C           2.6494   -0.1076   23.7657 C.3     1  UNL1        0.0761
      8 C           3.9034   -1.8196   23.0825 C.ar    1  UNL1       -0.0215
      9 C           4.6415   -3.1240   23.1447 C.ar    1  UNL1       -0.0043
     10 C           4.8360   -3.9358   21.8984 C.ar    1  UNL1        0.0035
     11 C           4.2924   -3.4433   20.5900 C.ar    1  UNL1        0.0714
     12 C           3.5543   -2.1388   20.5279 C.ar    1  UNL1        0.0035
     13 C           3.3599   -1.3270   21.7741 C.ar    1  UNL1       -0.0043
     14 C           4.4869   -4.2551   19.3438 C.3     1  UNL1        0.4186
     15 F           4.6814   -5.0669   18.0975 F       1  UNL1       -0.1659
     16 F           5.9703   -4.0578   19.4467 F       1  UNL1       -0.1659
     17 F           3.0035   -4.4524   19.2408 F       1  UNL1       -0.1659
     18 C          -0.2210    1.6524   25.0660 C.3     1  UNL1        0.0294
     19 C          -1.0636    2.7220   25.6955 C.3     1  UNL1        0.0666
     20 S          -1.4588    2.6133   27.1384 S.3     1  UNL1       -0.0756
     21 C           0.8441    0.5175   29.4557 C.ar    1  UNL1        0.2029
     22 N          -0.3447   -0.3888   29.3318 N.ar    1  UNL1       -0.1250
     23 N          -1.3520    0.2859   28.4487 N.ar    1  UNL1       -0.1220
     24 C          -0.7859    1.6093   28.0268 C.ar    1  UNL1        0.1933
     25 N           0.5714    1.7524   28.6491 N.ar    1  UNL1       -0.2860
     26 C           1.4940    2.9247   28.4924 C.3     1  UNL1        0.1341
     27 C           1.6569    1.8943   32.3006 C.3     1  UNL1        0.0556
     28 C           2.4609    0.8708   31.5548 C.ar    1  UNL1        0.1001
     29 N           3.7796    0.3005   31.9857 N.ar    1  UNL1       -0.2085
     30 C           4.2209   -0.6848   30.9444 C.ar    1  UNL1        0.2849
     31 O           3.1751   -0.7234   29.8700 O.2     1  UNL1       -0.4283
     32 C           2.0873    0.2380   30.2472 C.ar    1  UNL1        0.1964
@<TRIPOS>BOND
     1    27    28    1
     2    28    29   ar
     3    29    30   ar
     4    30    31   ar
     5    31    32   ar
     6    32    21    1
     7    21    22   ar
     8    22    23   ar
     9    23    24   ar
    10    24    20    1
    11    20    19    1
    12    19    18    1
    13    18     1    1
    14     1     2    1
    15     2     3    1
    16     3     4    1
    17     4     5    1
    18     5     6    1
    19     6     8    1
    20     8     9   ar
    21     9    10   ar
    22    10    11   ar
    23    11    14    1
    24    14    15    1
    25    14    16    1
    26    14    17    1
    27    11    12   ar
    28    12    13   ar
    29     6     7    1
    30    24    25   ar
    31    25    26    1
    32    32    28   ar
    33    25    21   ar
    34     7     2    1
    35     6     4    1
    36    13     8   ar
@<TRIPOS>MOLECULE
*****
 32 36 0 0 0
SMALL
GASTEIGER

@<TRIPOS>ATOM
      1 C           3.9407   -0.0700   26.8862 C.3     1  UNL1        0.0730
      2 N           3.3416    0.1317   25.5259 N.3     1  UNL1       -0.2724
      3 C           2.4224    1.2467   25.1239 C.3     1  UNL1        0.0724
      4 C           2.0692    1.0580   23.6783 C.3     1  UNL1        0.0214
      5 C           1.9009    0.6168   22.2546 C.3     1  UNL1        0.0072
      6 C           2.7702   -0.1737   23.1869 C.3     1  UNL1        0.0350
      7 C           3.5566   -0.7462   24.3288 C.3     1  UNL1        0.0761
      8 C           3.1670   -1.2169   22.1847 C.ar    1  UNL1       -0.0215
      9 C           4.0555   -2.3530   22.5966 C.ar    1  UNL1       -0.0043
     10 C           4.4523   -3.3963   21.5944 C.ar    1  UNL1        0.0035
     11 C           3.9605   -3.3033   20.1804 C.ar    1  UNL1        0.0714
     12 C           3.0719   -2.1671   19.7685 C.ar    1  UNL1        0.0035
     13 C           2.6752   -1.1239   20.7707 C.ar    1  UNL1       -0.0043
     14 C           4.3572   -4.3465   19.1782 C.3     1  UNL1        0.4186
     15 F           4.7540   -5.3896   18.1760 F       1  UNL1       -0.1659
     16 F           5.8012   -3.9991   19.3883 F       1  UNL1       -0.1659
     17 F           2.9132   -4.6938   18.9681 F       1  UNL1       -0.1659
     18 C           3.3085   -1.0306   27.8492 C.3     1  UNL1        0.0294
     19 C           3.4930   -0.8428   29.3259 C.3     1  UNL1        0.0666
     20 S           2.3961   -0.2325   30.1472 S.3     1  UNL1       -0.0756
     21 C          -0.0277    2.1739   28.3034 C.ar    1  UNL1        0.2029
     22 N          -0.9265    1.0020   28.5656 N.ar    1  UNL1       -0.1250
     23 N          -0.1280   -0.0421   29.2881 N.ar    1  UNL1       -0.1220
     24 C           1.2644    0.4846   29.4726 C.ar    1  UNL1        0.1933
     25 N           1.3263    1.8541   28.8640 N.ar    1  UNL1       -0.2860
     26 C           2.5309    2.7471   28.8232 C.3     1  UNL1        0.1341
     27 C          -1.0614    2.4244   25.2182 C.3     1  UNL1        0.0556
     28 C          -0.8901    3.5580   26.1856 C.ar    1  UNL1        0.1001
     29 N          -1.1639    5.0058   25.9045 N.ar    1  UNL1       -0.2085
     30 C          -0.8580    5.7854   27.1489 C.ar    1  UNL1        0.2849
     31 O          -0.3952    4.8195   28.1990 O.2     1  UNL1       -0.4283
     32 C          -0.4150    3.4429   27.6036 C.ar    1  UNL1        0.1964
@<TRIPOS>BOND
     1    27    28    1
     2    28    29   ar
     3    29    30   ar
     4    30    31   ar
     5    31    32   ar
     6    32    21    1
     7    21    22   ar
     8    22    23   ar
     9    23    24   ar
    10    24    20    1
    11    20    19    1
    12    19    18    1
    13    18     1    1
    14     1     2    1
    15     2     3    1
    16     3     4    1
    17     4     5    1
    18     5     6    1
    19     6     8    1
    20     8     9   ar
    21     9    10   ar
    22    10    11   ar
    23    11    14    1
    24    14    15    1
    25    14    16    1
    26    14    17    1
    27    11    12   ar
    28    12    13   ar
    29     6     7    1
    30    24    25   ar
    31    25    26    1
    32    32    28   ar
    33    25    21   ar
    34     7     2    1
    35     6     4    1
    36    13     8   ar
@<TRIPOS>MOLECULE
*****
 32 36 0 0 0
SMALL
GASTEIGER

@<TRIPOS>ATOM
      1 C           0.3659    2.9993   22.2498 C.3     1  UNL1        0.0730
      2 N           1.2072    1.9245   22.8718 N.3     1  UNL1       -0.2724
      3 C           1.5911    1.8319   24.3189 C.3     1  UNL1        0.0724
      4 C           2.4335    0.6037   24.4974 C.3     1  UNL1        0.0214
      5 C           3.2305   -0.6604   24.3677 C.3     1  UNL1        0.0072
      6 C           2.5703   -0.0628   23.1606 C.3     1  UNL1        0.0350
      7 C           1.8125    0.7535   22.1559 C.3     1  UNL1        0.0761
      8 C           3.0375   -1.1088   22.1924 C.ar    1  UNL1       -0.0215
      9 C           2.5043   -1.1248   20.7904 C.ar    1  UNL1       -0.0043
     10 C           2.9715   -2.1709   19.8221 C.ar    1  UNL1        0.0035
     11 C           3.9719   -3.2010   20.2558 C.ar    1  UNL1        0.0714
     12 C           4.5052   -3.1850   21.6578 C.ar    1  UNL1        0.0035
     13 C           4.0380   -2.1389   22.6261 C.ar    1  UNL1       -0.0043
     14 C           4.4391   -4.2470   19.2876 C.3     1  UNL1        0.4186
     15 F           4.9063   -5.2931   18.3194 F       1  UNL1       -0.1659
     16 F           5.8640   -3.9325   19.6353 F       1  UNL1       -0.1659
     17 F           3.0143   -4.5615   18.9399 F       1  UNL1       -0.1659
     18 C          -0.6642    2.6433   21.2192 C.3     1  UNL1        0.0294
     19 C          -0.4076    2.9350   19.7704 C.3     1  UNL1        0.0666
     20 S           0.9375    3.4339   19.3326 S.3     1  UNL1       -0.0756
     21 C           4.0609    1.4851   18.1030 C.ar    1  UNL1        0.2029
     22 N           2.9675    0.5065   17.7917 N.ar    1  UNL1       -0.1250
     23 N           1.6645    1.1174   18.2144 N.ar    1  UNL1       -0.1220
     24 C           1.9524    2.4736   18.7869 C.ar    1  UNL1        0.1933
     25 N           3.4335    2.7008   18.7181 N.ar    1  UNL1       -0.2860
     26 C           4.1597    3.9283   19.1828 C.3     1  UNL1        0.1341
     27 C           6.1543   -0.0859   20.0522 C.3     1  UNL1        0.0556
     28 C           6.4868    0.5613   18.7404 C.ar    1  UNL1        0.1001
     29 N           7.8400    0.6000   18.0944 N.ar    1  UNL1       -0.2085
     30 C           7.7141    1.3460   16.7992 C.ar    1  UNL1        0.2849
     31 O           6.2832    1.7683   16.6448 O.2     1  UNL1       -0.4283
     32 C           5.5247    1.2834   17.8446 C.ar    1  UNL1        0.1964
@<TRIPOS>BOND
     1    27    28    1
     2    28    29   ar
     3    29    30   ar
     4    30    31   ar
     5    31    32   ar
     6    32    21    1
     7    21    22   ar
     8    22    23   ar
     9    23    24   ar
    10    24    20    1
    11    20    19    1
    12    19    18    1
    13    18     1    1
    14     1     2    1
    15     2     3    1
    16     3     4    1
    17     4     5    1
    18     5     6    1
    19     6     8    1
    20     8     9   ar
    21     9    10   ar
    22    10    11   ar
    23    11    14    1
    24    14    15    1
    25    14    16    1
    26    14    17    1
    27    11    12   ar
    28    12    13   ar
    29     6     7    1
    30    24    25   ar
    31    25    26    1
    32    32    28   ar
    33    25    21   ar
    34     7     2    1
    35     6     4    1
    36    13     8   ar
