@<TRIPOS>MOLECULE
*****
 35 38 0 0 0
SMALL
GASTEIGER

@<TRIPOS>ATOM
      1 N           6.3282   -2.1263   22.6942 N.am    1  UNL1       -0.2438
      2 C           5.6319   -0.8433   22.3491 C.3     1  UNL1        0.1009
      3 C           4.5692   -0.8279   21.2906 C.3     1  UNL1        0.0662
      4 C           4.2029   -2.0955   20.5771 C.3     1  UNL1        0.1600
      5 O           4.8993   -3.3785   20.9221 O.3     1  UNL1       -0.4374
      6 C           5.9619   -3.3939   21.9807 C.2     1  UNL1        0.4051
      7 O           6.6582   -4.6768   22.3258 O.2     1  UNL1       -0.2262
      8 C           3.2664   -1.1371   19.9029 C.ar    1  UNL1        0.0138
      9 C           1.8438   -1.0276   20.3659 C.ar    1  UNL1       -0.0010
     10 C           0.9073   -0.0693   19.6917 C.ar    1  UNL1       -0.0002
     11 C           1.3934    0.7795   18.5545 C.ar    1  UNL1       -0.0000
     12 C           2.8159    0.6700   18.0915 C.ar    1  UNL1       -0.0002
     13 C           3.7524   -0.2883   18.7657 C.ar    1  UNL1       -0.0010
     14 C           8.8387   -2.1682   23.3617 C.3     1  UNL1        0.0265
     15 C           7.3908   -2.1417   23.7528 C.3     1  UNL1        0.1011
     16 C           7.0056   -2.1305   25.2024 C.ar    1  UNL1       -0.0042
     17 C           6.7919   -0.8261   25.9116 C.ar    1  UNL1       -0.0027
     18 C           6.4067   -0.8150   27.3613 C.ar    1  UNL1       -0.0002
     19 C           6.2351   -2.1082   28.1017 C.ar    1  UNL1        0.0014
     20 C           6.4487   -3.4125   27.3925 C.ar    1  UNL1       -0.0002
     21 C           6.8340   -3.4237   25.9428 C.ar    1  UNL1       -0.0027
     22 C           5.8498   -2.0970   29.5513 C.ar    1  UNL1        0.0175
     23 C           6.4672   -3.0822   30.4991 C.ar    1  UNL1        0.0064
     24 C           6.0819   -3.0710   31.9488 C.ar    1  UNL1        0.0608
     25 C           5.0792   -2.0746   32.4506 C.ar    1  UNL1        0.2610
     26 O           4.6939   -2.0634   33.9002 O.2     1  UNL1       -0.2670
     27 N           4.4618   -1.0894   31.5028 N.ar    1  UNL1       -0.2922
     28 C           3.4591   -0.0931   32.0047 C.3     1  UNL1        0.1336
     29 C           4.8471   -1.1007   30.0532 C.ar    1  UNL1        0.0783
     30 C           3.5113   -3.0302   19.6294 C.3     1  UNL1        0.0714
     31 C           4.2432   -4.2191   19.0808 C.3     1  UNL1        0.0922
     32 C           3.3088   -5.1336   19.8161 C.3     1  UNL1        0.0294
     33 C           5.1775   -3.3046   18.3456 C.3     1  UNL1        0.0294
     34 O           4.9750   -5.4080   18.5322 O.3     1  UNL1       -0.3866
     35 H           4.5631   -6.2217   18.8623 H       1  UNL1        0.2102
@<TRIPOS>BOND
     1    15    14    1
     2    15    16    1
     3    16    17   ar
     4    17    18   ar
     5    18    19   ar
     6    19    22    1
     7    22    23   ar
     8    23    24   ar
     9    24    25   ar
    10    25    26    2
    11    25    27   ar
    12    27    28    1
    13    27    29   ar
    14    19    20   ar
    15    20    21   ar
    16    15     1    1
    17     1     2    1
    18     2     3    1
    19     3     4    1
    20     4    30    1
    21    30    31    1
    22    31    32    1
    23    31    33    1
    24    31    34    1
    25     4     8    1
    26     8     9   ar
    27     9    10   ar
    28    10    11   ar
    29    11    12   ar
    30    12    13   ar
    31     4     5    1
    32     5     6    1
    33     6     7    2
    34    21    16   ar
    35     6     1   am
    36    29    22   ar
    37    13     8   ar
    38    34    35    1
@<TRIPOS>MOLECULE
*****
 35 38 0 0 0
SMALL
GASTEIGER

@<TRIPOS>ATOM
      1 N           1.2069    1.5287   19.4404 N.am    1  UNL1       -0.2438
      2 C           0.9185    0.0894   19.7486 C.3     1  UNL1        0.1009
      3 C           2.0471   -0.8894   19.8837 C.3     1  UNL1        0.0662
      4 C           3.4640   -0.4289   19.7106 C.3     1  UNL1        0.1600
      5 O           3.7525    1.0105   19.4024 O.3     1  UNL1       -0.4374
      6 C           2.6240    1.9893   19.2673 C.2     1  UNL1        0.4051
      7 O           2.9124    3.4287   18.9591 O.2     1  UNL1       -0.2262
      8 C           3.6957   -1.8839   19.9928 C.ar    1  UNL1        0.0138
      9 C           3.3164   -2.9154   18.9719 C.ar    1  UNL1       -0.0010
     10 C           3.5481   -4.3703   19.2541 C.ar    1  UNL1       -0.0002
     11 C           4.1589   -4.7936   20.5570 C.ar    1  UNL1       -0.0000
     12 C           4.5382   -3.7621   21.5778 C.ar    1  UNL1       -0.0002
     13 C           4.3065   -2.3071   21.2957 C.ar    1  UNL1       -0.0010
     14 C          -0.2417    3.1031   17.9664 C.3     1  UNL1        0.0265
     15 C           0.0783    2.5075   19.3053 C.3     1  UNL1        0.1011
     16 C          -0.7302    2.8908   20.5093 C.ar    1  UNL1       -0.0042
     17 C          -0.0836    2.9419   21.8617 C.ar    1  UNL1       -0.0027
     18 C          -0.8921    3.3252   23.0656 C.ar    1  UNL1       -0.0002
     19 C          -2.3473    3.6573   22.9170 C.ar    1  UNL1        0.0014
     20 C          -2.9940    3.6062   21.5645 C.ar    1  UNL1       -0.0002
     21 C          -2.1854    3.2230   20.3607 C.ar    1  UNL1       -0.0027
     22 C          -3.1559    4.0406   24.1209 C.ar    1  UNL1        0.0175
     23 C          -2.7186    3.6044   25.4879 C.ar    1  UNL1        0.0064
     24 C          -3.5272    3.9877   26.6918 C.ar    1  UNL1        0.0608
     25 C          -4.7729    4.8072   26.5287 C.ar    1  UNL1        0.2610
     26 O          -5.5815    5.1905   27.7326 O.2     1  UNL1       -0.2670
     27 N          -5.2101    5.2434   25.1617 N.ar    1  UNL1       -0.2922
     28 C          -6.4559    6.0628   24.9986 C.3     1  UNL1        0.1336
     29 C          -4.4016    4.8601   23.9579 C.ar    1  UNL1        0.0783
     30 C           4.9615   -0.4736   19.6355 C.3     1  UNL1        0.0714
     31 C           5.6941    0.4527   18.7108 C.3     1  UNL1        0.0922
     32 C           5.0810   -0.2407   17.5304 C.3     1  UNL1        0.0294
     33 C           6.3071    1.1462   19.8912 C.3     1  UNL1        0.0294
     34 O           6.4266    1.3791   17.7860 O.3     1  UNL1       -0.3866
     35 H           6.2107    1.1559   16.8671 H       1  UNL1        0.2102
@<TRIPOS>BOND
     1    15    14    1
     2    15    16    1
     3    16    17   ar
     4    17    18   ar
     5    18    19   ar
     6    19    22    1
     7    22    23   ar
     8    23    24   ar
     9    24    25   ar
    10    25    26    2
    11    25    27   ar
    12    27    28    1
    13    27    29   ar
    14    19    20   ar
    15    20    21   ar
    16    15     1    1
    17     1     2    1
    18     2     3    1
    19     3     4    1
    20     4    30    1
    21    30    31    1
    22    31    32    1
    23    31    33    1
    24    31    34    1
    25     4     8    1
    26     8     9   ar
    27     9    10   ar
    28    10    11   ar
    29    11    12   ar
    30    12    13   ar
    31     4     5    1
    32     5     6    1
    33     6     7    2
    34    21    16   ar
    35     6     1   am
    36    29    22   ar
    37    13     8   ar
    38    34    35    1
@<TRIPOS>MOLECULE
*****
 35 38 0 0 0
SMALL
GASTEIGER

@<TRIPOS>ATOM
      1 N           2.3342    1.9320   19.4119 N.am    1  UNL1       -0.2438
      2 C           2.2187    0.6714   18.6072 C.3     1  UNL1        0.1009
      3 C           3.0369   -0.5308   18.9749 C.3     1  UNL1        0.0662
      4 C           3.9707   -0.4724   20.1474 C.3     1  UNL1        0.1600
      5 O           4.0862    0.7883   20.9522 O.3     1  UNL1       -0.4374
      6 C           3.2679    1.9904   20.5844 C.2     1  UNL1        0.4051
      7 O           3.3834    3.2510   21.3891 O.2     1  UNL1       -0.2262
      8 C           4.2081   -1.8828   19.6953 C.ar    1  UNL1        0.0138
      9 C           5.5892   -2.3251   19.3122 C.ar    1  UNL1       -0.0010
     10 C           5.8267   -3.7356   18.8602 C.ar    1  UNL1       -0.0002
     11 C           4.6829   -4.7036   18.7913 C.ar    1  UNL1       -0.0000
     12 C           3.3018   -4.2613   19.1744 C.ar    1  UNL1       -0.0002
     13 C           3.0644   -2.8509   19.6265 C.ar    1  UNL1       -0.0010
     14 C           2.0633    4.1490   18.0847 C.3     1  UNL1        0.0265
     15 C           1.5159    3.1342   19.0441 C.3     1  UNL1        0.1011
     16 C           0.1503    3.3215   19.6358 C.ar    1  UNL1       -0.0042
     17 C          -0.9821    3.7951   18.7736 C.ar    1  UNL1       -0.0027
     18 C          -2.3476    3.9824   19.3653 C.ar    1  UNL1       -0.0002
     19 C          -2.5808    3.6960   20.8191 C.ar    1  UNL1        0.0014
     20 C          -1.4485    3.2223   21.6813 C.ar    1  UNL1       -0.0002
     21 C          -0.0829    3.0350   21.0896 C.ar    1  UNL1       -0.0027
     22 C          -3.9465    3.8833   21.4108 C.ar    1  UNL1        0.0175
     23 C          -5.1310    4.0879   20.5136 C.ar    1  UNL1        0.0064
     24 C          -6.4966    4.2752   21.1052 C.ar    1  UNL1        0.0608
     25 C          -6.6777    4.2579   22.5942 C.ar    1  UNL1        0.2610
     26 O          -8.0432    4.4452   23.1859 O.2     1  UNL1       -0.2670
     27 N          -5.4931    4.0533   23.4914 N.ar    1  UNL1       -0.2922
     28 C          -5.6742    4.0359   24.9804 C.3     1  UNL1        0.1336
     29 C          -4.1275    3.8660   22.8997 C.ar    1  UNL1        0.0783
     30 C           4.9869   -0.9038   21.1629 C.3     1  UNL1        0.0714
     31 C           4.9055   -0.3909   22.5701 C.3     1  UNL1        0.0922
     32 C           6.1969    0.3470   22.3759 C.3     1  UNL1        0.0294
     33 C           3.6141   -1.1288   22.7643 C.3     1  UNL1        0.0294
     34 O           4.8241    0.1220   23.9773 O.3     1  UNL1       -0.3866
     35 H           5.5940    0.6824   24.1622 H       1  UNL1        0.2102
@<TRIPOS>BOND
     1    15    14    1
     2    15    16    1
     3    16    17   ar
     4    17    18   ar
     5    18    19   ar
     6    19    22    1
     7    22    23   ar
     8    23    24   ar
     9    24    25   ar
    10    25    26    2
    11    25    27   ar
    12    27    28    1
    13    27    29   ar
    14    19    20   ar
    15    20    21   ar
    16    15     1    1
    17     1     2    1
    18     2     3    1
    19     3     4    1
    20     4    30    1
    21    30    31    1
    22    31    32    1
    23    31    33    1
    24    31    34    1
    25     4     8    1
    26     8     9   ar
    27     9    10   ar
    28    10    11   ar
    29    11    12   ar
    30    12    13   ar
    31     4     5    1
    32     5     6    1
    33     6     7    2
    34    21    16   ar
    35     6     1   am
    36    29    22   ar
    37    13     8   ar
    38    34    35    1
@<TRIPOS>MOLECULE
*****
 35 38 0 0 0
SMALL
GASTEIGER

@<TRIPOS>ATOM
      1 N           6.5276   -1.9573   22.4745 N.am    1  UNL1       -0.2438
      2 C           5.8442   -0.6593   22.1613 C.3     1  UNL1        0.1009
      3 C           4.7050   -0.6277   21.1860 C.3     1  UNL1        0.0662
      4 C           4.2492   -1.8941   20.5239 C.3     1  UNL1        0.1600
      5 O           4.9326   -3.1922   20.8371 O.3     1  UNL1       -0.4374
      6 C           6.0718   -3.2238   21.8123 C.2     1  UNL1        0.4051
      7 O           6.7553   -4.5217   22.1255 O.2     1  UNL1       -0.2262
      8 C           3.2920   -0.9182   19.9063 C.ar    1  UNL1        0.0138
      9 C           3.7931    0.1158   18.9421 C.ar    1  UNL1       -0.0010
     10 C           2.8359    1.0918   18.3245 C.ar    1  UNL1       -0.0002
     11 C           1.3777    1.0336   18.6711 C.ar    1  UNL1       -0.0000
     12 C           0.8766   -0.0004   19.6353 C.ar    1  UNL1       -0.0002
     13 C           1.8338   -0.9764   20.2529 C.ar    1  UNL1       -0.0010
     14 C           9.0774   -2.1012   22.9520 C.3     1  UNL1        0.0265
     15 C           7.6669   -1.9889   23.4497 C.3     1  UNL1        0.1011
     16 C           7.3955   -1.9081   24.9228 C.ar    1  UNL1       -0.0042
     17 C           7.5785   -0.6084   25.6490 C.ar    1  UNL1       -0.0027
     18 C           7.3071   -0.5276   27.1220 C.ar    1  UNL1       -0.0002
     19 C           6.8528   -1.7466   27.8688 C.ar    1  UNL1        0.0014
     20 C           6.6699   -3.0463   27.1427 C.ar    1  UNL1       -0.0002
     21 C           6.9412   -3.1270   25.6697 C.ar    1  UNL1       -0.0027
     22 C           6.5815   -1.6658   29.3419 C.ar    1  UNL1        0.0175
     23 C           5.2236   -1.2601   29.8333 C.ar    1  UNL1        0.0064
     24 C           4.9522   -1.1793   31.3064 C.ar    1  UNL1        0.0608
     25 C           6.0389   -1.5042   32.2881 C.ar    1  UNL1        0.2610
     26 O           5.7676   -1.4234   33.7611 O.2     1  UNL1       -0.2670
     27 N           7.3969   -1.9099   31.7966 N.ar    1  UNL1       -0.2922
     28 C           8.4835   -2.2347   32.7783 C.3     1  UNL1        0.1336
     29 C           7.6681   -1.9906   30.3236 C.ar    1  UNL1        0.0783
     30 C           3.4609   -2.8216   19.6473 C.3     1  UNL1        0.0714
     31 C           4.1444   -3.9672   18.9614 C.3     1  UNL1        0.0922
     32 C           3.2376   -4.9311   19.6676 C.3     1  UNL1        0.0294
     33 C           5.0512   -3.0033   18.2553 C.3     1  UNL1        0.0294
     34 O           4.8279   -5.1128   18.2755 O.3     1  UNL1       -0.3866
     35 H           4.4223   -5.9473   18.5583 H       1  UNL1        0.2102
@<TRIPOS>BOND
     1    15    14    1
     2    15    16    1
     3    16    17   ar
     4    17    18   ar
     5    18    19   ar
     6    19    22    1
     7    22    23   ar
     8    23    24   ar
     9    24    25   ar
    10    25    26    2
    11    25    27   ar
    12    27    28    1
    13    27    29   ar
    14    19    20   ar
    15    20    21   ar
    16    15     1    1
    17     1     2    1
    18     2     3    1
    19     3     4    1
    20     4    30    1
    21    30    31    1
    22    31    32    1
    23    31    33    1
    24    31    34    1
    25     4     8    1
    26     8     9   ar
    27     9    10   ar
    28    10    11   ar
    29    11    12   ar
    30    12    13   ar
    31     4     5    1
    32     5     6    1
    33     6     7    2
    34    21    16   ar
    35     6     1   am
    36    29    22   ar
    37    13     8   ar
    38    34    35    1
@<TRIPOS>MOLECULE
*****
 35 38 0 0 0
SMALL
GASTEIGER

@<TRIPOS>ATOM
      1 N           3.0997   -1.1564   19.7725 N.am    1  UNL1       -0.2438
      2 C           1.6318   -0.9138   19.9630 C.3     1  UNL1        0.1009
      3 C           1.0554    0.4452   19.6964 C.3     1  UNL1        0.0662
      4 C           1.9470    1.5616   19.2395 C.3     1  UNL1        0.1600
      5 O           3.4150    1.3190   19.0491 O.3     1  UNL1       -0.4374
      6 C           3.9913   -0.0400   19.3156 C.2     1  UNL1        0.4051
      7 O           5.4593   -0.2826   19.1251 O.2     1  UNL1       -0.2262
      8 C           0.6297    2.2783   19.2756 C.ar    1  UNL1        0.0138
      9 C           0.1620    3.0486   18.0765 C.ar    1  UNL1       -0.0010
     10 C          -1.1552    3.7653   18.1126 C.ar    1  UNL1       -0.0002
     11 C          -2.0046    3.7118   19.3478 C.ar    1  UNL1       -0.0000
     12 C          -1.5368    2.9416   20.5469 C.ar    1  UNL1       -0.0002
     13 C          -0.2196    2.2248   20.5108 C.ar    1  UNL1       -0.0010
     14 C           3.5375   -3.6027   19.0152 C.3     1  UNL1        0.0265
     15 C           3.6761   -2.5153   20.0391 C.3     1  UNL1        0.1011
     16 C           4.3911   -2.7868   21.3295 C.ar    1  UNL1       -0.0042
     17 C           5.5550   -3.7326   21.3574 C.ar    1  UNL1       -0.0027
     18 C           6.2699   -4.0040   22.6478 C.ar    1  UNL1       -0.0002
     19 C           5.8209   -3.3298   23.9103 C.ar    1  UNL1        0.0014
     20 C           4.6570   -2.3840   23.8823 C.ar    1  UNL1       -0.0002
     21 C           3.9421   -2.1126   22.5919 C.ar    1  UNL1       -0.0027
     22 C           6.5359   -3.6013   25.2007 C.ar    1  UNL1        0.0175
     23 C           6.8621   -2.4698   26.1299 C.ar    1  UNL1        0.0064
     24 C           7.5771   -2.7413   27.4203 C.ar    1  UNL1        0.0608
     25 C           7.9658   -4.1443   27.7815 C.ar    1  UNL1        0.2610
     26 O           8.6808   -4.4159   29.0718 O.2     1  UNL1       -0.2670
     27 N           7.6397   -5.2758   26.8522 N.ar    1  UNL1       -0.2922
     28 C           8.0284   -6.6788   27.2134 C.3     1  UNL1        0.1336
     29 C           6.9247   -5.0043   25.5619 C.ar    1  UNL1        0.0783
     30 C           2.3811    2.9269   18.7951 C.3     1  UNL1        0.0714
     31 C           3.6850    3.4924   19.2746 C.3     1  UNL1        0.0922
     32 C           4.1727    3.5691   17.8582 C.3     1  UNL1        0.0294
     33 C           3.1973    3.4157   20.6910 C.3     1  UNL1        0.0294
     34 O           4.9889    4.0579   19.7541 O.3     1  UNL1       -0.3866
     35 H           5.5673    4.2266   18.9939 H       1  UNL1        0.2102
@<TRIPOS>BOND
     1    15    14    1
     2    15    16    1
     3    16    17   ar
     4    17    18   ar
     5    18    19   ar
     6    19    22    1
     7    22    23   ar
     8    23    24   ar
     9    24    25   ar
    10    25    26    2
    11    25    27   ar
    12    27    28    1
    13    27    29   ar
    14    19    20   ar
    15    20    21   ar
    16    15     1    1
    17     1     2    1
    18     2     3    1
    19     3     4    1
    20     4    30    1
    21    30    31    1
    22    31    32    1
    23    31    33    1
    24    31    34    1
    25     4     8    1
    26     8     9   ar
    27     9    10   ar
    28    10    11   ar
    29    11    12   ar
    30    12    13   ar
    31     4     5    1
    32     5     6    1
    33     6     7    2
    34    21    16   ar
    35     6     1   am
    36    29    22   ar
    37    13     8   ar
    38    34    35    1
@<TRIPOS>MOLECULE
*****
 35 38 0 0 0
SMALL
GASTEIGER

@<TRIPOS>ATOM
      1 N           4.3473    2.9691   35.0597 N.am    1  UNL1       -0.2438
      2 C           5.4414    3.3822   35.9990 C.3     1  UNL1        0.1009
      3 C           5.1648    3.4957   37.4689 C.3     1  UNL1        0.0662
      4 C           3.7942    3.1960   37.9995 C.3     1  UNL1        0.1600
      5 O           2.7001    2.7828   37.0602 O.3     1  UNL1       -0.4374
      6 C           2.9766    2.6694   35.5903 C.2     1  UNL1        0.4051
      7 O           1.8826    2.2563   34.6510 O.2     1  UNL1       -0.2262
      8 C           4.4971    3.5474   39.2773 C.ar    1  UNL1        0.0138
      9 C           5.8291    2.9345   39.5936 C.ar    1  UNL1       -0.0010
     10 C           6.5319    3.2859   40.8713 C.ar    1  UNL1       -0.0002
     11 C           5.9027    4.2502   41.8326 C.ar    1  UNL1       -0.0000
     12 C           4.5707    4.8631   41.5163 C.ar    1  UNL1       -0.0002
     13 C           3.8678    4.5117   40.2386 C.ar    1  UNL1       -0.0010
     14 C           4.4983    4.0624   32.7077 C.3     1  UNL1        0.0265
     15 C           4.6239    2.8557   33.5898 C.3     1  UNL1        0.1011
     16 C           5.0261    1.5355   33.0019 C.ar    1  UNL1       -0.0042
     17 C           5.1404    1.3805   31.5144 C.ar    1  UNL1       -0.0027
     18 C           5.5426    0.0604   30.9267 C.ar    1  UNL1       -0.0002
     19 C           5.8304   -1.1047   31.8265 C.ar    1  UNL1        0.0014
     20 C           5.7161   -0.9497   33.3140 C.ar    1  UNL1       -0.0002
     21 C           5.3139    0.3704   33.9018 C.ar    1  UNL1       -0.0027
     22 C           6.2326   -2.4249   31.2387 C.ar    1  UNL1        0.0175
     23 C           6.5768   -3.5735   32.1399 C.ar    1  UNL1        0.0064
     24 C           6.9790   -4.8937   31.5520 C.ar    1  UNL1        0.0608
     25 C           7.0370   -5.0652   30.0630 C.ar    1  UNL1        0.2610
     26 O           7.4391   -6.3852   29.4752 O.2     1  UNL1       -0.2670
     27 N           6.6928   -3.9165   29.1618 N.ar    1  UNL1       -0.2922
     28 C           6.7508   -4.0879   27.6728 C.3     1  UNL1        0.1336
     29 C           6.2906   -2.5964   29.7496 C.ar    1  UNL1        0.0783
     30 C           2.6677    3.0183   38.9739 C.3     1  UNL1        0.0714
     31 C           1.7501    1.8380   38.8524 C.3     1  UNL1        0.0922
     32 C           2.9350    0.9181   38.8405 C.3     1  UNL1        0.0294
     33 C           0.5653    2.7577   38.8643 C.3     1  UNL1        0.0294
     34 O           0.8326    0.6575   38.7310 O.3     1  UNL1       -0.3866
     35 H           1.3573   -0.1577   38.6975 H       1  UNL1        0.2102
@<TRIPOS>BOND
     1    15    14    1
     2    15    16    1
     3    16    17   ar
     4    17    18   ar
     5    18    19   ar
     6    19    22    1
     7    22    23   ar
     8    23    24   ar
     9    24    25   ar
    10    25    26    2
    11    25    27   ar
    12    27    28    1
    13    27    29   ar
    14    19    20   ar
    15    20    21   ar
    16    15     1    1
    17     1     2    1
    18     2     3    1
    19     3     4    1
    20     4    30    1
    21    30    31    1
    22    31    32    1
    23    31    33    1
    24    31    34    1
    25     4     8    1
    26     8     9   ar
    27     9    10   ar
    28    10    11   ar
    29    11    12   ar
    30    12    13   ar
    31     4     5    1
    32     5     6    1
    33     6     7    2
    34    21    16   ar
    35     6     1   am
    36    29    22   ar
    37    13     8   ar
    38    34    35    1
@<TRIPOS>MOLECULE
*****
 35 38 0 0 0
SMALL
GASTEIGER

@<TRIPOS>ATOM
      1 N           2.9196    1.3236   20.1397 N.am    1  UNL1       -0.2438
      2 C           3.7042    1.3034   21.4179 C.3     1  UNL1        0.1009
      3 C           4.4055    0.0490   21.8478 C.3     1  UNL1        0.0662
      4 C           4.3220   -1.1852   20.9995 C.3     1  UNL1        0.1600
      5 O           3.5373   -1.1651   19.7212 O.3     1  UNL1       -0.4374
      6 C           2.8361    0.0893   19.2913 C.2     1  UNL1        0.4051
      7 O           2.0514    0.1095   18.0131 O.2     1  UNL1       -0.2262
      8 C           5.1814   -1.6956   22.1180 C.ar    1  UNL1        0.0138
      9 C           4.8139   -2.9655   22.8267 C.ar    1  UNL1       -0.0010
     10 C           5.6733   -3.4759   23.9452 C.ar    1  UNL1       -0.0002
     11 C           6.9001   -2.7163   24.3549 C.ar    1  UNL1       -0.0000
     12 C           7.2676   -1.4463   23.6463 C.ar    1  UNL1       -0.0002
     13 C           6.4082   -0.9360   22.5277 C.ar    1  UNL1       -0.0010
     14 C           2.9269    3.5724   18.8386 C.3     1  UNL1        0.0265
     15 C           2.2183    2.5780   19.7098 C.3     1  UNL1        0.1011
     16 C           0.8084    2.8379   20.1512 C.ar    1  UNL1       -0.0042
     17 C          -0.2204    3.2799   19.1532 C.ar    1  UNL1       -0.0027
     18 C          -1.6302    3.5398   19.5946 C.ar    1  UNL1       -0.0002
     19 C          -2.0111    3.3577   21.0339 C.ar    1  UNL1        0.0014
     20 C          -0.9823    2.9157   22.0319 C.ar    1  UNL1       -0.0002
     21 C           0.4275    2.6558   21.5905 C.ar    1  UNL1       -0.0027
     22 C          -3.4210    3.6177   21.4753 C.ar    1  UNL1        0.0175
     23 C          -4.5061    3.7936   20.4546 C.ar    1  UNL1        0.0064
     24 C          -5.9160    4.0535   20.8960 C.ar    1  UNL1        0.0608
     25 C          -6.2407    4.1376   22.3580 C.ar    1  UNL1        0.2610
     26 O          -7.6505    4.3975   22.7994 O.2     1  UNL1       -0.2670
     27 N          -5.1556    3.9617   23.3787 N.ar    1  UNL1       -0.2922
     28 C          -5.4804    4.0458   24.8407 C.3     1  UNL1        0.1336
     29 C          -3.7458    3.7018   22.9373 C.ar    1  UNL1        0.0783
     30 C           4.5370   -2.5967   20.5396 C.3     1  UNL1        0.0714
     31 C           4.7647   -2.8853   19.0853 C.3     1  UNL1        0.0922
     32 C           3.5634   -3.7837   19.0755 C.3     1  UNL1        0.0294
     33 C           5.9658   -1.9869   19.0951 C.3     1  UNL1        0.0294
     34 O           4.9922   -3.1739   17.6311 O.3     1  UNL1       -0.3866
     35 H           4.3089   -3.7838   17.3117 H       1  UNL1        0.2102
@<TRIPOS>BOND
     1    15    14    1
     2    15    16    1
     3    16    17   ar
     4    17    18   ar
     5    18    19   ar
     6    19    22    1
     7    22    23   ar
     8    23    24   ar
     9    24    25   ar
    10    25    26    2
    11    25    27   ar
    12    27    28    1
    13    27    29   ar
    14    19    20   ar
    15    20    21   ar
    16    15     1    1
    17     1     2    1
    18     2     3    1
    19     3     4    1
    20     4    30    1
    21    30    31    1
    22    31    32    1
    23    31    33    1
    24    31    34    1
    25     4     8    1
    26     8     9   ar
    27     9    10   ar
    28    10    11   ar
    29    11    12   ar
    30    12    13   ar
    31     4     5    1
    32     5     6    1
    33     6     7    2
    34    21    16   ar
    35     6     1   am
    36    29    22   ar
    37    13     8   ar
    38    34    35    1
@<TRIPOS>MOLECULE
*****
 35 38 0 0 0
SMALL
GASTEIGER

@<TRIPOS>ATOM
      1 N          -1.2117    3.5149   20.1848 N.am    1  UNL1       -0.2438
      2 C          -2.7102    3.5526   20.1304 C.3     1  UNL1        0.1009
      3 C          -3.4902    4.0770   21.2994 C.3     1  UNL1        0.0662
      4 C          -2.7717    4.5639   22.5228 C.3     1  UNL1        0.1600
      5 O          -1.2731    4.5263   22.5772 O.3     1  UNL1       -0.4374
      6 C          -0.4931    4.0018   21.4082 C.2     1  UNL1        0.4051
      7 O           1.0054    3.9641   21.4626 O.2     1  UNL1       -0.2262
      8 C          -4.1920    4.7990   22.9441 C.ar    1  UNL1        0.0138
      9 C          -4.5845    6.1092   23.5600 C.ar    1  UNL1       -0.0010
     10 C          -6.0048    6.3442   23.9813 C.ar    1  UNL1       -0.0002
     11 C          -7.0325    5.2691   23.7867 C.ar    1  UNL1       -0.0000
     12 C          -6.6400    3.9589   23.1708 C.ar    1  UNL1       -0.0002
     13 C          -5.2197    3.7239   22.7494 C.ar    1  UNL1       -0.0010
     14 C          -0.6307    3.5859   17.6535 C.3     1  UNL1        0.0265
     15 C          -0.4317    2.9904   19.0158 C.3     1  UNL1        0.1011
     16 C           0.5472    1.8704   19.2091 C.ar    1  UNL1       -0.0042
     17 C           1.9062    1.9449   18.5787 C.ar    1  UNL1       -0.0027
     18 C           2.8851    0.8249   18.7720 C.ar    1  UNL1       -0.0002
     19 C           2.5049   -0.3696   19.5958 C.ar    1  UNL1        0.0014
     20 C           1.1459   -0.4441   20.2262 C.ar    1  UNL1       -0.0002
     21 C           0.1671    0.6759   20.0329 C.ar    1  UNL1       -0.0027
     22 C           3.4839   -1.4896   19.7891 C.ar    1  UNL1        0.0175
     23 C           4.0975   -2.1634   18.5978 C.ar    1  UNL1        0.0064
     24 C           5.0765   -3.2834   18.7911 C.ar    1  UNL1        0.0608
     25 C           5.4417   -3.7296   20.1758 C.ar    1  UNL1        0.2610
     26 O           6.4206   -4.8495   20.3692 O.2     1  UNL1       -0.2670
     27 N           4.8280   -3.0557   21.3672 N.ar    1  UNL1       -0.2922
     28 C           5.1932   -3.5019   22.7520 C.3     1  UNL1        0.1336
     29 C           3.8491   -1.9358   21.1739 C.ar    1  UNL1        0.0783
     30 C          -2.5464    5.1324   23.8925 C.3     1  UNL1        0.0714
     31 C          -1.4408    4.5979   24.7538 C.3     1  UNL1        0.0922
     32 C          -0.7574    5.9324   24.7048 C.3     1  UNL1        0.0294
     33 C          -2.1240    3.2635   24.8029 C.3     1  UNL1        0.0294
     34 O          -0.3351    4.0635   25.6151 O.3     1  UNL1       -0.3866
     35 H           0.3198    4.7620   25.7709 H       1  UNL1        0.2102
@<TRIPOS>BOND
     1    15    14    1
     2    15    16    1
     3    16    17   ar
     4    17    18   ar
     5    18    19   ar
     6    19    22    1
     7    22    23   ar
     8    23    24   ar
     9    24    25   ar
    10    25    26    2
    11    25    27   ar
    12    27    28    1
    13    27    29   ar
    14    19    20   ar
    15    20    21   ar
    16    15     1    1
    17     1     2    1
    18     2     3    1
    19     3     4    1
    20     4    30    1
    21    30    31    1
    22    31    32    1
    23    31    33    1
    24    31    34    1
    25     4     8    1
    26     8     9   ar
    27     9    10   ar
    28    10    11   ar
    29    11    12   ar
    30    12    13   ar
    31     4     5    1
    32     5     6    1
    33     6     7    2
    34    21    16   ar
    35     6     1   am
    36    29    22   ar
    37    13     8   ar
    38    34    35    1
@<TRIPOS>MOLECULE
*****
 35 38 0 0 0
SMALL
GASTEIGER

@<TRIPOS>ATOM
      1 N          -1.2360    4.5764   21.7343 N.am    1  UNL1       -0.2438
      2 C          -1.9797    4.5144   20.4332 C.3     1  UNL1        0.1009
      3 C          -3.4768    4.6076   20.4199 C.3     1  UNL1        0.0662
      4 C          -4.2300    4.7629   21.7076 C.3     1  UNL1        0.1600
      5 O          -3.4863    4.8250   23.0088 O.3     1  UNL1       -0.4374
      6 C          -1.9892    4.7317   23.0222 C.2     1  UNL1        0.4051
      7 O          -1.2455    4.7938   24.3233 O.2     1  UNL1       -0.2262
      8 C          -5.3733    4.7537   20.7366 C.ar    1  UNL1        0.0138
      9 C          -6.3782    5.8672   20.7507 C.ar    1  UNL1       -0.0010
     10 C          -7.5215    5.8580   19.7796 C.ar    1  UNL1       -0.0002
     11 C          -7.6598    4.7352   18.7946 C.ar    1  UNL1       -0.0000
     12 C          -6.6549    3.6217   18.7806 C.ar    1  UNL1       -0.0002
     13 C          -5.5116    3.6309   19.7516 C.ar    1  UNL1       -0.0010
     14 C           1.0876    5.7175   21.9555 C.3     1  UNL1        0.0265
     15 C           0.2611    4.4832   21.7476 C.3     1  UNL1        0.1011
     16 C           0.9316    3.1555   21.5531 C.ar    1  UNL1       -0.0042
     17 C           2.2061    3.0669   20.7672 C.ar    1  UNL1       -0.0027
     18 C           2.8765    1.7393   20.5727 C.ar    1  UNL1       -0.0002
     19 C           2.2725    0.5002   21.1642 C.ar    1  UNL1        0.0014
     20 C           0.9980    0.5888   21.9501 C.ar    1  UNL1       -0.0002
     21 C           0.3275    1.9164   22.1446 C.ar    1  UNL1       -0.0027
     22 C           2.9430   -0.8274   20.9697 C.ar    1  UNL1        0.0175
     23 C           2.8955   -1.5027   19.6311 C.ar    1  UNL1        0.0064
     24 C           3.5660   -2.8303   19.4366 C.ar    1  UNL1        0.0608
     25 C           4.2840   -3.4827   20.5807 C.ar    1  UNL1        0.2610
     26 O           4.9545   -4.8103   20.3862 O.2     1  UNL1       -0.2670
     27 N           4.3314   -2.8074   21.9193 N.ar    1  UNL1       -0.2922
     28 C           5.0493   -3.4598   23.0634 C.3     1  UNL1        0.1336
     29 C           3.6609   -1.4798   22.1138 C.ar    1  UNL1        0.0783
     30 C          -5.3804    4.9151   22.6582 C.3     1  UNL1        0.0714
     31 C          -5.4088    4.1261   23.9336 C.3     1  UNL1        0.0922
     32 C          -5.1082    2.8733   23.1653 C.3     1  UNL1        0.0294
     33 C          -5.7094    5.3787   24.7019 C.3     1  UNL1        0.0294
     34 O          -5.4372    3.3370   25.2089 O.3     1  UNL1       -0.3866
     35 H          -5.2601    2.4031   25.0153 H       1  UNL1        0.2102
@<TRIPOS>BOND
     1    15    14    1
     2    15    16    1
     3    16    17   ar
     4    17    18   ar
     5    18    19   ar
     6    19    22    1
     7    22    23   ar
     8    23    24   ar
     9    24    25   ar
    10    25    26    2
    11    25    27   ar
    12    27    28    1
    13    27    29   ar
    14    19    20   ar
    15    20    21   ar
    16    15     1    1
    17     1     2    1
    18     2     3    1
    19     3     4    1
    20     4    30    1
    21    30    31    1
    22    31    32    1
    23    31    33    1
    24    31    34    1
    25     4     8    1
    26     8     9   ar
    27     9    10   ar
    28    10    11   ar
    29    11    12   ar
    30    12    13   ar
    31     4     5    1
    32     5     6    1
    33     6     7    2
    34    21    16   ar
    35     6     1   am
    36    29    22   ar
    37    13     8   ar
    38    34    35    1
