@<TRIPOS>MOLECULE
*****
 34 37 0 0 0
SMALL
GASTEIGER

@<TRIPOS>ATOM
      1 C          -3.8476  -17.0542   24.4615 C.3     1  UNL1        0.0071
      2 C          -4.7672  -16.2547   23.5868 C.3     1  UNL1        0.0177
      3 C          -5.9299  -15.5245   24.1907 C.3     1  UNL1        0.0721
      4 N          -6.1730  -15.5937   25.6693 N.3     1  UNL1       -0.2724
      5 C          -5.2534  -16.3931   26.5439 C.3     1  UNL1        0.0721
      6 C          -4.0906  -17.1234   25.9401 C.3     1  UNL1        0.0177
      7 C          -2.6847  -17.7845   23.8576 C.3     1  UNL1        0.0265
      8 C          -2.9615  -18.8597   20.0475 C.ar    1  UNL1        0.1445
      9 C          -3.1514  -18.8519   21.5354 C.ar    1  UNL1        0.0331
     10 C          -2.4948  -17.7923   22.3698 C.ar    1  UNL1       -0.0191
     11 C          -1.6483  -16.7405   21.7163 C.ar    1  UNL1       -0.0036
     12 C          -1.4584  -16.7483   20.2283 C.ar    1  UNL1        0.0094
     13 C          -2.1149  -17.8079   19.3939 C.ar    1  UNL1        0.0684
     14 BR         -1.9250  -17.8156   17.9060 Br      1  UNL1       -0.0458
     15 O          -3.6180  -19.9193   19.2131 O.3     1  UNL1       -0.4723
     16 C          -4.3857  -21.0256   19.8739 C.3     1  UNL1        0.2373
     17 C          -5.8393  -20.8418   20.1953 C.3     1  UNL1        0.1894
     18 C          -6.8374  -19.2768   22.0132 C.3     1  UNL1        0.1743
     19 O          -6.2701  -20.6064   21.6127 O.3     1  UNL1       -0.3471
     20 C          -7.3358  -14.8633   26.2732 C.3     1  UNL1        0.0768
     21 C          -8.6103  -15.5968   26.5690 C.3     1  UNL1        0.0437
     22 C          -9.1119  -16.6427   25.6179 C.ar    1  UNL1       -0.0205
     23 C          -9.4381  -18.0182   26.1196 C.ar    1  UNL1       -0.0011
     24 C          -9.9396  -19.0640   25.1685 C.ar    1  UNL1        0.0367
     25 C         -10.1150  -18.7344   23.7157 C.ar    1  UNL1        0.1414
     26 C          -9.7888  -17.3590   23.2140 C.ar    1  UNL1        0.0709
     27 C          -9.2873  -16.3131   24.1651 C.ar    1  UNL1        0.0017
     28 C          -9.9642  -17.0294   21.7612 C.2     1  UNL1        0.2063
     29 O          -9.6380  -15.6540   21.2595 O.2     1  UNL1       -0.2886
     30 C         -10.4657  -18.0752   20.8101 C.3     1  UNL1        0.2162
     31 O         -10.6411  -17.7456   19.3573 O.3     1  UNL1       -0.3741
     32 C         -10.7919  -19.4508   21.3118 C.3     1  UNL1        0.2424
     33 O         -10.6165  -19.7803   22.7646 O.3     1  UNL1       -0.4723
     34 H         -10.9702  -18.5269   18.8860 H       1  UNL1        0.2110
@<TRIPOS>BOND
     1    18    19    1
     2    19    17    1
     3    17    16    1
     4    16    15    1
     5    15     8    1
     6     8     9   ar
     7     9    10   ar
     8    10     7    1
     9     7     1    1
    10     1     2    1
    11     2     3    1
    12     3     4    1
    13     4    20    1
    14    20    21    1
    15    21    22    1
    16    22    23   ar
    17    23    24   ar
    18    24    25   ar
    19    25    26   ar
    20    26    27   ar
    21    26    28    1
    22    28    29    2
    23    28    30    1
    24    30    31    1
    25    30    32    1
    26    32    33    1
    27     4     5    1
    28     5     6    1
    29    10    11   ar
    30    11    12   ar
    31    12    13   ar
    32    13    14    1
    33    13     8   ar
    34     6     1    1
    35    27    22   ar
    36    33    25    1
    37    31    34    1
@<TRIPOS>MOLECULE
*****
 34 37 0 0 0
SMALL
GASTEIGER

@<TRIPOS>ATOM
      1 C           0.7603    0.8697   20.8108 C.3     1  UNL1        0.0071
      2 C          -0.1956    2.0227   20.7284 C.3     1  UNL1        0.0177
      3 C          -0.5078    2.8272   21.9553 C.3     1  UNL1        0.0721
      4 N           0.1360    2.4787   23.2646 N.3     1  UNL1       -0.2724
      5 C           1.0919    1.3257   23.3470 C.3     1  UNL1        0.0721
      6 C           1.4041    0.5212   22.1201 C.3     1  UNL1        0.0177
      7 C           1.0726    0.0651   19.5839 C.3     1  UNL1        0.0265
      8 C           4.5232   -1.0139   17.9472 C.ar    1  UNL1        0.1445
      9 C           3.1637   -1.1008   18.5752 C.ar    1  UNL1        0.0331
     10 C           2.4320    0.1520   18.9559 C.ar    1  UNL1       -0.0191
     11 C           3.0596    1.4917   18.7086 C.ar    1  UNL1       -0.0036
     12 C           4.4191    1.5787   18.0806 C.ar    1  UNL1        0.0094
     13 C           5.1509    0.3259   17.6999 C.ar    1  UNL1        0.0684
     14 BR          6.5103    0.4127   17.0719 Br      1  UNL1       -0.0458
     15 O           5.2549   -2.2667   17.5665 O.3     1  UNL1       -0.4723
     16 C           5.6316   -3.2651   18.6208 C.3     1  UNL1        0.2373
     17 C           4.7653   -4.4660   18.8601 C.3     1  UNL1        0.1894
     18 C           4.5448   -3.8096   21.3642 C.3     1  UNL1        0.1743
     19 O           4.2482   -4.7552   20.2381 O.3     1  UNL1       -0.3471
     20 C          -0.1763    3.2833   24.4915 C.3     1  UNL1        0.0768
     21 C          -1.2213    2.8057   25.4557 C.3     1  UNL1        0.0437
     22 C          -2.6159    3.3531   25.3821 C.ar    1  UNL1       -0.0205
     23 C          -3.2871    3.8651   26.6221 C.ar    1  UNL1       -0.0011
     24 C          -4.6816    4.4125   26.5484 C.ar    1  UNL1        0.0367
     25 C          -5.4051    4.4480   25.2349 C.ar    1  UNL1        0.1414
     26 C          -4.7339    3.9361   23.9950 C.ar    1  UNL1        0.0709
     27 C          -3.3394    3.3887   24.0686 C.ar    1  UNL1        0.0017
     28 C          -5.4573    3.9716   22.6814 C.2     1  UNL1        0.2063
     29 O          -4.7862    3.4597   21.4415 O.2     1  UNL1       -0.2886
     30 C          -6.8519    4.5191   22.6078 C.3     1  UNL1        0.2162
     31 O          -7.5753    4.5546   21.2942 O.3     1  UNL1       -0.3741
     32 C          -7.5231    5.0310   23.8478 C.3     1  UNL1        0.2424
     33 O          -6.7997    4.9955   25.1613 O.3     1  UNL1       -0.4723
     34 H          -8.4584    4.9351   21.4216 H       1  UNL1        0.2110
@<TRIPOS>BOND
     1    18    19    1
     2    19    17    1
     3    17    16    1
     4    16    15    1
     5    15     8    1
     6     8     9   ar
     7     9    10   ar
     8    10     7    1
     9     7     1    1
    10     1     2    1
    11     2     3    1
    12     3     4    1
    13     4    20    1
    14    20    21    1
    15    21    22    1
    16    22    23   ar
    17    23    24   ar
    18    24    25   ar
    19    25    26   ar
    20    26    27   ar
    21    26    28    1
    22    28    29    2
    23    28    30    1
    24    30    31    1
    25    30    32    1
    26    32    33    1
    27     4     5    1
    28     5     6    1
    29    10    11   ar
    30    11    12   ar
    31    12    13   ar
    32    13    14    1
    33    13     8   ar
    34     6     1    1
    35    27    22   ar
    36    33    25    1
    37    31    34    1
@<TRIPOS>MOLECULE
*****
 34 37 0 0 0
SMALL
GASTEIGER

@<TRIPOS>ATOM
      1 C          -1.1965    3.0698   25.7783 C.3     1  UNL1        0.0071
      2 C          -0.5085    3.7453   24.6293 C.3     1  UNL1        0.0177
      3 C           0.7027    3.1171   24.0062 C.3     1  UNL1        0.0721
      4 N           1.2259    1.8134   24.5322 N.3     1  UNL1       -0.2724
      5 C           0.5379    1.1379   25.6812 C.3     1  UNL1        0.0721
      6 C          -0.6733    1.7661   26.3042 C.3     1  UNL1        0.0177
      7 C          -2.4078    3.6980   26.4014 C.3     1  UNL1        0.0265
      8 C          -4.9676    3.5723   23.3713 C.ar    1  UNL1        0.1445
      9 C          -3.7260    3.3662   24.1873 C.ar    1  UNL1        0.0331
     10 C          -3.6494    3.9041   25.5854 C.ar    1  UNL1       -0.0191
     11 C          -4.8145    4.6482   26.1675 C.ar    1  UNL1       -0.0036
     12 C          -6.0562    4.8544   25.3516 C.ar    1  UNL1        0.0094
     13 C          -6.1328    4.3164   23.9534 C.ar    1  UNL1        0.0684
     14 BR         -7.3744    4.5226   23.1375 Br      1  UNL1       -0.0458
     15 O          -5.0442    3.0343   21.9732 O.3     1  UNL1       -0.4723
     16 C          -4.3244    3.7352   20.8594 C.3     1  UNL1        0.2373
     17 C          -3.0751    3.1390   20.2815 C.3     1  UNL1        0.1894
     18 C          -0.6084    2.3768   20.5714 C.3     1  UNL1        0.1743
     19 O          -1.8949    2.8672   21.1665 O.3     1  UNL1       -0.3471
     20 C           2.4373    1.1852   23.9091 C.3     1  UNL1        0.0768
     21 C           2.6107   -0.3043   23.9424 C.3     1  UNL1        0.0437
     22 C           3.3211   -1.0020   22.8205 C.ar    1  UNL1       -0.0205
     23 C           4.3388   -2.0621   23.1214 C.ar    1  UNL1       -0.0011
     24 C           5.0492   -2.7597   21.9995 C.ar    1  UNL1        0.0367
     25 C           4.7419   -2.3972   20.5768 C.ar    1  UNL1        0.1414
     26 C           3.7243   -1.3371   20.2759 C.ar    1  UNL1        0.0709
     27 C           3.0139   -0.6395   21.3978 C.ar    1  UNL1        0.0017
     28 C           3.4170   -0.9746   18.8531 C.2     1  UNL1        0.2063
     29 O           2.3994    0.0854   18.5523 O.2     1  UNL1       -0.2886
     30 C           4.1274   -1.6722   17.7313 C.3     1  UNL1        0.2162
     31 O           3.8202   -1.3098   16.3085 O.3     1  UNL1       -0.3741
     32 C           5.1451   -2.7324   18.0321 C.3     1  UNL1        0.2424
     33 O           5.4524   -3.0948   19.4549 O.3     1  UNL1       -0.4723
     34 H           4.3622   -1.8503   15.7128 H       1  UNL1        0.2110
@<TRIPOS>BOND
     1    18    19    1
     2    19    17    1
     3    17    16    1
     4    16    15    1
     5    15     8    1
     6     8     9   ar
     7     9    10   ar
     8    10     7    1
     9     7     1    1
    10     1     2    1
    11     2     3    1
    12     3     4    1
    13     4    20    1
    14    20    21    1
    15    21    22    1
    16    22    23   ar
    17    23    24   ar
    18    24    25   ar
    19    25    26   ar
    20    26    27   ar
    21    26    28    1
    22    28    29    2
    23    28    30    1
    24    30    31    1
    25    30    32    1
    26    32    33    1
    27     4     5    1
    28     5     6    1
    29    10    11   ar
    30    11    12   ar
    31    12    13   ar
    32    13    14    1
    33    13     8   ar
    34     6     1    1
    35    27    22   ar
    36    33    25    1
    37    31    34    1
@<TRIPOS>MOLECULE
*****
 34 37 0 0 0
SMALL
GASTEIGER

@<TRIPOS>ATOM
      1 C          -0.6845    2.0723   25.6403 C.3     1  UNL1        0.0071
      2 C          -1.2374    3.0516   24.6477 C.3     1  UNL1        0.0177
      3 C          -0.7672    3.0222   23.2236 C.3     1  UNL1        0.0721
      4 N           0.2558    2.0136   22.7922 N.3     1  UNL1       -0.2724
      5 C           0.8087    1.0343   23.7848 C.3     1  UNL1        0.0721
      6 C           0.3385    1.0637   25.2089 C.3     1  UNL1        0.0177
      7 C          -1.1547    2.1017   27.0645 C.3     1  UNL1        0.0265
      8 C           1.2163    1.6702   30.2176 C.ar    1  UNL1        0.1445
      9 C           0.2509    1.3484   29.1155 C.ar    1  UNL1        0.0331
     10 C          -0.1893    2.4234   28.1665 C.ar    1  UNL1       -0.0191
     11 C           0.3358    3.8201   28.3195 C.ar    1  UNL1       -0.0036
     12 C           1.3012    4.1419   29.4216 C.ar    1  UNL1        0.0094
     13 C           1.7415    3.0669   30.3706 C.ar    1  UNL1        0.0684
     14 BR          2.7068    3.3887   31.4727 Br      1  UNL1       -0.0458
     15 O           1.6565    0.5952   31.1666 O.3     1  UNL1       -0.4723
     16 C           2.6176   -0.4616   30.7091 C.3     1  UNL1        0.2373
     17 C           3.8347   -0.7739   31.5283 C.3     1  UNL1        0.1894
     18 C           4.5291   -2.5906   33.2510 C.3     1  UNL1        0.1743
     19 O           3.6867   -1.4061   32.8805 O.3     1  UNL1       -0.3471
     20 C           0.7260    1.9843   21.3680 C.3     1  UNL1        0.0768
     21 C           0.4451    0.7865   20.5100 C.3     1  UNL1        0.0437
     22 C           1.5652    0.1099   19.7767 C.ar    1  UNL1       -0.0205
     23 C           1.8651    0.4841   18.3554 C.ar    1  UNL1       -0.0011
     24 C           2.9852   -0.1925   17.6222 C.ar    1  UNL1        0.0367
     25 C           3.8053   -1.2433   18.3102 C.ar    1  UNL1        0.1414
     26 C           3.5053   -1.6175   19.7314 C.ar    1  UNL1        0.0709
     27 C           2.3853   -0.9409   20.4646 C.ar    1  UNL1        0.0017
     28 C           4.3254   -2.6683   20.4194 C.2     1  UNL1        0.2063
     29 O           4.0255   -3.0424   21.8406 O.2     1  UNL1       -0.2886
     30 C           5.4455   -3.3448   19.6861 C.3     1  UNL1        0.2162
     31 O           6.2656   -4.3956   20.3741 O.3     1  UNL1       -0.3741
     32 C           5.7455   -2.9707   18.2648 C.3     1  UNL1        0.2424
     33 O           4.9254   -1.9199   17.5768 O.3     1  UNL1       -0.4723
     34 H           6.9422   -4.7285   19.7640 H       1  UNL1        0.2110
@<TRIPOS>BOND
     1    18    19    1
     2    19    17    1
     3    17    16    1
     4    16    15    1
     5    15     8    1
     6     8     9   ar
     7     9    10   ar
     8    10     7    1
     9     7     1    1
    10     1     2    1
    11     2     3    1
    12     3     4    1
    13     4    20    1
    14    20    21    1
    15    21    22    1
    16    22    23   ar
    17    23    24   ar
    18    24    25   ar
    19    25    26   ar
    20    26    27   ar
    21    26    28    1
    22    28    29    2
    23    28    30    1
    24    30    31    1
    25    30    32    1
    26    32    33    1
    27     4     5    1
    28     5     6    1
    29    10    11   ar
    30    11    12   ar
    31    12    13   ar
    32    13    14    1
    33    13     8   ar
    34     6     1    1
    35    27    22   ar
    36    33    25    1
    37    31    34    1
@<TRIPOS>MOLECULE
*****
 34 37 0 0 0
SMALL
GASTEIGER

@<TRIPOS>ATOM
      1 C         -12.3632   -1.5598   17.7139 C.3     1  UNL1        0.0071
      2 C         -12.9323   -2.4531   16.6518 C.3     1  UNL1        0.0177
      3 C         -12.4950   -3.8852   16.5628 C.3     1  UNL1        0.0721
      4 N         -11.4886   -4.4239   17.5359 N.3     1  UNL1       -0.2724
      5 C         -10.9194   -3.5306   18.5980 C.3     1  UNL1        0.0721
      6 C         -11.3567   -2.0985   18.6870 C.3     1  UNL1        0.0177
      7 C         -12.8005   -0.1277   17.8029 C.3     1  UNL1        0.0265
      8 C         -15.8256    1.9926   19.2530 C.ar    1  UNL1        0.1445
      9 C         -14.5728    1.6358   18.5093 C.ar    1  UNL1        0.0331
     10 C         -14.0533    0.2291   18.5466 C.ar    1  UNL1       -0.0191
     11 C         -14.7866   -0.8207   19.3276 C.ar    1  UNL1       -0.0036
     12 C         -16.0394   -0.4640   20.0714 C.ar    1  UNL1        0.0094
     13 C         -16.5590    0.9427   20.0340 C.ar    1  UNL1        0.0684
     14 BR        -17.8118    1.2995   20.7777 Br      1  UNL1       -0.0458
     15 O         -16.3451    3.3993   19.2157 O.3     1  UNL1       -0.4723
     16 C         -15.6661    4.4710   20.0157 C.3     1  UNL1        0.2373
     17 C         -15.1872    4.1788   21.4069 C.3     1  UNL1        0.1894
     18 C         -13.9098    6.4055   21.8067 C.3     1  UNL1        0.1743
     19 O         -14.0063    4.9169   21.9641 O.3     1  UNL1       -0.3471
     20 C         -11.0513   -5.8560   17.4469 C.3     1  UNL1        0.0768
     21 C         -11.5281   -6.8504   18.4636 C.3     1  UNL1        0.0437
     22 C         -12.9958   -7.0010   18.7344 C.ar    1  UNL1       -0.0205
     23 C         -13.7822   -5.8422   19.2716 C.ar    1  UNL1       -0.0011
     24 C         -15.2498   -5.9928   19.5424 C.ar    1  UNL1        0.0367
     25 C         -15.9310   -7.3024   19.2761 C.ar    1  UNL1        0.1414
     26 C         -15.1447   -8.4613   18.7389 C.ar    1  UNL1        0.0709
     27 C         -13.6770   -8.3106   18.4681 C.ar    1  UNL1        0.0017
     28 C         -15.8259   -9.7709   18.4726 C.2     1  UNL1        0.2063
     29 O         -15.0395  -10.9298   17.9354 O.2     1  UNL1       -0.2886
     30 C         -17.2935   -9.9216   18.7434 C.3     1  UNL1        0.2162
     31 O         -17.9747  -11.2311   18.4770 O.3     1  UNL1       -0.3741
     32 C         -18.0799   -8.7626   19.2805 C.3     1  UNL1        0.2424
     33 O         -17.3987   -7.4531   19.5469 O.3     1  UNL1       -0.4723
     34 H         -18.9150  -11.1585   18.7040 H       1  UNL1        0.2110
@<TRIPOS>BOND
     1    18    19    1
     2    19    17    1
     3    17    16    1
     4    16    15    1
     5    15     8    1
     6     8     9   ar
     7     9    10   ar
     8    10     7    1
     9     7     1    1
    10     1     2    1
    11     2     3    1
    12     3     4    1
    13     4    20    1
    14    20    21    1
    15    21    22    1
    16    22    23   ar
    17    23    24   ar
    18    24    25   ar
    19    25    26   ar
    20    26    27   ar
    21    26    28    1
    22    28    29    2
    23    28    30    1
    24    30    31    1
    25    30    32    1
    26    32    33    1
    27     4     5    1
    28     5     6    1
    29    10    11   ar
    30    11    12   ar
    31    12    13   ar
    32    13    14    1
    33    13     8   ar
    34     6     1    1
    35    27    22   ar
    36    33    25    1
    37    31    34    1
@<TRIPOS>MOLECULE
*****
 34 37 0 0 0
SMALL
GASTEIGER

@<TRIPOS>ATOM
      1 C           7.2371   -4.0071   23.2316 C.3     1  UNL1        0.0071
      2 C           5.7470   -3.8390   23.2655 C.3     1  UNL1        0.0177
      3 C           4.9670   -3.8033   21.9848 C.3     1  UNL1        0.0721
      4 N           5.6771   -3.9357   20.6702 N.3     1  UNL1       -0.2724
      5 C           7.1672   -4.1037   20.6363 C.3     1  UNL1        0.0721
      6 C           7.9472   -4.1394   21.9170 C.3     1  UNL1        0.0177
      7 C           8.0173   -4.0428   24.5123 C.3     1  UNL1        0.0265
      8 C           8.2491   -6.5526   27.5777 C.ar    1  UNL1        0.1445
      9 C           8.1511   -5.2771   26.7945 C.ar    1  UNL1        0.0331
     10 C           8.1152   -5.3183   25.2955 C.ar    1  UNL1       -0.0191
     11 C           8.1773   -6.6350   24.5797 C.ar    1  UNL1       -0.0036
     12 C           8.2753   -7.9106   25.3629 C.ar    1  UNL1        0.0094
     13 C           8.3112   -7.8694   26.8619 C.ar    1  UNL1        0.0684
     14 BR          8.4092   -9.1449   27.6451 Br      1  UNL1       -0.0458
     15 O           8.2850   -6.5115   29.0767 O.3     1  UNL1       -0.4723
     16 C           7.5458   -5.4354   29.8153 C.3     1  UNL1        0.2373
     17 C           6.9743   -5.7150   31.1738 C.3     1  UNL1        0.1894
     18 C           6.2621   -3.2539   31.6048 C.3     1  UNL1        0.1743
     19 O           6.7164   -4.5851   32.1260 O.3     1  UNL1       -0.3471
     20 C           4.8969   -3.9000   19.3895 C.3     1  UNL1        0.0768
     21 C           3.5094   -3.3306   19.3721 C.3     1  UNL1        0.0437
     22 C           3.3004   -1.8727   19.0878 C.ar    1  UNL1       -0.0205
     23 C           4.2964   -1.1205   18.2559 C.ar    1  UNL1       -0.0011
     24 C           4.0874    0.3374   17.9716 C.ar    1  UNL1        0.0367
     25 C           2.8823    1.0431   18.5193 C.ar    1  UNL1        0.1414
     26 C           1.8863    0.2909   19.3512 C.ar    1  UNL1        0.0709
     27 C           2.0953   -1.1670   19.6354 C.ar    1  UNL1        0.0017
     28 C           0.6813    0.9966   19.8988 C.2     1  UNL1        0.2063
     29 O          -0.3147    0.2444   20.7307 O.2     1  UNL1       -0.2886
     30 C           0.4723    2.4545   19.6145 C.3     1  UNL1        0.2162
     31 O          -0.7327    3.1602   20.1622 O.3     1  UNL1       -0.3741
     32 C           1.4683    3.2068   18.7826 C.3     1  UNL1        0.2424
     33 O           2.6734    2.5011   18.2350 O.3     1  UNL1       -0.4723
     34 H          -0.7155    4.0903   19.8873 H       1  UNL1        0.2110
@<TRIPOS>BOND
     1    18    19    1
     2    19    17    1
     3    17    16    1
     4    16    15    1
     5    15     8    1
     6     8     9   ar
     7     9    10   ar
     8    10     7    1
     9     7     1    1
    10     1     2    1
    11     2     3    1
    12     3     4    1
    13     4    20    1
    14    20    21    1
    15    21    22    1
    16    22    23   ar
    17    23    24   ar
    18    24    25   ar
    19    25    26   ar
    20    26    27   ar
    21    26    28    1
    22    28    29    2
    23    28    30    1
    24    30    31    1
    25    30    32    1
    26    32    33    1
    27     4     5    1
    28     5     6    1
    29    10    11   ar
    30    11    12   ar
    31    12    13   ar
    32    13    14    1
    33    13     8   ar
    34     6     1    1
    35    27    22   ar
    36    33    25    1
    37    31    34    1
@<TRIPOS>MOLECULE
*****
 34 37 0 0 0
SMALL
GASTEIGER

@<TRIPOS>ATOM
      1 C         -13.4318   -1.9787   18.8571 C.3     1  UNL1        0.0071
      2 C         -14.4324   -2.1861   19.9551 C.3     1  UNL1        0.0177
      3 C         -15.8816   -1.8816   19.7164 C.3     1  UNL1        0.0721
      4 N         -16.3302   -1.3696   18.3797 N.3     1  UNL1       -0.2724
      5 C         -15.3295   -1.1622   17.2817 C.3     1  UNL1        0.0721
      6 C         -13.8803   -1.4668   17.5204 C.3     1  UNL1        0.0177
      7 C         -11.9825   -2.2833   19.0957 C.3     1  UNL1        0.0265
      8 C         -11.9219   -6.2402   18.7982 C.ar    1  UNL1        0.1445
      9 C         -12.4308   -4.8389   18.9632 C.ar    1  UNL1        0.0331
     10 C         -11.4735   -3.6846   18.9308 C.ar    1  UNL1       -0.0191
     11 C         -10.0073   -3.9316   18.7333 C.ar    1  UNL1       -0.0036
     12 C          -9.4982   -5.3329   18.5683 C.ar    1  UNL1        0.0094
     13 C         -10.4555   -6.4873   18.6008 C.ar    1  UNL1        0.0684
     14 BR         -9.9466   -7.8886   18.4358 Br      1  UNL1       -0.0458
     15 O         -12.8792   -7.3946   18.8307 O.3     1  UNL1       -0.4723
     16 C         -13.5376   -7.8588   17.5654 C.3     1  UNL1        0.2373
     17 C         -14.6192   -8.8966   17.6198 C.3     1  UNL1        0.1894
     18 C         -16.1899   -8.9248   19.6892 C.3     1  UNL1        0.1743
     19 O         -15.0225   -9.4912   18.9365 O.3     1  UNL1       -0.3471
     20 C         -17.7795   -1.0651   18.1411 C.3     1  UNL1        0.0768
     21 C         -18.2636    0.3541   18.1780 C.3     1  UNL1        0.0437
     22 C         -17.5004    1.3870   18.9531 C.ar    1  UNL1       -0.0205
     23 C         -16.5084    2.2683   18.2535 C.ar    1  UNL1       -0.0011
     24 C         -15.7453    3.3011   19.0287 C.ar    1  UNL1        0.0367
     25 C         -15.9741    3.4527   20.5033 C.ar    1  UNL1        0.1414
     26 C         -16.9660    2.5714   21.2029 C.ar    1  UNL1        0.0709
     27 C         -17.7291    1.5386   20.4278 C.ar    1  UNL1        0.0017
     28 C         -17.1948    2.7229   22.6776 C.2     1  UNL1        0.2063
     29 O         -18.1867    1.8417   23.3772 O.2     1  UNL1       -0.2886
     30 C         -16.4316    3.7557   23.4527 C.3     1  UNL1        0.2162
     31 O         -16.6604    3.9073   24.9274 O.3     1  UNL1       -0.3741
     32 C         -15.4396    4.6371   22.7532 C.3     1  UNL1        0.2424
     33 O         -15.2109    4.4855   21.2785 O.3     1  UNL1       -0.4723
     34 H         -16.0919    4.6137   25.2719 H       1  UNL1        0.2110
@<TRIPOS>BOND
     1    18    19    1
     2    19    17    1
     3    17    16    1
     4    16    15    1
     5    15     8    1
     6     8     9   ar
     7     9    10   ar
     8    10     7    1
     9     7     1    1
    10     1     2    1
    11     2     3    1
    12     3     4    1
    13     4    20    1
    14    20    21    1
    15    21    22    1
    16    22    23   ar
    17    23    24   ar
    18    24    25   ar
    19    25    26   ar
    20    26    27   ar
    21    26    28    1
    22    28    29    2
    23    28    30    1
    24    30    31    1
    25    30    32    1
    26    32    33    1
    27     4     5    1
    28     5     6    1
    29    10    11   ar
    30    11    12   ar
    31    12    13   ar
    32    13    14    1
    33    13     8   ar
    34     6     1    1
    35    27    22   ar
    36    33    25    1
    37    31    34    1
@<TRIPOS>MOLECULE
*****
 34 37 0 0 0
SMALL
GASTEIGER

@<TRIPOS>ATOM
      1 C           4.6326   -3.5377   20.4851 C.3     1  UNL1        0.0071
      2 C           4.3377   -3.5476   21.9558 C.3     1  UNL1        0.0177
      3 C           5.4176   -3.9012   22.9349 C.3     1  UNL1        0.0721
      4 N           6.7925   -4.2448   22.4433 N.3     1  UNL1       -0.2724
      5 C           7.0874   -4.2349   20.9727 C.3     1  UNL1        0.0721
      6 C           6.0075   -3.8813   19.9936 C.3     1  UNL1        0.0177
      7 C           3.5527   -3.1841   19.5059 C.3     1  UNL1        0.0265
      8 C           1.5661    0.2319   19.8723 C.ar    1  UNL1        0.1445
      9 C           1.9685   -1.2008   20.0601 C.ar    1  UNL1        0.0331
     10 C           3.1503   -1.7514   19.3182 C.ar    1  UNL1       -0.0191
     11 C           3.9296   -0.8692   18.3885 C.ar    1  UNL1       -0.0036
     12 C           3.5272    0.5637   18.2007 C.ar    1  UNL1        0.0094
     13 C           2.3455    1.1142   18.9426 C.ar    1  UNL1        0.0684
     14 BR          1.9431    2.5469   18.7548 Br      1  UNL1       -0.0458
     15 O           0.3844    0.7825   20.6143 O.3     1  UNL1       -0.4723
     16 C           0.5632    1.3593   21.9873 C.3     1  UNL1        0.2373
     17 C           1.9334    1.4472   22.5913 C.3     1  UNL1        0.1894
     18 C           3.0076   -0.6158   23.7490 C.3     1  UNL1        0.1743
     19 O           2.2539    0.6780   23.8386 O.3     1  UNL1       -0.3471
     20 C           7.8724   -4.5984   23.4225 C.3     1  UNL1        0.0768
     21 C           7.9585   -5.9907   23.9738 C.3     1  UNL1        0.0437
     22 C           8.0394   -6.2069   25.4560 C.ar    1  UNL1       -0.0205
     23 C           8.8019   -7.3772   26.0027 C.ar    1  UNL1       -0.0011
     24 C           8.8828   -7.5933   27.4849 C.ar    1  UNL1        0.0367
     25 C           8.2012   -6.6391   28.4202 C.ar    1  UNL1        0.1414
     26 C           7.4386   -5.4688   27.8735 C.ar    1  UNL1        0.0709
     27 C           7.3577   -5.2527   26.3914 C.ar    1  UNL1        0.0017
     28 C           6.7570   -4.5147   28.8089 C.2     1  UNL1        0.2063
     29 O           5.9945   -3.3444   28.2622 O.2     1  UNL1       -0.2886
     30 C           6.8379   -4.7308   30.2910 C.3     1  UNL1        0.2162
     31 O           6.1563   -3.7766   31.2264 O.3     1  UNL1       -0.3741
     32 C           7.6005   -5.9011   30.8378 C.3     1  UNL1        0.2424
     33 O           8.2821   -6.8553   29.9024 O.3     1  UNL1       -0.4723
     34 H           6.3062   -4.0590   32.1422 H       1  UNL1        0.2110
@<TRIPOS>BOND
     1    18    19    1
     2    19    17    1
     3    17    16    1
     4    16    15    1
     5    15     8    1
     6     8     9   ar
     7     9    10   ar
     8    10     7    1
     9     7     1    1
    10     1     2    1
    11     2     3    1
    12     3     4    1
    13     4    20    1
    14    20    21    1
    15    21    22    1
    16    22    23   ar
    17    23    24   ar
    18    24    25   ar
    19    25    26   ar
    20    26    27   ar
    21    26    28    1
    22    28    29    2
    23    28    30    1
    24    30    31    1
    25    30    32    1
    26    32    33    1
    27     4     5    1
    28     5     6    1
    29    10    11   ar
    30    11    12   ar
    31    12    13   ar
    32    13    14    1
    33    13     8   ar
    34     6     1    1
    35    27    22   ar
    36    33    25    1
    37    31    34    1
@<TRIPOS>MOLECULE
*****
 34 37 0 0 0
SMALL
GASTEIGER

@<TRIPOS>ATOM
      1 C           4.6639   -3.3485   20.6529 C.3     1  UNL1        0.0071
      2 C           5.9715   -3.7434   20.0331 C.3     1  UNL1        0.0177
      3 C           7.0941   -4.2336   20.8988 C.3     1  UNL1        0.0721
      4 N           6.9090   -4.3290   22.3843 N.3     1  UNL1       -0.2724
      5 C           5.6014   -3.9341   23.0041 C.3     1  UNL1        0.0721
      6 C           4.4789   -3.4439   22.1384 C.3     1  UNL1        0.0177
      7 C           3.5413   -2.8582   19.7872 C.3     1  UNL1        0.0265
      8 C           2.3243    0.9189   19.8309 C.ar    1  UNL1        0.1445
      9 C           2.4320   -0.5394   20.1649 C.ar    1  UNL1        0.0331
     10 C           3.4336   -1.3999   19.4532 C.ar    1  UNL1       -0.0191
     11 C           4.3274   -0.8020   18.4075 C.ar    1  UNL1       -0.0036
     12 C           4.2197    0.6564   18.0734 C.ar    1  UNL1        0.0094
     13 C           3.2182    1.5169   18.7852 C.ar    1  UNL1        0.0684
     14 BR          3.1105    2.9752   18.4512 Br      1  UNL1       -0.0458
     15 O           1.3228    1.7794   20.5426 O.3     1  UNL1       -0.4723
     16 C          -0.0827    1.8766   20.0279 C.3     1  UNL1        0.2373
     17 C          -1.0131    2.9162   20.5790 C.3     1  UNL1        0.1894
     18 C          -3.4506    3.6832   21.0483 C.3     1  UNL1        0.1743
     19 O          -2.4583    2.5847   20.8059 O.3     1  UNL1       -0.3471
     20 C           8.0317   -4.8192   23.2500 C.3     1  UNL1        0.0768
     21 C           7.9792   -6.1989   23.8364 C.3     1  UNL1        0.0437
     22 C           8.0822   -6.3873   25.3210 C.ar    1  UNL1       -0.0205
     23 C           8.8781   -7.5299   25.8785 C.ar    1  UNL1       -0.0011
     24 C           8.9811   -7.7183   27.3630 C.ar    1  UNL1        0.0367
     25 C           8.2882   -6.7641   28.2900 C.ar    1  UNL1        0.1414
     26 C           7.4922   -5.6215   27.7325 C.ar    1  UNL1        0.0709
     27 C           7.3892   -5.4331   26.2479 C.ar    1  UNL1        0.0017
     28 C           6.7992   -4.6673   28.6595 C.2     1  UNL1        0.2063
     29 O           6.0033   -3.5247   28.1019 O.2     1  UNL1       -0.2886
     30 C           6.9022   -4.8557   30.1440 C.3     1  UNL1        0.2162
     31 O           6.2093   -3.9015   31.0710 O.3     1  UNL1       -0.3741
     32 C           7.6982   -5.9984   30.7016 C.3     1  UNL1        0.2424
     33 O           8.3912   -6.9526   29.7746 O.3     1  UNL1       -0.4723
     34 H           6.3763   -4.1644   31.9896 H       1  UNL1        0.2110
@<TRIPOS>BOND
     1    18    19    1
     2    19    17    1
     3    17    16    1
     4    16    15    1
     5    15     8    1
     6     8     9   ar
     7     9    10   ar
     8    10     7    1
     9     7     1    1
    10     1     2    1
    11     2     3    1
    12     3     4    1
    13     4    20    1
    14    20    21    1
    15    21    22    1
    16    22    23   ar
    17    23    24   ar
    18    24    25   ar
    19    25    26   ar
    20    26    27   ar
    21    26    28    1
    22    28    29    2
    23    28    30    1
    24    30    31    1
    25    30    32    1
    26    32    33    1
    27     4     5    1
    28     5     6    1
    29    10    11   ar
    30    11    12   ar
    31    12    13   ar
    32    13    14    1
    33    13     8   ar
    34     6     1    1
    35    27    22   ar
    36    33    25    1
    37    31    34    1
