@<TRIPOS>MOLECULE
*****
 32 35 0 0 0
SMALL
GASTEIGER

@<TRIPOS>ATOM
      1 C          -4.6364  -16.8686   22.9928 C.3     1  UNL1        0.0964
      2 C          -5.9672  -17.2796   22.4358 C.3     1  UNL1        0.0430
      3 C          -7.0273  -16.8594   23.4103 C.3     1  UNL1        0.0985
      4 N          -6.3516  -16.1887   24.5695 N.am    1  UNL1       -0.2443
      5 C          -7.0339  -15.6134   25.7752 C.2     1  UNL1        0.4048
      6 O          -6.2226  -14.9698   26.8603 O.2     1  UNL1       -0.2262
      7 C          -4.8740  -16.1944   24.3115 C.3     1  UNL1        0.1163
      8 C          -2.8468  -18.4860   22.0277 C.2     1  UNL1        0.4014
      9 O          -3.7256  -19.6557   22.3586 O.2     1  UNL1       -0.2264
     10 N          -3.3023  -17.0925   22.3448 N.am    1  UNL1       -0.2705
     11 H          -2.7255  -16.3247   22.1276 H       1  UNL1        0.1527
     12 O          -1.5127  -18.7099   21.3797 O.3     1  UNL1       -0.4419
     13 C          -0.0293  -17.5933   20.3535 C.3     1  UNL1        0.0437
     14 C          -1.2925  -18.2973   19.9545 C.3     1  UNL1        0.1378
     15 C          -2.5555  -19.0012   19.5555 C.3     1  UNL1        0.0437
     16 C          -1.0722  -17.8846   18.5293 C.3     1  UNL1        0.0437
     17 O          -8.5275  -15.6816   25.8956 O.3     1  UNL1       -0.4383
     18 C          -9.2833  -16.7951   25.2330 C.3     1  UNL1        0.1702
     19 C          -9.8969  -16.5842   23.8806 C.3     1  UNL1        0.0407
     20 C         -10.0391  -17.9085   24.5704 C.3     1  UNL1        0.0036
     21 C         -10.7948  -19.0219   23.9078 C.3     1  UNL1        0.0007
     22 C         -10.1813  -19.2329   25.2602 C.3     1  UNL1        0.0036
     23 C          -9.4255  -18.1195   25.9228 C.3     1  UNL1        0.0407
     24 C         -10.9941  -18.3731   23.0446 C.3     1  UNL1        0.0122
     25 C         -11.2662  -17.4867   21.8656 C.3     1  UNL1        0.0688
     26 C         -11.4084  -18.8110   22.5554 C.3     1  UNL1        0.0086
     27 C         -10.5105  -16.3733   22.5282 C.3     1  UNL1        0.0122
     28 C         -11.8798  -17.2757   20.5131 C.2     1  UNL1        0.2184
     29 N         -12.9342  -16.2259   20.3234 N.am    1  UNL1       -0.3288
     30 O         -11.4390  -18.1146   19.3505 O.2     1  UNL1       -0.2754
     31 H         -13.2236  -15.6753   21.0865 H       1  UNL1        0.1449
     32 H         -13.3369  -16.0875   19.4358 H       1  UNL1        0.1449
@<TRIPOS>BOND
     1    13    14    1
     2    14    15    1
     3    14    16    1
     4    14    12    1
     5    12     8    1
     6     8     9    2
     7     8    10   am
     8     1    10    1
     9     1     2    1
    10     2     3    1
    11     3     4    1
    12     4     5   am
    13     5     6    2
    14     5    17    1
    15    18    17    1
    16    18    19    1
    17    19    20    1
    18    20    21    1
    19    21    22    1
    20    22    23    1
    21    23    24    1
    22    24    25    1
    23    25    28    1
    24    28    29   am
    25    28    30    2
    26    25    26    1
    27    25    27    1
    28     4     7    1
    29     7     1    1
    30    23    18    1
    31    27    19    1
    32    26    21    1
    33    10    11    1
    34    29    31    1
    35    29    32    1
@<TRIPOS>MOLECULE
*****
 32 35 0 0 0
SMALL
GASTEIGER

@<TRIPOS>ATOM
      1 C          -5.6457  -18.9077   20.9983 C.3     1  UNL1        0.0964
      2 C          -6.6545  -18.8417   22.1066 C.3     1  UNL1        0.0430
      3 C          -7.9974  -19.1831   21.5319 C.3     1  UNL1        0.0985
      4 N          -7.8185  -19.4601   20.0686 N.am    1  UNL1       -0.2443
      5 C          -8.9027  -19.8405   19.1043 C.2     1  UNL1        0.4048
      6 O          -8.5712  -20.0879   17.6625 O.2     1  UNL1       -0.2262
      7 C          -6.3651  -19.2899   19.7388 C.3     1  UNL1        0.1163
      8 C          -3.1839  -19.7062   20.7709 C.2     1  UNL1        0.4014
      9 O          -3.6622  -21.0427   20.2860 O.2     1  UNL1       -0.2264
     10 N          -4.1757  -18.6388   21.1270 N.am    1  UNL1       -0.2705
     11 H          -3.8618  -17.7616   21.4453 H       1  UNL1        0.1527
     12 O          -1.7139  -19.4373   20.8996 O.3     1  UNL1       -0.4419
     13 C          -1.0753  -18.2598   19.2546 C.3     1  UNL1        0.0437
     14 C          -1.1894  -18.0417   20.7343 C.3     1  UNL1        0.1378
     15 C          -1.3036  -17.8236   22.2140 C.3     1  UNL1        0.0437
     16 C          -0.6650  -16.6462   20.5691 C.3     1  UNL1        0.0437
     17 O         -10.3184  -19.9736   19.5819 O.3     1  UNL1       -0.4383
     18 C         -10.9892  -18.8217   20.2700 C.3     1  UNL1        0.1702
     19 C         -11.7962  -19.0571   21.5123 C.3     1  UNL1        0.0407
     20 C         -11.6600  -17.6700   20.9581 C.3     1  UNL1        0.0036
     21 C         -12.3308  -16.5183   21.6462 C.3     1  UNL1        0.0007
     22 C         -11.5238  -16.2828   20.4039 C.3     1  UNL1        0.0036
     23 C         -10.8530  -17.4346   19.7158 C.3     1  UNL1        0.0407
     24 C         -12.7295  -17.2040   22.4055 C.3     1  UNL1        0.0122
     25 C         -13.2740  -18.1408   23.4427 C.3     1  UNL1        0.0688
     26 C         -13.1378  -16.7537   22.8885 C.3     1  UNL1        0.0086
     27 C         -12.6032  -19.2926   22.7546 C.3     1  UNL1        0.0122
     28 C         -14.0810  -18.3762   24.6850 C.2     1  UNL1        0.2184
     29 N         -13.4100  -18.3764   26.0265 N.am    1  UNL1       -0.3288
     30 O         -15.5591  -18.6115   24.5858 O.2     1  UNL1       -0.2754
     31 H         -12.4399  -18.2219   26.0916 H       1  UNL1        0.1449
     32 H         -13.9397  -18.5309   26.8418 H       1  UNL1        0.1449
@<TRIPOS>BOND
     1    13    14    1
     2    14    15    1
     3    14    16    1
     4    14    12    1
     5    12     8    1
     6     8     9    2
     7     8    10   am
     8     1    10    1
     9     1     2    1
    10     2     3    1
    11     3     4    1
    12     4     5   am
    13     5     6    2
    14     5    17    1
    15    18    17    1
    16    18    19    1
    17    19    20    1
    18    20    21    1
    19    21    22    1
    20    22    23    1
    21    23    24    1
    22    24    25    1
    23    25    28    1
    24    28    29   am
    25    28    30    2
    26    25    26    1
    27    25    27    1
    28     4     7    1
    29     7     1    1
    30    23    18    1
    31    27    19    1
    32    26    21    1
    33    10    11    1
    34    29    31    1
    35    29    32    1
@<TRIPOS>MOLECULE
*****
 32 35 0 0 0
SMALL
GASTEIGER

@<TRIPOS>ATOM
      1 C          -4.8943  -19.6355   20.8707 C.3     1  UNL1        0.0964
      2 C          -5.6400  -20.0134   22.1161 C.3     1  UNL1        0.0430
      3 C          -7.1019  -20.0642   21.7836 C.3     1  UNL1        0.0985
      4 N          -7.2595  -19.7177   20.3327 N.am    1  UNL1       -0.2443
      5 C          -8.5543  -19.6483   19.5785 C.2     1  UNL1        0.4048
      6 O          -8.5558  -19.2863   18.1228 O.2     1  UNL1       -0.2262
      7 C          -5.8952  -19.4527   19.7685 C.3     1  UNL1        0.1163
      8 C          -2.6465  -18.7332   21.8105 C.2     1  UNL1        0.4014
      9 O          -3.3703  -18.1630   22.9941 O.2     1  UNL1       -0.2264
     10 N          -3.4086  -19.4695   20.7488 N.am    1  UNL1       -0.2705
     11 H          -2.9335  -19.8437   19.9720 H       1  UNL1        0.1527
     12 O          -1.1608  -18.5672   21.6887 O.3     1  UNL1       -0.4419
     13 C           0.1702  -18.7915   20.0521 C.3     1  UNL1        0.0437
     14 C          -0.5917  -17.6462   20.6505 C.3     1  UNL1        0.1378
     15 C          -1.3535  -16.5010   21.2488 C.3     1  UNL1        0.0437
     16 C          -0.0225  -16.7252   19.6123 C.3     1  UNL1        0.0437
     17 O          -9.8475  -19.9409   20.2799 O.3     1  UNL1       -0.4383
     18 C         -10.4927  -18.8893   21.1331 C.3     1  UNL1        0.1702
     19 C          -9.6561  -18.0590   22.0609 C.3     1  UNL1        0.0407
     20 C         -11.1378  -17.8376   21.9862 C.3     1  UNL1        0.0036
     21 C         -11.7829  -16.7860   22.8393 C.3     1  UNL1        0.0007
     22 C         -12.6194  -17.6163   21.9115 C.3     1  UNL1        0.0036
     23 C         -11.9743  -18.6679   21.0584 C.3     1  UNL1        0.0407
     24 C         -10.8031  -16.5286   23.2630 C.3     1  UNL1        0.0122
     25 C          -9.4647  -16.1771   23.8418 C.3     1  UNL1        0.0688
     26 C         -10.9463  -15.9558   23.7671 C.3     1  UNL1        0.0086
     27 C          -8.8196  -17.2287   22.9887 C.3     1  UNL1        0.0122
     28 C          -8.6281  -15.3469   24.7696 C.2     1  UNL1        0.2184
     29 N          -7.7251  -14.2843   24.2171 N.am    1  UNL1       -0.3288
     30 O          -8.6947  -15.5791   26.2500 O.2     1  UNL1       -0.2754
     31 H          -7.6814  -14.1318   23.2454 H       1  UNL1        0.1449
     32 H          -7.1760  -13.7394   24.8260 H       1  UNL1        0.1449
@<TRIPOS>BOND
     1    13    14    1
     2    14    15    1
     3    14    16    1
     4    14    12    1
     5    12     8    1
     6     8     9    2
     7     8    10   am
     8     1    10    1
     9     1     2    1
    10     2     3    1
    11     3     4    1
    12     4     5   am
    13     5     6    2
    14     5    17    1
    15    18    17    1
    16    18    19    1
    17    19    20    1
    18    20    21    1
    19    21    22    1
    20    22    23    1
    21    23    24    1
    22    24    25    1
    23    25    28    1
    24    28    29   am
    25    28    30    2
    26    25    26    1
    27    25    27    1
    28     4     7    1
    29     7     1    1
    30    23    18    1
    31    27    19    1
    32    26    21    1
    33    10    11    1
    34    29    31    1
    35    29    32    1
@<TRIPOS>MOLECULE
*****
 32 35 0 0 0
SMALL
GASTEIGER

@<TRIPOS>ATOM
      1 C          -6.4895  -19.3198   21.7059 C.3     1  UNL1        0.0964
      2 C          -7.0572  -17.9650   22.0100 C.3     1  UNL1        0.0430
      3 C          -8.1466  -18.1366   23.0268 C.3     1  UNL1        0.0985
      4 N          -8.2522  -19.5974   23.3510 N.am    1  UNL1       -0.2443
      5 C          -9.2133  -20.2180   24.3212 C.2     1  UNL1        0.4048
      6 O          -9.2021  -21.7014   24.5429 O.2     1  UNL1       -0.2262
      7 C          -7.2280  -20.3286   22.5346 C.3     1  UNL1        0.1163
      8 C          -3.9938  -19.1061   21.0161 C.2     1  UNL1        0.4014
      9 O          -3.7204  -18.3040   22.2538 O.2     1  UNL1       -0.2264
     10 N          -5.3784  -19.6140   20.7422 N.am    1  UNL1       -0.2705
     11 H          -5.5578  -20.1405   19.9299 H       1  UNL1        0.1527
     12 O          -2.8827  -19.4004   20.0524 O.3     1  UNL1       -0.4419
     13 C          -2.7244  -17.6737   18.8302 C.3     1  UNL1        0.0437
     14 C          -1.8183  -18.3743   19.7990 C.3     1  UNL1        0.1378
     15 C          -0.9123  -19.0747   20.7677 C.3     1  UNL1        0.0437
     16 C          -0.7540  -17.3482   19.5455 C.3     1  UNL1        0.0437
     17 O         -10.1854  -19.3550   25.0697 O.3     1  UNL1       -0.4383
     18 C         -11.2989  -18.6688   24.3354 C.3     1  UNL1        0.1702
     19 C         -11.0067  -17.8929   23.0854 C.3     1  UNL1        0.0407
     20 C         -12.4123  -17.9825   23.6011 C.3     1  UNL1        0.0036
     21 C         -13.5258  -17.2963   22.8668 C.3     1  UNL1        0.0007
     22 C         -13.8180  -18.0722   24.1168 C.3     1  UNL1        0.0036
     23 C         -12.7046  -18.7584   24.8511 C.3     1  UNL1        0.0407
     24 C         -12.8082  -16.9304   22.1204 C.3     1  UNL1        0.0122
     25 C         -11.8279  -16.4308   21.1010 C.3     1  UNL1        0.0688
     26 C         -13.2335  -16.5204   21.6167 C.3     1  UNL1        0.0086
     27 C         -10.7144  -17.1170   21.8353 C.3     1  UNL1        0.0122
     28 C         -11.5356  -15.6549   19.8510 C.2     1  UNL1        0.2184
     29 N         -12.5545  -15.5918   18.7519 N.am    1  UNL1       -0.3288
     30 O         -10.2246  -14.9420   19.6999 O.2     1  UNL1       -0.2754
     31 H         -13.4150  -16.0597   18.8510 H       1  UNL1        0.1449
     32 H         -12.3627  -15.0826   17.9315 H       1  UNL1        0.1449
@<TRIPOS>BOND
     1    13    14    1
     2    14    15    1
     3    14    16    1
     4    14    12    1
     5    12     8    1
     6     8     9    2
     7     8    10   am
     8     1    10    1
     9     1     2    1
    10     2     3    1
    11     3     4    1
    12     4     5   am
    13     5     6    2
    14     5    17    1
    15    18    17    1
    16    18    19    1
    17    19    20    1
    18    20    21    1
    19    21    22    1
    20    22    23    1
    21    23    24    1
    22    24    25    1
    23    25    28    1
    24    28    29   am
    25    28    30    2
    26    25    26    1
    27    25    27    1
    28     4     7    1
    29     7     1    1
    30    23    18    1
    31    27    19    1
    32    26    21    1
    33    10    11    1
    34    29    31    1
    35    29    32    1
@<TRIPOS>MOLECULE
*****
 32 35 0 0 0
SMALL
GASTEIGER

@<TRIPOS>ATOM
      1 C           1.7998    0.0264   19.5652 C.3     1  UNL1        0.0964
      2 C           1.7519    0.7777   18.2677 C.3     1  UNL1        0.0430
      3 C           0.7765    1.9068   18.4217 C.3     1  UNL1        0.0985
      4 N           0.2215    1.8533   19.8142 N.am    1  UNL1       -0.2443
      5 C          -0.7886    2.7964   20.3976 C.2     1  UNL1        0.4048
      6 O          -1.2522    2.6173   21.8129 O.2     1  UNL1       -0.2262
      7 C           0.8539    0.6911   20.5209 C.3     1  UNL1        0.1163
      8 C           4.1355   -1.0420   19.9565 C.2     1  UNL1        0.4014
      9 O           4.7806    0.2988   19.7666 O.2     1  UNL1       -0.2264
     10 N           2.6450   -1.1781   19.8558 N.am    1  UNL1       -0.2705
     11 H           2.2216   -2.0581   19.9804 H       1  UNL1        0.1527
     12 O           4.9807   -2.2465   20.2471 O.3     1  UNL1       -0.4419
     13 C           5.2384   -2.8877   18.2414 C.3     1  UNL1        0.0437
     14 C           4.7417   -3.5274   19.5041 C.3     1  UNL1        0.1378
     15 C           4.2451   -4.1672   20.7666 C.3     1  UNL1        0.0437
     16 C           4.5028   -4.8084   18.7611 C.3     1  UNL1        0.0437
     17 O          -1.3351    3.9186   19.5657 O.3     1  UNL1       -0.4383
     18 C          -2.7948    3.9558   19.2225 C.3     1  UNL1        0.1702
     19 C          -3.8082    4.2551   20.2872 C.3     1  UNL1        0.0407
     20 C          -4.2545    3.9931   18.8793 C.3     1  UNL1        0.0036
     21 C          -5.7143    4.0303   18.5362 C.3     1  UNL1        0.0007
     22 C          -4.7009    3.7310   17.4715 C.3     1  UNL1        0.0036
     23 C          -3.2412    3.6938   17.8146 C.3     1  UNL1        0.0407
     24 C          -5.9540    4.2675   19.5812 C.3     1  UNL1        0.0122
     25 C          -6.2813    4.5916   21.0087 C.3     1  UNL1        0.0688
     26 C          -6.7276    4.3296   19.6008 C.3     1  UNL1        0.0086
     27 C          -4.8216    4.5543   21.3518 C.3     1  UNL1        0.0122
     28 C          -7.2946    4.8908   22.0733 C.2     1  UNL1        0.2184
     29 N          -7.6190    3.8580   23.1116 N.am    1  UNL1       -0.3288
     30 O          -7.9837    6.2229   22.0998 O.2     1  UNL1       -0.2754
     31 H          -7.1668    2.9837   23.0943 H       1  UNL1        0.1449
     32 H          -8.2841    4.0544   23.8104 H       1  UNL1        0.1449
@<TRIPOS>BOND
     1    13    14    1
     2    14    15    1
     3    14    16    1
     4    14    12    1
     5    12     8    1
     6     8     9    2
     7     8    10   am
     8     1    10    1
     9     1     2    1
    10     2     3    1
    11     3     4    1
    12     4     5   am
    13     5     6    2
    14     5    17    1
    15    18    17    1
    16    18    19    1
    17    19    20    1
    18    20    21    1
    19    21    22    1
    20    22    23    1
    21    23    24    1
    22    24    25    1
    23    25    28    1
    24    28    29   am
    25    28    30    2
    26    25    26    1
    27    25    27    1
    28     4     7    1
    29     7     1    1
    30    23    18    1
    31    27    19    1
    32    26    21    1
    33    10    11    1
    34    29    31    1
    35    29    32    1
@<TRIPOS>MOLECULE
*****
 32 35 0 0 0
SMALL
GASTEIGER

@<TRIPOS>ATOM
      1 C           7.7600   -4.3681   25.9359 C.3     1  UNL1        0.0964
      2 C           8.2827   -5.2698   24.8571 C.3     1  UNL1        0.0430
      3 C           7.4314   -5.0751   23.6374 C.3     1  UNL1        0.0985
      4 N           6.3827   -4.0531   23.9626 N.am    1  UNL1       -0.2443
      5 C           5.3177   -3.5554   23.0307 C.2     1  UNL1        0.4048
      6 O           4.3326   -2.5258   23.4991 O.2     1  UNL1       -0.2262
      7 C           6.5857   -3.6162   25.3831 C.3     1  UNL1        0.1163
      8 C           7.5537   -4.8002   28.4895 C.2     1  UNL1        0.4014
      9 O           6.2389   -5.4869   28.2671 O.2     1  UNL1       -0.2264
     10 N           8.3143   -4.2408   27.3239 N.am    1  UNL1       -0.2705
     11 H           9.1773   -3.7901   27.4698 H       1  UNL1        0.1527
     12 O           8.1080   -4.6729   29.8775 O.3     1  UNL1       -0.4419
     13 C           7.4116   -2.7536   30.4533 C.3     1  UNL1        0.0437
     14 C           7.2439   -4.1463   30.9847 C.3     1  UNL1        0.1378
     15 C           7.0763   -5.5390   31.5161 C.3     1  UNL1        0.0437
     16 C           6.3798   -3.6198   32.0920 C.3     1  UNL1        0.0437
     17 O           5.2380   -4.0874   21.6305 O.3     1  UNL1       -0.4383
     18 C           4.9796   -3.1522   20.4864 C.3     1  UNL1        0.1702
     19 C           3.7466   -2.2979   20.4798 C.3     1  UNL1        0.0407
     20 C           4.7212   -2.2171   19.3425 C.3     1  UNL1        0.0036
     21 C           4.4628   -1.2820   18.1985 C.3     1  UNL1        0.0007
     22 C           5.6957   -2.1363   18.2051 C.3     1  UNL1        0.0036
     23 C           5.9541   -3.0714   19.3490 C.3     1  UNL1        0.0407
     24 C           3.5298   -0.9551   18.6764 C.3     1  UNL1        0.0122
     25 C           2.2553   -0.5085   19.3293 C.3     1  UNL1        0.0688
     26 C           3.2299   -0.4277   18.1919 C.3     1  UNL1        0.0086
     27 C           2.5137   -1.4436   20.4733 C.3     1  UNL1        0.0122
     28 C           1.0224    0.3458   19.3227 C.2     1  UNL1        0.2184
     29 N          -0.0315    0.1498   20.3719 N.am    1  UNL1       -0.3288
     30 O           0.8433    1.3961   18.2669 O.2     1  UNL1       -0.2754
     31 H           0.0860   -0.5396   21.0649 H       1  UNL1        0.1449
     32 H          -0.8407    0.7105   20.3676 H       1  UNL1        0.1449
@<TRIPOS>BOND
     1    13    14    1
     2    14    15    1
     3    14    16    1
     4    14    12    1
     5    12     8    1
     6     8     9    2
     7     8    10   am
     8     1    10    1
     9     1     2    1
    10     2     3    1
    11     3     4    1
    12     4     5   am
    13     5     6    2
    14     5    17    1
    15    18    17    1
    16    18    19    1
    17    19    20    1
    18    20    21    1
    19    21    22    1
    20    22    23    1
    21    23    24    1
    22    24    25    1
    23    25    28    1
    24    28    29   am
    25    28    30    2
    26    25    26    1
    27    25    27    1
    28     4     7    1
    29     7     1    1
    30    23    18    1
    31    27    19    1
    32    26    21    1
    33    10    11    1
    34    29    31    1
    35    29    32    1
@<TRIPOS>MOLECULE
*****
 32 35 0 0 0
SMALL
GASTEIGER

@<TRIPOS>ATOM
      1 C           1.9168   -0.1159   20.8610 C.3     1  UNL1        0.0964
      2 C           2.5423    0.6568   21.9843 C.3     1  UNL1        0.0430
      3 C           1.6200    1.7848   22.3409 C.3     1  UNL1        0.0985
      4 N           0.4246    1.7092   21.4380 N.am    1  UNL1       -0.2443
      5 C          -0.7484    2.6442   21.4480 C.2     1  UNL1        0.4048
      6 O          -1.8765    2.4425   20.4802 O.2     1  UNL1       -0.2262
      7 C           0.6080    0.5346   20.5234 C.3     1  UNL1        0.1163
      8 C           3.3246   -1.1730   18.9504 C.2     1  UNL1        0.4014
      9 O           3.5699    0.1910   18.3765 O.2     1  UNL1       -0.2264
     10 N           2.4980   -1.3264   20.1926 N.am    1  UNL1       -0.2705
     11 H           2.3370   -2.2216   20.5693 H       1  UNL1        0.1527
     12 O           3.9059   -2.3835   18.2820 O.3     1  UNL1       -0.4419
     13 C           5.8756   -2.3272   19.0676 C.3     1  UNL1        0.0437
     14 C           4.7631   -3.3334   19.0648 C.3     1  UNL1        0.1378
     15 C           3.6506   -4.3396   19.0621 C.3     1  UNL1        0.0437
     16 C           5.6203   -4.2834   19.8476 C.3     1  UNL1        0.0437
     17 O          -0.7931    3.7808   22.4258 O.3     1  UNL1       -0.4383
     18 C          -1.7430    3.7352   23.5859 C.3     1  UNL1        0.1702
     19 C          -3.1878    4.0860   23.3865 C.3     1  UNL1        0.0407
     20 C          -2.6929    3.6896   24.7459 C.3     1  UNL1        0.0036
     21 C          -3.6428    3.6441   25.9059 C.3     1  UNL1        0.0007
     22 C          -2.1981    3.2933   26.1053 C.3     1  UNL1        0.0036
     23 C          -1.2482    3.3389   24.9453 C.3     1  UNL1        0.0407
     24 C          -4.4626    3.9598   25.2470 C.3     1  UNL1        0.0122
     25 C          -5.5823    4.3912   24.3470 C.3     1  UNL1        0.0688
     26 C          -5.0875    3.9949   25.7064 C.3     1  UNL1        0.0086
     27 C          -4.6325    4.4368   23.1871 C.3     1  UNL1        0.0122
     28 C          -7.0271    4.7420   24.1476 C.2     1  UNL1        0.2184
     29 N          -7.9017    3.8655   23.3011 N.am    1  UNL1       -0.3288
     30 O          -7.5971    5.9692   24.7947 O.2     1  UNL1       -0.2754
     31 H          -7.5276    3.0599   22.8764 H       1  UNL1        0.1449
     32 H          -8.8499    4.0957   23.1702 H       1  UNL1        0.1449
@<TRIPOS>BOND
     1    13    14    1
     2    14    15    1
     3    14    16    1
     4    14    12    1
     5    12     8    1
     6     8     9    2
     7     8    10   am
     8     1    10    1
     9     1     2    1
    10     2     3    1
    11     3     4    1
    12     4     5   am
    13     5     6    2
    14     5    17    1
    15    18    17    1
    16    18    19    1
    17    19    20    1
    18    20    21    1
    19    21    22    1
    20    22    23    1
    21    23    24    1
    22    24    25    1
    23    25    28    1
    24    28    29   am
    25    28    30    2
    26    25    26    1
    27    25    27    1
    28     4     7    1
    29     7     1    1
    30    23    18    1
    31    27    19    1
    32    26    21    1
    33    10    11    1
    34    29    31    1
    35    29    32    1
@<TRIPOS>MOLECULE
*****
 32 35 0 0 0
SMALL
GASTEIGER

@<TRIPOS>ATOM
      1 C           6.1298   -2.9526   24.4308 C.3     1  UNL1        0.0964
      2 C           4.7661   -2.3353   24.3334 C.3     1  UNL1        0.0430
      3 C           4.2149   -2.6416   22.9722 C.3     1  UNL1        0.0985
      4 N           5.2379   -3.4482   22.2287 N.am    1  UNL1       -0.2443
      5 C           5.1014   -3.9707   20.8292 C.2     1  UNL1        0.4048
      6 O           6.2141   -4.7666   20.2140 O.2     1  UNL1       -0.2262
      7 C           6.4213   -3.6404   23.1301 C.3     1  UNL1        0.1163
      8 C           7.2577   -4.1152   26.4621 C.2     1  UNL1        0.4014
      9 O           6.5618   -5.3977   26.1145 O.2     1  UNL1       -0.2264
     10 N           7.0417   -2.8927   25.6202 N.am    1  UNL1       -0.2705
     11 H           7.4984   -2.0509   25.8483 H       1  UNL1        0.1527
     12 O           8.1696   -4.0553   27.6515 O.3     1  UNL1       -0.4419
     13 C           6.7203   -3.7719   29.1744 C.3     1  UNL1        0.0437
     14 C           7.8033   -4.7767   28.9145 C.3     1  UNL1        0.1378
     15 C           8.8863   -5.7815   28.6547 C.3     1  UNL1        0.0437
     16 C           7.4370   -5.4981   30.1776 C.3     1  UNL1        0.0437
     17 O           3.8523   -3.6975   20.0451 O.3     1  UNL1       -0.4383
     18 C           3.6891   -2.3915   19.3254 C.3     1  UNL1        0.1702
     19 C           2.6015   -1.4419   19.7318 C.3     1  UNL1        0.0407
     20 C           3.5260   -1.0856   18.6057 C.3     1  UNL1        0.0036
     21 C           3.3629    0.2203   17.8860 C.3     1  UNL1        0.0007
     22 C           4.4505   -0.7294   17.4795 C.3     1  UNL1        0.0036
     23 C           4.6137   -2.0352   18.1992 C.3     1  UNL1        0.0407
     24 C           2.5124    0.4711   18.5337 C.3     1  UNL1        0.0122
     25 C           1.3507    0.8136   19.4186 C.3     1  UNL1        0.0688
     26 C           2.2752    1.1699   18.2924 C.3     1  UNL1        0.0086
     27 C           1.5138   -0.4923   20.1383 C.3     1  UNL1        0.0122
     28 C           0.2630    1.7632   19.8251 C.2     1  UNL1        0.2184
     29 N          -0.3392    1.6715   21.1958 N.am    1  UNL1       -0.3288
     30 O          -0.2225    2.8046   18.8608 O.2     1  UNL1       -0.2754
     31 H          -0.0205    0.9880   21.8287 H       1  UNL1        0.1449
     32 H          -1.0530    2.2948   21.4626 H       1  UNL1        0.1449
@<TRIPOS>BOND
     1    13    14    1
     2    14    15    1
     3    14    16    1
     4    14    12    1
     5    12     8    1
     6     8     9    2
     7     8    10   am
     8     1    10    1
     9     1     2    1
    10     2     3    1
    11     3     4    1
    12     4     5   am
    13     5     6    2
    14     5    17    1
    15    18    17    1
    16    18    19    1
    17    19    20    1
    18    20    21    1
    19    21    22    1
    20    22    23    1
    21    23    24    1
    22    24    25    1
    23    25    28    1
    24    28    29   am
    25    28    30    2
    26    25    26    1
    27    25    27    1
    28     4     7    1
    29     7     1    1
    30    23    18    1
    31    27    19    1
    32    26    21    1
    33    10    11    1
    34    29    31    1
    35    29    32    1
@<TRIPOS>MOLECULE
*****
 32 35 0 0 0
SMALL
GASTEIGER

@<TRIPOS>ATOM
      1 C           2.3261   -0.1649   28.9186 C.3     1  UNL1        0.0964
      2 C           1.6064    1.0592   28.4350 C.3     1  UNL1        0.0430
      3 C           1.9903    1.2873   27.0030 C.3     1  UNL1        0.0985
      4 N           2.9472    0.2042   26.6015 N.am    1  UNL1       -0.2443
      5 C           3.5847    0.0463   25.2529 C.2     1  UNL1        0.4048
      6 O           4.5267   -1.0927   24.9973 O.2     1  UNL1       -0.2262
      7 C           3.1548   -0.6933   27.7854 C.3     1  UNL1        0.1163
      8 C           3.4011   -0.6632   31.2307 C.2     1  UNL1        0.4014
      9 O           4.6614    0.0219   30.7924 O.2     1  UNL1       -0.2264
     10 N           2.2335   -0.7565   30.2937 N.am    1  UNL1       -0.2705
     11 H           1.4062   -1.2062   30.5814 H       1  UNL1        0.1527
     12 O           3.3084   -1.2549   32.6059 O.3     1  UNL1       -0.4419
     13 C           4.9511   -2.3943   33.3154 C.3     1  UNL1        0.0437
     14 C           4.4099   -1.0240   33.5975 C.3     1  UNL1        0.1378
     15 C           3.8688    0.3462   33.8797 C.3     1  UNL1        0.0437
     16 C           5.5114   -0.7932   34.5891 C.3     1  UNL1        0.0437
     17 O           3.2802    1.0273   24.1599 O.3     1  UNL1       -0.4383
     18 C           2.5707    0.5716   22.9193 C.3     1  UNL1        0.1702
     19 C           3.2185   -0.4301   22.0100 C.3     1  UNL1        0.0407
     20 C           1.8613    0.1160   21.6787 C.3     1  UNL1        0.0036
     21 C           1.1520   -0.3397   20.4381 C.3     1  UNL1        0.0007
     22 C           0.5041    0.6620   21.3474 C.3     1  UNL1        0.0036
     23 C           1.2135    1.1177   22.5880 C.3     1  UNL1        0.0407
     24 C           1.9994   -0.9939   20.1938 C.3     1  UNL1        0.0122
     25 C           3.1569   -1.8875   19.8601 C.3     1  UNL1        0.0688
     26 C           1.7998   -1.3415   19.5288 C.3     1  UNL1        0.0086
     27 C           3.8663   -1.4319   21.1006 C.3     1  UNL1        0.0122
     28 C           3.8048   -2.8893   18.9508 C.2     1  UNL1        0.2184
     29 N           3.2840   -4.2947   18.8909 N.am    1  UNL1       -0.3288
     30 O           4.9733   -2.4857   18.1013 O.2     1  UNL1       -0.2754
     31 H           2.5171   -4.5597   19.4484 H       1  UNL1        0.1449
     32 H           3.7092   -4.9522   18.2941 H       1  UNL1        0.1449
@<TRIPOS>BOND
     1    13    14    1
     2    14    15    1
     3    14    16    1
     4    14    12    1
     5    12     8    1
     6     8     9    2
     7     8    10   am
     8     1    10    1
     9     1     2    1
    10     2     3    1
    11     3     4    1
    12     4     5   am
    13     5     6    2
    14     5    17    1
    15    18    17    1
    16    18    19    1
    17    19    20    1
    18    20    21    1
    19    21    22    1
    20    22    23    1
    21    23    24    1
    22    24    25    1
    23    25    28    1
    24    28    29   am
    25    28    30    2
    26    25    26    1
    27    25    27    1
    28     4     7    1
    29     7     1    1
    30    23    18    1
    31    27    19    1
    32    26    21    1
    33    10    11    1
    34    29    31    1
    35    29    32    1
