@<TRIPOS>MOLECULE
*****
 37 42 0 0 0
SMALL
GASTEIGER

@<TRIPOS>ATOM
      1 C           2.6506    0.0316   27.6651 C.ar    1  UNL1        0.0140
      2 C           3.3071   -0.1751   26.3323 C.ar    1  UNL1        0.0011
      3 C           2.6626    0.3596   25.0878 C.ar    1  UNL1        0.0000
      4 C           1.3616    1.1011   25.1761 C.ar    1  UNL1        0.0000
      5 C           0.7171    1.6358   23.9317 C.ar    1  UNL1        0.0000
      6 C          -0.5838    2.3772   24.0200 C.ar    1  UNL1       -0.0000
      7 C          -1.2403    2.5838   25.3528 C.ar    1  UNL1       -0.0000
      8 C          -0.5958    2.0491   26.5973 C.ar    1  UNL1        0.0000
      9 C           0.7051    1.3077   26.5089 C.ar    1  UNL1        0.0000
     10 C           1.3497    0.7730   27.7534 C.ar    1  UNL1        0.0011
     11 C           3.3191    0.1530   23.7550 C.ar    1  UNL1       -0.0000
     12 C           2.9852   -1.0572   22.9341 C.ar    1  UNL1       -0.0003
     13 C           3.6417   -1.2638   21.6013 C.ar    1  UNL1       -0.0043
     14 C           4.6320   -0.2603   21.0894 C.ar    1  UNL1       -0.0227
     15 C           4.9660    0.9499   21.9104 C.ar    1  UNL1       -0.0043
     16 C           4.3095    1.1566   23.2432 C.ar    1  UNL1       -0.0003
     17 C           5.2885   -0.4670   19.7566 C.3     1  UNL1        0.0229
     18 C           4.7320    0.2019   18.5347 C.3     1  UNL1        0.0215
     19 C           5.3885   -0.0047   17.2019 C.3     1  UNL1        0.0724
     20 N           6.6015   -0.8803   17.0911 N.3     1  UNL1       -0.2726
     21 C           7.1579   -1.5491   18.3129 C.3     1  UNL1        0.0724
     22 C           6.5014   -1.3425   19.6457 C.3     1  UNL1        0.0215
     23 C           6.2761   -0.7970   17.8428 C.3     1  UNL1        0.0724
     24 C           5.6825   -0.6101   19.0480 C.3     1  UNL1        0.0215
     25 C          -2.5413    3.3253   25.4412 C.ar    1  UNL1       -0.0000
     26 C          -3.0913    3.7180   26.7802 C.ar    1  UNL1       -0.0001
     27 C          -4.3923    4.4594   26.8685 C.ar    1  UNL1        0.0039
     28 C          -5.1432    4.8081   25.6177 C.ar    1  UNL1        0.0714
     29 C          -4.5931    4.4153   24.2786 C.ar    1  UNL1        0.0039
     30 C          -3.2922    3.6739   24.1903 C.ar    1  UNL1       -0.0001
     31 C          -6.4442    5.5495   25.7060 C.3     1  UNL1        0.4186
     32 F          -7.7451    6.2909   25.7942 F       1  UNL1       -0.1659
     33 F          -6.5821    5.4851   24.2138 F       1  UNL1       -0.1659
     34 F          -6.3063    5.6139   27.1982 F       1  UNL1       -0.1659
     35 O           2.4653   -0.7628   30.1318 O.co2   1  UNL1       -0.5446
     36 C           3.2952   -0.5032   28.9095 C.2     1  UNL1        0.0729
     37 O           4.7695   -0.7784   28.9317 O.co2   1  UNL1       -0.5446
@<TRIPOS>UNITY_ATOM_ATTR
35 1
charge -1
@<TRIPOS>BOND
     1    35    36   ar
     2    36    37   ar
     3    36     1    1
     4     1     2   ar
     5     2     3   ar
     6     3    11    1
     7    11    12   ar
     8    12    13   ar
     9    13    14   ar
    10    14    17    1
    11    17    18    1
    12    18    19    1
    13    19    20    1
    14    20    21    1
    15    21    22    1
    16    20    23    1
    17    23    24    1
    18    14    15   ar
    19    15    16   ar
    20     3     4   ar
    21     4     5   ar
    22     5     6   ar
    23     6     7   ar
    24     7    25    1
    25    25    26   ar
    26    26    27   ar
    27    27    28   ar
    28    28    31    1
    29    31    32    1
    30    31    33    1
    31    31    34    1
    32    28    29   ar
    33    29    30   ar
    34     7     8   ar
    35     8     9   ar
    36     9    10   ar
    37    10     1   ar
    38    16    11   ar
    39     9     4   ar
    40    22    17    1
    41    30    25   ar
    42    24    17    1
@<TRIPOS>MOLECULE
*****
 37 42 0 0 0
SMALL
GASTEIGER

@<TRIPOS>ATOM
      1 C           8.3493   -6.3059   25.7076 C.ar    1  UNL1        0.0140
      2 C           8.4170   -5.6072   27.0332 C.ar    1  UNL1        0.0011
      3 C           7.6458   -4.3396   27.2531 C.ar    1  UNL1        0.0000
      4 C           6.8068   -3.7706   26.1474 C.ar    1  UNL1        0.0000
      5 C           6.0356   -2.5031   26.3674 C.ar    1  UNL1        0.0000
      6 C           5.1967   -1.9342   25.2617 C.ar    1  UNL1       -0.0000
      7 C           5.1290   -2.6329   23.9361 C.ar    1  UNL1       -0.0000
      8 C           5.9002   -3.9005   23.7162 C.ar    1  UNL1        0.0000
      9 C           6.7391   -4.4694   24.8218 C.ar    1  UNL1        0.0000
     10 C           7.5104   -5.7370   24.6020 C.ar    1  UNL1        0.0011
     11 C           7.7135   -3.6409   28.5787 C.ar    1  UNL1       -0.0000
     12 C           8.6262   -2.4645   28.7607 C.ar    1  UNL1       -0.0003
     13 C           8.6939   -1.7658   30.0863 C.ar    1  UNL1       -0.0043
     14 C           7.8489   -2.2434   31.2299 C.ar    1  UNL1       -0.0227
     15 C           6.9362   -3.4198   31.0480 C.ar    1  UNL1       -0.0043
     16 C           6.8685   -4.1186   29.7224 C.ar    1  UNL1       -0.0003
     17 C           7.9166   -1.5447   32.5555 C.3     1  UNL1        0.0229
     18 C           6.7343   -0.7688   33.0556 C.3     1  UNL1        0.0215
     19 C           6.8020   -0.0700   34.3812 C.3     1  UNL1        0.0724
     20 N           8.0521   -0.1472   35.2067 N.3     1  UNL1       -0.2726
     21 C           9.2344   -0.9231   34.7066 C.3     1  UNL1        0.0724
     22 C           9.1666   -1.6218   33.3810 C.3     1  UNL1        0.0215
     23 C           8.0622   -0.5466   34.4868 C.3     1  UNL1        0.0724
     24 C           8.0009   -1.1784   33.2881 C.3     1  UNL1        0.0215
     25 C           4.2900   -2.0640   22.8304 C.ar    1  UNL1       -0.0000
     26 C           3.3668   -0.9142   23.1051 C.ar    1  UNL1       -0.0001
     27 C           2.5278   -0.3452   21.9993 C.ar    1  UNL1        0.0039
     28 C           2.6121   -0.9262   20.6190 C.ar    1  UNL1        0.0714
     29 C           3.5354   -2.0761   20.3444 C.ar    1  UNL1        0.0039
     30 C           4.3743   -2.6450   21.4500 C.ar    1  UNL1       -0.0001
     31 C           1.7732   -0.3573   19.5133 C.3     1  UNL1        0.4186
     32 F           0.9343    0.2115   18.4076 F       1  UNL1       -0.1659
     33 F           0.5363   -0.6031   20.3254 F       1  UNL1       -0.1659
     34 F           3.0102   -0.1116   18.7012 F       1  UNL1       -0.1659
     35 O           9.5282   -7.9724   24.1004 O.co2   1  UNL1       -0.5446
     36 C           9.1206   -7.5735   25.4877 C.2     1  UNL1        0.0729
     37 O           9.4842   -8.4423   26.6552 O.co2   1  UNL1       -0.5446
@<TRIPOS>UNITY_ATOM_ATTR
35 1
charge -1
@<TRIPOS>BOND
     1    35    36   ar
     2    36    37   ar
     3    36     1    1
     4     1     2   ar
     5     2     3   ar
     6     3    11    1
     7    11    12   ar
     8    12    13   ar
     9    13    14   ar
    10    14    17    1
    11    17    18    1
    12    18    19    1
    13    19    20    1
    14    20    21    1
    15    21    22    1
    16    20    23    1
    17    23    24    1
    18    14    15   ar
    19    15    16   ar
    20     3     4   ar
    21     4     5   ar
    22     5     6   ar
    23     6     7   ar
    24     7    25    1
    25    25    26   ar
    26    26    27   ar
    27    27    28   ar
    28    28    31    1
    29    31    32    1
    30    31    33    1
    31    31    34    1
    32    28    29   ar
    33    29    30   ar
    34     7     8   ar
    35     8     9   ar
    36     9    10   ar
    37    10     1   ar
    38    16    11   ar
    39     9     4   ar
    40    22    17    1
    41    30    25   ar
    42    24    17    1
@<TRIPOS>MOLECULE
*****
 37 42 0 0 0
SMALL
GASTEIGER

@<TRIPOS>ATOM
      1 C           8.2629   -6.2740   25.2894 C.ar    1  UNL1        0.0140
      2 C           7.6672   -5.5197   24.1378 C.ar    1  UNL1        0.0011
      3 C           6.8416   -4.2933   24.3913 C.ar    1  UNL1        0.0000
      4 C           6.6117   -3.8212   25.7965 C.ar    1  UNL1        0.0000
      5 C           5.7861   -2.5948   26.0500 C.ar    1  UNL1        0.0000
      6 C           5.5562   -2.1227   27.4551 C.ar    1  UNL1       -0.0000
      7 C           6.1519   -2.8771   28.6066 C.ar    1  UNL1       -0.0000
      8 C           6.9775   -4.1034   28.3531 C.ar    1  UNL1        0.0000
      9 C           7.2074   -4.5755   26.9480 C.ar    1  UNL1        0.0000
     10 C           8.0330   -5.8019   26.6944 C.ar    1  UNL1        0.0011
     11 C           6.2458   -3.5389   23.2398 C.ar    1  UNL1       -0.0000
     12 C           7.0230   -2.4371   22.5826 C.ar    1  UNL1       -0.0003
     13 C           6.4272   -1.6828   21.4310 C.ar    1  UNL1       -0.0043
     14 C           5.0544   -2.0303   20.9367 C.ar    1  UNL1       -0.0227
     15 C           4.2771   -3.1322   21.5939 C.ar    1  UNL1       -0.0043
     16 C           4.8729   -3.8865   22.7454 C.ar    1  UNL1       -0.0003
     17 C           4.4586   -1.2760   19.7851 C.3     1  UNL1        0.0229
     18 C           3.7013   -0.0050   20.0325 C.3     1  UNL1        0.0215
     19 C           3.1056    0.7494   18.8810 C.3     1  UNL1        0.0724
     20 N           3.2671    0.2327   17.4820 N.3     1  UNL1       -0.2726
     21 C           4.0244   -1.0382   17.2346 C.3     1  UNL1        0.0724
     22 C           4.6202   -1.7925   18.3862 C.3     1  UNL1        0.0215
     23 C           3.6113   -0.2152   18.0810 C.3     1  UNL1        0.0724
     24 C           4.1501   -0.8974   19.1223 C.3     1  UNL1        0.0215
     25 C           5.9220   -2.4049   30.0118 C.ar    1  UNL1       -0.0000
     26 C           6.5299   -3.1508   31.1625 C.ar    1  UNL1       -0.0001
     27 C           6.3000   -2.6786   32.5676 C.ar    1  UNL1        0.0039
     28 C           5.4622   -1.4607   32.8219 C.ar    1  UNL1        0.0714
     29 C           4.8543   -0.7149   31.6711 C.ar    1  UNL1        0.0039
     30 C           5.0842   -1.1870   30.2661 C.ar    1  UNL1       -0.0001
     31 C           5.2323   -0.9886   34.2270 C.3     1  UNL1        0.4186
     32 F           5.0024   -0.5164   35.6320 F       1  UNL1       -0.1659
     33 F           6.5428   -0.2595   34.1964 F       1  UNL1       -0.1659
     34 F           3.9218   -1.7177   34.2575 F       1  UNL1       -0.1659
     35 O           9.4667   -8.3989   26.1758 O.co2   1  UNL1       -0.5446
     36 C           9.0886   -7.5004   25.0358 C.2     1  UNL1        0.0729
     37 O           9.5360   -7.8283   23.6421 O.co2   1  UNL1       -0.5446
@<TRIPOS>UNITY_ATOM_ATTR
35 1
charge -1
@<TRIPOS>BOND
     1    35    36   ar
     2    36    37   ar
     3    36     1    1
     4     1     2   ar
     5     2     3   ar
     6     3    11    1
     7    11    12   ar
     8    12    13   ar
     9    13    14   ar
    10    14    17    1
    11    17    18    1
    12    18    19    1
    13    19    20    1
    14    20    21    1
    15    21    22    1
    16    20    23    1
    17    23    24    1
    18    14    15   ar
    19    15    16   ar
    20     3     4   ar
    21     4     5   ar
    22     5     6   ar
    23     6     7   ar
    24     7    25    1
    25    25    26   ar
    26    26    27   ar
    27    27    28   ar
    28    28    31    1
    29    31    32    1
    30    31    33    1
    31    31    34    1
    32    28    29   ar
    33    29    30   ar
    34     7     8   ar
    35     8     9   ar
    36     9    10   ar
    37    10     1   ar
    38    16    11   ar
    39     9     4   ar
    40    22    17    1
    41    30    25   ar
    42    24    17    1
@<TRIPOS>MOLECULE
*****
 37 42 0 0 0
SMALL
GASTEIGER

@<TRIPOS>ATOM
      1 C          -1.5190    3.2184   26.3796 C.ar    1  UNL1        0.0140
      2 C          -0.7513    2.7278   27.5712 C.ar    1  UNL1        0.0011
      3 C           0.4525    1.8536   27.3800 C.ar    1  UNL1        0.0000
      4 C           0.8886    1.4699   25.9970 C.ar    1  UNL1        0.0000
      5 C           2.0924    0.5957   25.8057 C.ar    1  UNL1        0.0000
      6 C           2.5285    0.2120   24.4227 C.ar    1  UNL1       -0.0000
      7 C           1.7608    0.7025   23.2311 C.ar    1  UNL1       -0.0000
      8 C           0.5570    1.5767   23.4224 C.ar    1  UNL1        0.0000
      9 C           0.1209    1.9604   24.8053 C.ar    1  UNL1        0.0000
     10 C          -1.0829    2.8347   24.9967 C.ar    1  UNL1        0.0011
     11 C           1.2202    1.3631   28.5716 C.ar    1  UNL1       -0.0000
     12 C           2.1641    2.2838   29.2866 C.ar    1  UNL1       -0.0003
     13 C           2.9318    1.7933   30.4782 C.ar    1  UNL1       -0.0043
     14 C           2.7556    0.3820   30.9549 C.ar    1  UNL1       -0.0227
     15 C           1.8116   -0.5388   30.2399 C.ar    1  UNL1       -0.0043
     16 C           1.0439   -0.0483   29.0483 C.ar    1  UNL1       -0.0003
     17 C           3.5233   -0.1085   32.1466 C.3     1  UNL1        0.0229
     18 C           4.2913   -1.3945   32.0664 C.3     1  UNL1        0.0215
     19 C           5.0590   -1.8850   33.2581 C.3     1  UNL1        0.0724
     20 N           5.0587   -1.0895   34.5299 N.3     1  UNL1       -0.2726
     21 C           4.2906    0.1964   34.6099 C.3     1  UNL1        0.0724
     22 C           3.5229    0.6869   33.4183 C.3     1  UNL1        0.0215
     23 C           4.6232   -0.7804   33.9032 C.3     1  UNL1        0.0724
     24 C           3.9290   -0.3369   32.8256 C.3     1  UNL1        0.0215
     25 C           2.1969    0.3188   21.8481 C.ar    1  UNL1       -0.0000
     26 C           2.0437    1.2913   20.7164 C.ar    1  UNL1       -0.0001
     27 C           2.4798    0.9076   19.3334 C.ar    1  UNL1        0.0039
     28 C           3.0691   -0.4488   19.0822 C.ar    1  UNL1        0.0714
     29 C           3.2223   -1.4213   20.2139 C.ar    1  UNL1        0.0039
     30 C           2.7862   -1.0375   21.5968 C.ar    1  UNL1       -0.0001
     31 C           3.5053   -0.8325   17.6993 C.3     1  UNL1        0.4186
     32 F           3.9414   -1.2163   16.3164 F       1  UNL1       -0.1659
     33 F           3.6901   -2.2508   18.1511 F       1  UNL1       -0.1659
     34 F           3.3205    0.5858   17.2474 F       1  UNL1       -0.1659
     35 O          -2.5656    5.4711   27.1412 O.co2   1  UNL1       -0.5446
     36 C          -2.7228    4.0926   26.5710 C.2     1  UNL1        0.0729
     37 O          -4.0837    3.5884   26.1921 O.co2   1  UNL1       -0.5446
@<TRIPOS>UNITY_ATOM_ATTR
35 1
charge -1
@<TRIPOS>BOND
     1    35    36   ar
     2    36    37   ar
     3    36     1    1
     4     1     2   ar
     5     2     3   ar
     6     3    11    1
     7    11    12   ar
     8    12    13   ar
     9    13    14   ar
    10    14    17    1
    11    17    18    1
    12    18    19    1
    13    19    20    1
    14    20    21    1
    15    21    22    1
    16    20    23    1
    17    23    24    1
    18    14    15   ar
    19    15    16   ar
    20     3     4   ar
    21     4     5   ar
    22     5     6   ar
    23     6     7   ar
    24     7    25    1
    25    25    26   ar
    26    26    27   ar
    27    27    28   ar
    28    28    31    1
    29    31    32    1
    30    31    33    1
    31    31    34    1
    32    28    29   ar
    33    29    30   ar
    34     7     8   ar
    35     8     9   ar
    36     9    10   ar
    37    10     1   ar
    38    16    11   ar
    39     9     4   ar
    40    22    17    1
    41    30    25   ar
    42    24    17    1
@<TRIPOS>MOLECULE
*****
 37 42 0 0 0
SMALL
GASTEIGER

@<TRIPOS>ATOM
      1 C          -1.9609    3.5932   25.3503 C.ar    1  UNL1        0.0140
      2 C          -1.3937    3.4982   26.7357 C.ar    1  UNL1        0.0011
      3 C          -0.1756    2.6612   26.9916 C.ar    1  UNL1        0.0000
      4 C           0.4754    1.9191   25.8622 C.ar    1  UNL1        0.0000
      5 C           1.6935    1.0821   26.1181 C.ar    1  UNL1        0.0000
      6 C           2.3444    0.3401   24.9887 C.ar    1  UNL1       -0.0000
      7 C           1.7772    0.4350   23.6033 C.ar    1  UNL1       -0.0000
      8 C           0.5591    1.2720   23.3474 C.ar    1  UNL1        0.0000
      9 C          -0.0918    2.0141   24.4768 C.ar    1  UNL1        0.0000
     10 C          -1.3100    2.8511   24.2209 C.ar    1  UNL1        0.0011
     11 C           0.3916    2.5662   28.3770 C.ar    1  UNL1       -0.0000
     12 C          -0.0702    1.4810   29.3038 C.ar    1  UNL1       -0.0003
     13 C           0.4971    1.3860   30.6891 C.ar    1  UNL1       -0.0043
     14 C           1.5261    2.3763   31.1477 C.ar    1  UNL1       -0.0227
     15 C           1.9879    3.4617   30.2210 C.ar    1  UNL1       -0.0043
     16 C           1.4207    3.5566   28.8356 C.ar    1  UNL1       -0.0003
     17 C           2.0933    2.2813   32.5331 C.3     1  UNL1        0.0229
     18 C           1.6727    3.2648   33.5848 C.3     1  UNL1        0.0215
     19 C           2.2399    3.1698   34.9702 C.3     1  UNL1        0.0724
     20 N           3.2277    2.0914   35.3039 N.3     1  UNL1       -0.2726
     21 C           3.6483    1.1081   34.2522 C.3     1  UNL1        0.0724
     22 C           3.0811    1.2030   32.8668 C.3     1  UNL1        0.0215
     23 C           2.9443    2.1035   34.5309 C.3     1  UNL1        0.0724
     24 C           2.4314    2.1893   33.2782 C.3     1  UNL1        0.0215
     25 C           2.4282   -0.3071   22.4739 C.ar    1  UNL1       -0.0000
     26 C           1.9068   -0.1529   21.0759 C.ar    1  UNL1       -0.0001
     27 C           2.5577   -0.8950   19.9465 C.ar    1  UNL1        0.0039
     28 C           3.7301   -1.7913   20.2151 C.ar    1  UNL1        0.0714
     29 C           4.2515   -1.9455   21.6131 C.ar    1  UNL1        0.0039
     30 C           3.6006   -1.2034   22.7425 C.ar    1  UNL1       -0.0001
     31 C           4.3811   -2.5333   19.0857 C.3     1  UNL1        0.4186
     32 F           5.0321   -3.2754   17.9563 F       1  UNL1       -0.1659
     33 F           5.4772   -1.5102   19.0452 F       1  UNL1       -0.1659
     34 F           3.2850   -3.5565   19.1262 F       1  UNL1       -0.1659
     35 O          -3.3007    5.2067   23.8168 O.co2   1  UNL1       -0.5446
     36 C          -3.1791    4.4302   25.0944 C.2     1  UNL1        0.0729
     37 O          -4.2757    4.4908   26.1161 O.co2   1  UNL1       -0.5446
@<TRIPOS>UNITY_ATOM_ATTR
35 1
charge -1
@<TRIPOS>BOND
     1    35    36   ar
     2    36    37   ar
     3    36     1    1
     4     1     2   ar
     5     2     3   ar
     6     3    11    1
     7    11    12   ar
     8    12    13   ar
     9    13    14   ar
    10    14    17    1
    11    17    18    1
    12    18    19    1
    13    19    20    1
    14    20    21    1
    15    21    22    1
    16    20    23    1
    17    23    24    1
    18    14    15   ar
    19    15    16   ar
    20     3     4   ar
    21     4     5   ar
    22     5     6   ar
    23     6     7   ar
    24     7    25    1
    25    25    26   ar
    26    26    27   ar
    27    27    28   ar
    28    28    31    1
    29    31    32    1
    30    31    33    1
    31    31    34    1
    32    28    29   ar
    33    29    30   ar
    34     7     8   ar
    35     8     9   ar
    36     9    10   ar
    37    10     1   ar
    38    16    11   ar
    39     9     4   ar
    40    22    17    1
    41    30    25   ar
    42    24    17    1
@<TRIPOS>MOLECULE
*****
 37 42 0 0 0
SMALL
GASTEIGER

@<TRIPOS>ATOM
      1 C           0.8550    3.6995   25.6954 C.ar    1  UNL1        0.0140
      2 C           1.2821    3.3325   27.0857 C.ar    1  UNL1        0.0011
      3 C           2.0586    2.0714   27.3234 C.ar    1  UNL1        0.0000
      4 C           2.4081    1.1772   26.1708 C.ar    1  UNL1        0.0000
      5 C           3.1846   -0.0839   26.4085 C.ar    1  UNL1        0.0000
      6 C           3.5340   -0.9781   25.2560 C.ar    1  UNL1       -0.0000
      7 C           3.1068   -0.6111   23.8657 C.ar    1  UNL1       -0.0000
      8 C           2.3303    0.6500   23.6280 C.ar    1  UNL1        0.0000
      9 C           1.9809    1.5441   24.7805 C.ar    1  UNL1        0.0000
     10 C           1.2043    2.8053   24.5428 C.ar    1  UNL1        0.0011
     11 C           2.4858    1.7044   28.7137 C.ar    1  UNL1       -0.0000
     12 C           3.8913    1.9749   29.1625 C.ar    1  UNL1       -0.0003
     13 C           4.3184    1.6079   30.5527 C.ar    1  UNL1       -0.0043
     14 C           3.3401    0.9704   31.4942 C.ar    1  UNL1       -0.0227
     15 C           1.9345    0.6999   31.0455 C.ar    1  UNL1       -0.0043
     16 C           1.5074    1.0669   29.6552 C.ar    1  UNL1       -0.0003
     17 C           3.7672    0.6034   32.8845 C.3     1  UNL1        0.0229
     18 C           3.6843    1.6174   33.9868 C.3     1  UNL1        0.0215
     19 C           4.1115    1.2505   35.3771 C.3     1  UNL1        0.0724
     20 N           4.6215   -0.1305   35.6651 N.3     1  UNL1       -0.2726
     21 C           4.7044   -1.1444   34.5628 C.3     1  UNL1        0.0724
     22 C           4.2772   -0.7774   33.1725 C.3     1  UNL1        0.0215
     23 C           4.3990    0.0241   34.8876 C.3     1  UNL1        0.0724
     24 C           4.0127    0.3559   33.6304 C.3     1  UNL1        0.0215
     25 C           3.4563   -1.5053   22.7131 C.ar    1  UNL1       -0.0000
     26 C           4.2441   -2.7597   22.9491 C.ar    1  UNL1       -0.0001
     27 C           4.5935   -3.6539   21.7965 C.ar    1  UNL1        0.0039
     28 C           4.1551   -3.2936   20.4080 C.ar    1  UNL1        0.0714
     29 C           3.3672   -2.0391   20.1721 C.ar    1  UNL1        0.0039
     30 C           3.0178   -1.1450   21.3246 C.ar    1  UNL1       -0.0001
     31 C           4.5045   -4.1877   19.2554 C.3     1  UNL1        0.4186
     32 F           4.8539   -5.0819   18.1029 F       1  UNL1       -0.1659
     33 F           3.0719   -4.1748   18.8111 F       1  UNL1       -0.1659
     34 F           5.9371   -4.2007   19.6998 F       1  UNL1       -0.1659
     35 O           0.8002    6.2395   25.1519 O.co2   1  UNL1       -0.5446
     36 C           0.0784    4.9606   25.4577 C.2     1  UNL1        0.0729
     37 O          -1.4200    4.9429   25.5258 O.co2   1  UNL1       -0.5446
@<TRIPOS>UNITY_ATOM_ATTR
35 1
charge -1
@<TRIPOS>BOND
     1    35    36   ar
     2    36    37   ar
     3    36     1    1
     4     1     2   ar
     5     2     3   ar
     6     3    11    1
     7    11    12   ar
     8    12    13   ar
     9    13    14   ar
    10    14    17    1
    11    17    18    1
    12    18    19    1
    13    19    20    1
    14    20    21    1
    15    21    22    1
    16    20    23    1
    17    23    24    1
    18    14    15   ar
    19    15    16   ar
    20     3     4   ar
    21     4     5   ar
    22     5     6   ar
    23     6     7   ar
    24     7    25    1
    25    25    26   ar
    26    26    27   ar
    27    27    28   ar
    28    28    31    1
    29    31    32    1
    30    31    33    1
    31    31    34    1
    32    28    29   ar
    33    29    30   ar
    34     7     8   ar
    35     8     9   ar
    36     9    10   ar
    37    10     1   ar
    38    16    11   ar
    39     9     4   ar
    40    22    17    1
    41    30    25   ar
    42    24    17    1
@<TRIPOS>MOLECULE
*****
 37 42 0 0 0
SMALL
GASTEIGER

@<TRIPOS>ATOM
      1 C          -1.3044    2.8793   25.9783 C.ar    1  UNL1        0.0140
      2 C          -0.6257    2.3004   24.7724 C.ar    1  UNL1        0.0011
      3 C           0.5997    1.4513   24.9369 C.ar    1  UNL1        0.0000
      4 C           1.1466    1.1810   26.3073 C.ar    1  UNL1        0.0000
      5 C           2.3721    0.3319   26.4718 C.ar    1  UNL1        0.0000
      6 C           2.9189    0.0617   27.8421 C.ar    1  UNL1       -0.0000
      7 C           2.2402    0.6407   29.0480 C.ar    1  UNL1       -0.0000
      8 C           1.0147    1.4898   28.8836 C.ar    1  UNL1        0.0000
      9 C           0.4679    1.7600   27.5132 C.ar    1  UNL1        0.0000
     10 C          -0.7576    2.6092   27.3487 C.ar    1  UNL1        0.0011
     11 C           1.2784    0.8723   23.7310 C.ar    1  UNL1       -0.0000
     12 C           0.6816    1.0670   22.3687 C.ar    1  UNL1       -0.0003
     13 C           1.3603    0.4880   21.1628 C.ar    1  UNL1       -0.0043
     14 C           2.6358   -0.2856   21.3192 C.ar    1  UNL1       -0.0227
     15 C           3.2327   -0.4803   22.6815 C.ar    1  UNL1       -0.0043
     16 C           2.5540    0.0987   23.8874 C.ar    1  UNL1       -0.0003
     17 C           3.3145   -0.8645   20.1133 C.3     1  UNL1        0.0229
     18 C           3.3118   -2.3480   19.8910 C.3     1  UNL1        0.0215
     19 C           3.9905   -2.9270   18.6851 C.3     1  UNL1        0.0724
     20 N           4.6719   -2.0224   17.7015 N.3     1  UNL1       -0.2726
     21 C           4.6746   -0.5390   17.9237 C.3     1  UNL1        0.0724
     22 C           3.9959    0.0399   19.1296 C.3     1  UNL1        0.0215
     23 C           4.3133   -1.6589   18.3474 C.3     1  UNL1        0.0724
     24 C           3.6996   -1.1354   19.4378 C.3     1  UNL1        0.0215
     25 C           2.7871    0.3704   30.4185 C.ar    1  UNL1       -0.0000
     26 C           2.4434    1.2847   31.5568 C.ar    1  UNL1       -0.0001
     27 C           2.9902    1.0145   32.9273 C.ar    1  UNL1        0.0039
     28 C           3.8808   -0.1701   33.1592 C.ar    1  UNL1        0.0714
     29 C           4.2245   -1.0844   32.0208 C.ar    1  UNL1        0.0039
     30 C           3.6776   -0.8141   30.6504 C.ar    1  UNL1       -0.0001
     31 C           4.4276   -0.4403   34.5296 C.3     1  UNL1        0.4186
     32 F           4.9745   -0.7106   35.8999 F       1  UNL1       -0.1659
     33 F           4.0114   -1.8766   34.4124 F       1  UNL1       -0.1659
     34 F           4.8438    0.9960   34.6467 F       1  UNL1       -0.1659
     35 O          -3.6205    3.6788   26.8425 O.co2   1  UNL1       -0.5446
     36 C          -2.5300    3.7285   25.8138 C.2     1  UNL1        0.0729
     37 O          -2.6650    4.6274   24.6205 O.co2   1  UNL1       -0.5446
@<TRIPOS>UNITY_ATOM_ATTR
35 1
charge -1
@<TRIPOS>BOND
     1    35    36   ar
     2    36    37   ar
     3    36     1    1
     4     1     2   ar
     5     2     3   ar
     6     3    11    1
     7    11    12   ar
     8    12    13   ar
     9    13    14   ar
    10    14    17    1
    11    17    18    1
    12    18    19    1
    13    19    20    1
    14    20    21    1
    15    21    22    1
    16    20    23    1
    17    23    24    1
    18    14    15   ar
    19    15    16   ar
    20     3     4   ar
    21     4     5   ar
    22     5     6   ar
    23     6     7   ar
    24     7    25    1
    25    25    26   ar
    26    26    27   ar
    27    27    28   ar
    28    28    31    1
    29    31    32    1
    30    31    33    1
    31    31    34    1
    32    28    29   ar
    33    29    30   ar
    34     7     8   ar
    35     8     9   ar
    36     9    10   ar
    37    10     1   ar
    38    16    11   ar
    39     9     4   ar
    40    22    17    1
    41    30    25   ar
    42    24    17    1
@<TRIPOS>MOLECULE
*****
 37 42 0 0 0
SMALL
GASTEIGER

@<TRIPOS>ATOM
      1 C           3.2668    2.9770   27.5309 C.ar    1  UNL1        0.0140
      2 C           1.8594    3.4903   27.4554 C.ar    1  UNL1        0.0011
      3 C           0.9461    3.0173   26.3636 C.ar    1  UNL1        0.0000
      4 C           1.4402    2.0311   25.3471 C.ar    1  UNL1        0.0000
      5 C           0.5269    1.5581   24.2552 C.ar    1  UNL1        0.0000
      6 C           1.0211    0.5719   23.2388 C.ar    1  UNL1       -0.0000
      7 C           2.4285    0.0586   23.3143 C.ar    1  UNL1       -0.0000
      8 C           3.3418    0.5316   24.4061 C.ar    1  UNL1        0.0000
      9 C           2.8477    1.5178   25.4225 C.ar    1  UNL1        0.0000
     10 C           3.7610    1.9908   26.5145 C.ar    1  UNL1        0.0011
     11 C          -0.4613    3.5306   26.2881 C.ar    1  UNL1       -0.0000
     12 C          -0.7479    4.8368   25.6086 C.ar    1  UNL1       -0.0003
     13 C          -2.1553    5.3500   25.5331 C.ar    1  UNL1       -0.0043
     14 C          -3.2762    4.5572   26.1373 C.ar    1  UNL1       -0.0227
     15 C          -2.9896    3.2510   26.8169 C.ar    1  UNL1       -0.0043
     16 C          -1.5822    2.7377   26.8923 C.ar    1  UNL1       -0.0003
     17 C          -4.6836    5.0705   26.0618 C.3     1  UNL1        0.0229
     18 C          -5.5158    4.8013   24.8431 C.3     1  UNL1        0.0215
     19 C          -6.9232    5.3146   24.7677 C.3     1  UNL1        0.0724
     20 N          -7.4985    6.0970   25.9109 N.3     1  UNL1       -0.2726
     21 C          -6.6663    6.3661   27.1296 C.3     1  UNL1        0.0724
     22 C          -5.2589    5.8529   27.2050 C.3     1  UNL1        0.0215
     23 C          -6.7224    5.8362   25.9981 C.3     1  UNL1        0.0724
     24 C          -5.4497    5.3721   26.0663 C.3     1  UNL1        0.0215
     25 C           2.9226   -0.9277   22.2978 C.ar    1  UNL1       -0.0000
     26 C           2.4285   -0.8581   20.8832 C.ar    1  UNL1       -0.0001
     27 C           2.9226   -1.8443   19.8668 C.ar    1  UNL1        0.0039
     28 C           3.9109   -2.9002   20.2649 C.ar    1  UNL1        0.0714
     29 C           4.4050   -2.9698   21.6795 C.ar    1  UNL1        0.0039
     30 C           3.9109   -1.9835   22.6959 C.ar    1  UNL1       -0.0001
     31 C           4.4050   -3.8864   19.2485 C.3     1  UNL1        0.4186
     32 F           4.8991   -4.8727   18.2321 F       1  UNL1       -0.1659
     33 F           2.9936   -4.3185   18.9816 F       1  UNL1       -0.1659
     34 F           5.8164   -3.4543   19.5154 F       1  UNL1       -0.1659
     35 O           3.9868    2.9598   30.0272 O.co2   1  UNL1       -0.5446
     36 C           4.1801    3.4500   28.6228 C.2     1  UNL1        0.0729
     37 O           5.2867    4.4132   28.3103 O.co2   1  UNL1       -0.5446
@<TRIPOS>UNITY_ATOM_ATTR
35 1
charge -1
@<TRIPOS>BOND
     1    35    36   ar
     2    36    37   ar
     3    36     1    1
     4     1     2   ar
     5     2     3   ar
     6     3    11    1
     7    11    12   ar
     8    12    13   ar
     9    13    14   ar
    10    14    17    1
    11    17    18    1
    12    18    19    1
    13    19    20    1
    14    20    21    1
    15    21    22    1
    16    20    23    1
    17    23    24    1
    18    14    15   ar
    19    15    16   ar
    20     3     4   ar
    21     4     5   ar
    22     5     6   ar
    23     6     7   ar
    24     7    25    1
    25    25    26   ar
    26    26    27   ar
    27    27    28   ar
    28    28    31    1
    29    31    32    1
    30    31    33    1
    31    31    34    1
    32    28    29   ar
    33    29    30   ar
    34     7     8   ar
    35     8     9   ar
    36     9    10   ar
    37    10     1   ar
    38    16    11   ar
    39     9     4   ar
    40    22    17    1
    41    30    25   ar
    42    24    17    1
@<TRIPOS>MOLECULE
*****
 37 42 0 0 0
SMALL
GASTEIGER

@<TRIPOS>ATOM
      1 C          -2.3849    3.9556   23.4082 C.ar    1  UNL1        0.0140
      2 C          -1.4882    3.2236   22.4541 C.ar    1  UNL1        0.0011
      3 C          -0.2996    2.4688   22.9712 C.ar    1  UNL1        0.0000
      4 C          -0.0077    2.4458   24.4424 C.ar    1  UNL1        0.0000
      5 C           1.1809    1.6910   24.9595 C.ar    1  UNL1        0.0000
      6 C           1.4728    1.6681   26.4306 C.ar    1  UNL1       -0.0000
      7 C           0.5761    2.4001   27.3846 C.ar    1  UNL1       -0.0000
      8 C          -0.6125    3.1549   26.8676 C.ar    1  UNL1        0.0000
      9 C          -0.9044    3.1778   25.3964 C.ar    1  UNL1        0.0000
     10 C          -2.0930    3.9327   24.8793 C.ar    1  UNL1        0.0011
     11 C           0.5971    1.7368   22.0172 C.ar    1  UNL1       -0.0000
     12 C           0.1353    0.4568   21.3861 C.ar    1  UNL1       -0.0003
     13 C           1.0320   -0.2752   20.4321 C.ar    1  UNL1       -0.0043
     14 C           2.3904    0.2728   20.1091 C.ar    1  UNL1       -0.0227
     15 C           2.8522    1.5529   20.7402 C.ar    1  UNL1       -0.0043
     16 C           1.9555    2.2849   21.6942 C.ar    1  UNL1       -0.0003
     17 C           3.2871   -0.4591   19.1551 C.3     1  UNL1        0.0229
     18 C           4.2512   -1.4865   19.6702 C.3     1  UNL1        0.0215
     19 C           5.1479   -2.2184   18.7162 C.3     1  UNL1        0.0724
     20 N           5.0805   -1.9231   17.2471 N.3     1  UNL1       -0.2726
     21 C           4.1164   -0.8958   16.7320 C.3     1  UNL1        0.0724
     22 C           3.2197   -0.1639   17.6860 C.3     1  UNL1        0.0215
     23 C           4.5692   -1.4964   17.7312 C.3     1  UNL1        0.0724
     24 C           3.7584   -0.8345   18.5939 C.3     1  UNL1        0.0215
     25 C           0.8680    2.3771   28.8558 C.ar    1  UNL1       -0.0000
     26 C           0.6147    3.5979   29.6898 C.ar    1  UNL1       -0.0001
     27 C           0.9066    3.5749   31.1610 C.ar    1  UNL1        0.0039
     28 C           1.4519    2.3312   31.7981 C.ar    1  UNL1        0.0714
     29 C           1.7052    1.1105   30.9640 C.ar    1  UNL1        0.0039
     30 C           1.4133    1.1334   29.4929 C.ar    1  UNL1       -0.0001
     31 C           1.7438    2.3083   33.2692 C.3     1  UNL1        0.4186
     32 F           2.0358    2.2853   34.7403 F       1  UNL1       -0.1659
     33 F           0.9346    3.5583   33.4493 F       1  UNL1       -0.1659
     34 F           2.5530    1.0582   33.0891 F       1  UNL1       -0.1659
     35 O          -3.7446    4.9207   21.4157 O.co2   1  UNL1       -0.5446
     36 C          -3.5735    4.7105   22.8910 C.2     1  UNL1        0.0729
     37 O          -4.5909    5.2552   23.8492 O.co2   1  UNL1       -0.5446
@<TRIPOS>UNITY_ATOM_ATTR
35 1
charge -1
@<TRIPOS>BOND
     1    35    36   ar
     2    36    37   ar
     3    36     1    1
     4     1     2   ar
     5     2     3   ar
     6     3    11    1
     7    11    12   ar
     8    12    13   ar
     9    13    14   ar
    10    14    17    1
    11    17    18    1
    12    18    19    1
    13    19    20    1
    14    20    21    1
    15    21    22    1
    16    20    23    1
    17    23    24    1
    18    14    15   ar
    19    15    16   ar
    20     3     4   ar
    21     4     5   ar
    22     5     6   ar
    23     6     7   ar
    24     7    25    1
    25    25    26   ar
    26    26    27   ar
    27    27    28   ar
    28    28    31    1
    29    31    32    1
    30    31    33    1
    31    31    34    1
    32    28    29   ar
    33    29    30   ar
    34     7     8   ar
    35     8     9   ar
    36     9    10   ar
    37    10     1   ar
    38    16    11   ar
    39     9     4   ar
    40    22    17    1
    41    30    25   ar
    42    24    17    1
