@<TRIPOS>MOLECULE
*****
 25 27 0 0 0
SMALL
GASTEIGER

@<TRIPOS>ATOM
      1 C          -6.9027  -19.0753   22.3104 C.ar    1  UNL1       -0.0223
      2 C          -7.7607  -17.9111   22.7085 C.ar    1  UNL1       -0.0012
      3 C          -9.0620  -18.1459   23.4166 C.ar    1  UNL1        0.0366
      4 C          -9.5054  -19.5449   23.7267 C.ar    1  UNL1        0.1385
      5 C          -8.6474  -20.7091   23.3286 C.ar    1  UNL1        0.0366
      6 C          -7.3461  -20.4743   22.6205 C.ar    1  UNL1       -0.0012
      7 C          -2.9987  -18.3710   20.1861 C.3     1  UNL1        0.0576
      8 C          -4.1926  -18.8574   19.4194 C.3     1  UNL1        0.0163
      9 C          -5.4940  -19.0921   20.1275 C.3     1  UNL1        0.0057
     10 C          -5.6014  -18.8406   21.6023 C.3     1  UNL1        0.0224
     11 C          -4.4074  -18.3542   22.3691 C.3     1  UNL1        0.0057
     12 C          -3.1061  -18.1194   21.6609 C.3     1  UNL1        0.0163
     13 C          -0.4007  -18.3766   20.1926 C.3     1  UNL1        0.0896
     14 N          -1.6974  -18.1362   19.4780 N.3     1  UNL1       -0.2716
     15 C          -1.6927  -17.6610   18.0553 C.3     1  UNL1        0.0896
     16 O         -10.8067  -19.7797   24.4348 O.3     1  UNL1       -0.4754
     17 C         -11.6479  -18.6143   24.8640 C.3     1  UNL1        0.2068
     18 C         -13.0761  -18.5151   24.4165 C.3     1  UNL1        0.0646
     19 C         -13.4364  -17.6516   23.2440 C.3     1  UNL1        0.0759
     20 N         -12.4793  -17.5052   22.0983 N.3     1  UNL1       -0.2726
     21 C         -11.9499  -16.1504   21.7318 C.3     1  UNL1        0.0721
     22 C         -10.9928  -16.0040   20.5861 C.3     1  UNL1        0.0174
     23 C         -10.5651  -17.2122   19.8070 C.3     1  UNL1        0.0029
     24 C         -11.0945  -18.5671   20.1735 C.3     1  UNL1        0.0174
     25 C         -12.0516  -18.7135   21.3191 C.3     1  UNL1        0.0721
@<TRIPOS>BOND
     1    13    14    1
     2    14    15    1
     3     7    14    1
     4     7     8    1
     5     8     9    1
     6     9    10    1
     7    10     1    1
     8     1     2   ar
     9     2     3   ar
    10     3     4   ar
    11     4    16    1
    12    16    17    1
    13    17    18    1
    14    18    19    1
    15    19    20    1
    16    20    21    1
    17    21    22    1
    18    22    23    1
    19    23    24    1
    20    24    25    1
    21     4     5   ar
    22     5     6   ar
    23    10    11    1
    24    11    12    1
    25    12     7    1
    26     6     1   ar
    27    25    20    1
@<TRIPOS>MOLECULE
*****
 25 27 0 0 0
SMALL
GASTEIGER

@<TRIPOS>ATOM
      1 C          -7.8062  -19.1918   21.2635 C.ar    1  UNL1       -0.0223
      2 C          -8.3976  -19.5765   22.5872 C.ar    1  UNL1       -0.0012
      3 C          -9.8837  -19.7196   22.7316 C.ar    1  UNL1        0.0366
      4 C         -10.7785  -19.4782   21.5522 C.ar    1  UNL1        0.1385
      5 C         -10.1872  -19.0935   20.2285 C.ar    1  UNL1        0.0366
      6 C          -8.7010  -18.9503   20.0841 C.ar    1  UNL1       -0.0012
      7 C          -3.3478  -18.7623   20.8304 C.3     1  UNL1        0.0576
      8 C          -4.1987  -19.0075   19.6198 C.3     1  UNL1        0.0163
      9 C          -5.6849  -19.1507   19.7641 C.3     1  UNL1        0.0057
     10 C          -6.3201  -19.0486   21.1191 C.3     1  UNL1        0.0224
     11 C          -5.4691  -18.8034   22.3297 C.3     1  UNL1        0.0057
     12 C          -3.9830  -18.6602   22.1854 C.3     1  UNL1        0.0163
     13 C          -1.2681  -18.2651   19.3548 C.3     1  UNL1        0.0896
     14 N          -1.8616  -18.6191   20.6860 N.3     1  UNL1       -0.2716
     15 C          -0.9690  -18.8299   21.8729 C.3     1  UNL1        0.0896
     16 O         -12.2647  -19.6214   21.6966 O.3     1  UNL1       -0.4754
     17 C         -13.1233  -18.4023   21.8597 C.3     1  UNL1        0.2068
     18 C         -12.7775  -17.3747   22.8963 C.3     1  UNL1        0.0646
     19 C         -11.9757  -16.1655   22.5154 C.3     1  UNL1        0.0759
     20 N         -10.5061  -16.1162   22.8119 N.3     1  UNL1       -0.2726
     21 C          -9.5376  -15.7146   21.7392 C.3     1  UNL1        0.0721
     22 C          -8.0681  -15.6653   22.0358 C.3     1  UNL1        0.0174
     23 C          -7.5670  -16.0175   23.4050 C.3     1  UNL1        0.0029
     24 C          -8.5355  -16.4191   24.4777 C.3     1  UNL1        0.0174
     25 C         -10.0051  -16.4684   24.1812 C.3     1  UNL1        0.0721
@<TRIPOS>BOND
     1    13    14    1
     2    14    15    1
     3     7    14    1
     4     7     8    1
     5     8     9    1
     6     9    10    1
     7    10     1    1
     8     1     2   ar
     9     2     3   ar
    10     3     4   ar
    11     4    16    1
    12    16    17    1
    13    17    18    1
    14    18    19    1
    15    19    20    1
    16    20    21    1
    17    21    22    1
    18    22    23    1
    19    23    24    1
    20    24    25    1
    21     4     5   ar
    22     5     6   ar
    23    10    11    1
    24    11    12    1
    25    12     7    1
    26     6     1   ar
    27    25    20    1
@<TRIPOS>MOLECULE
*****
 25 27 0 0 0
SMALL
GASTEIGER

@<TRIPOS>ATOM
      1 C           2.8522   -1.1502   20.7427 C.ar    1  UNL1       -0.0223
      2 C           3.1796   -2.1181   19.6446 C.ar    1  UNL1       -0.0012
      3 C           4.1839   -3.2073   19.8795 C.ar    1  UNL1        0.0366
      4 C           4.8608   -3.3286   21.2125 C.ar    1  UNL1        0.1385
      5 C           4.5334   -2.3607   22.3107 C.ar    1  UNL1        0.0366
      6 C           3.5291   -1.2715   22.0758 C.ar    1  UNL1       -0.0012
      7 C          -0.1605    2.1173   20.0381 C.3     1  UNL1        0.0576
      8 C           0.5415    1.4809   18.8753 C.3     1  UNL1        0.0163
      9 C           1.5457    0.3917   19.1102 C.3     1  UNL1        0.0057
     10 C           1.8480   -0.0611   20.5079 C.3     1  UNL1        0.0224
     11 C           1.1460    0.5753   21.6707 C.3     1  UNL1        0.0057
     12 C           0.1417    1.6645   21.4358 C.3     1  UNL1        0.0163
     13 C          -2.3501    3.3425   20.7123 C.3     1  UNL1        0.0896
     14 N          -1.1648    3.2064   19.8032 N.3     1  UNL1       -0.2716
     15 C          -0.9838    4.1595   18.6592 C.3     1  UNL1        0.0896
     16 O           5.8650   -4.4178   21.4474 O.3     1  UNL1       -0.4754
     17 C           7.2611   -4.2777   20.9171 C.3     1  UNL1        0.2068
     18 C           7.9176   -2.9295   20.8799 C.3     1  UNL1        0.0646
     19 C           8.0602   -2.2006   19.5766 C.3     1  UNL1        0.0759
     20 N           7.0589   -1.1528   19.1899 N.3     1  UNL1       -0.2726
     21 C           6.4643   -1.1556   17.8128 C.3     1  UNL1        0.0721
     22 C           5.4630   -0.1078   17.4260 C.3     1  UNL1        0.0174
     23 C           5.0563    0.9428   18.4164 C.3     1  UNL1        0.0029
     24 C           5.6509    0.9456   19.7936 C.3     1  UNL1        0.0174
     25 C           6.6522   -0.1022   20.1803 C.3     1  UNL1        0.0721
@<TRIPOS>BOND
     1    13    14    1
     2    14    15    1
     3     7    14    1
     4     7     8    1
     5     8     9    1
     6     9    10    1
     7    10     1    1
     8     1     2   ar
     9     2     3   ar
    10     3     4   ar
    11     4    16    1
    12    16    17    1
    13    17    18    1
    14    18    19    1
    15    19    20    1
    16    20    21    1
    17    21    22    1
    18    22    23    1
    19    23    24    1
    20    24    25    1
    21     4     5   ar
    22     5     6   ar
    23    10    11    1
    24    11    12    1
    25    12     7    1
    26     6     1   ar
    27    25    20    1
@<TRIPOS>MOLECULE
*****
 25 27 0 0 0
SMALL
GASTEIGER

@<TRIPOS>ATOM
      1 C           2.8225   -1.0976   20.7373 C.ar    1  UNL1       -0.0223
      2 C           3.4673   -1.2474   22.0833 C.ar    1  UNL1       -0.0012
      3 C           4.4663   -2.3412   22.3189 C.ar    1  UNL1        0.0366
      4 C           4.8205   -3.2853   21.2084 C.ar    1  UNL1        0.1385
      5 C           4.1757   -3.1356   19.8624 C.ar    1  UNL1        0.0366
      6 C           3.1767   -2.0417   19.6269 C.ar    1  UNL1       -0.0012
      7 C          -0.1745    2.1839   20.0307 C.3     1  UNL1        0.0576
      8 C           0.1065    1.7126   21.4267 C.3     1  UNL1        0.0163
      9 C           1.1055    0.6188   21.6623 C.3     1  UNL1        0.0057
     10 C           1.8235   -0.0038   20.5018 C.3     1  UNL1        0.0224
     11 C           1.5426    0.4675   19.1058 C.3     1  UNL1        0.0057
     12 C           0.5436    1.5614   18.8702 C.3     1  UNL1        0.0163
     13 C          -0.8541    4.3933   18.8446 C.3     1  UNL1        0.0896
     14 N          -1.1735    3.2778   19.7952 N.3     1  UNL1       -0.2716
     15 C          -2.4919    3.2561   20.5102 C.3     1  UNL1        0.0896
     16 O           5.8195   -4.3792   21.4440 O.3     1  UNL1       -0.4754
     17 C           7.2007   -4.2701   20.8691 C.3     1  UNL1        0.2068
     18 C           7.8677   -2.9303   20.7691 C.3     1  UNL1        0.0646
     19 C           7.9538   -2.2324   19.4440 C.3     1  UNL1        0.0759
     20 N           6.9874   -1.1348   19.1103 N.3     1  UNL1       -0.2726
     21 C           6.6076   -0.1269   20.1542 C.3     1  UNL1        0.0721
     22 C           5.6412    0.9707   19.8205 C.3     1  UNL1        0.0174
     23 C           5.0546    1.0604   18.4429 C.3     1  UNL1        0.0029
     24 C           5.4345    0.0524   17.3989 C.3     1  UNL1        0.0174
     25 C           6.4009   -1.0452   17.7326 C.3     1  UNL1        0.0721
@<TRIPOS>BOND
     1    13    14    1
     2    14    15    1
     3     7    14    1
     4     7     8    1
     5     8     9    1
     6     9    10    1
     7    10     1    1
     8     1     2   ar
     9     2     3   ar
    10     3     4   ar
    11     4    16    1
    12    16    17    1
    13    17    18    1
    14    18    19    1
    15    19    20    1
    16    20    21    1
    17    21    22    1
    18    22    23    1
    19    23    24    1
    20    24    25    1
    21     4     5   ar
    22     5     6   ar
    23    10    11    1
    24    11    12    1
    25    12     7    1
    26     6     1   ar
    27    25    20    1
@<TRIPOS>MOLECULE
*****
 25 27 0 0 0
SMALL
GASTEIGER

@<TRIPOS>ATOM
      1 C           2.8615   -1.1152   21.4278 C.ar    1  UNL1       -0.0223
      2 C           2.4958   -0.0802   22.4500 C.ar    1  UNL1       -0.0012
      3 C           1.3294    0.8318   22.2099 C.ar    1  UNL1        0.0366
      4 C           0.5286    0.7088   20.9475 C.ar    1  UNL1        0.1385
      5 C           0.8943   -0.3262   19.9253 C.ar    1  UNL1        0.0366
      6 C           2.0607   -1.2382   20.1655 C.ar    1  UNL1       -0.0012
      7 C           6.3608   -3.8512   22.1482 C.3     1  UNL1        0.0576
      8 C           6.0328   -3.4042   20.7545 C.3     1  UNL1        0.0163
      9 C           4.8663   -2.4922   20.5144 C.3     1  UNL1        0.0057
     10 C           4.0279   -2.0272   21.6680 C.3     1  UNL1        0.0224
     11 C           4.3560   -2.4742   23.0617 C.3     1  UNL1        0.0057
     12 C           5.5224   -3.3862   23.3018 C.3     1  UNL1        0.0163
     13 C           8.4842   -5.0663   21.2738 C.3     1  UNL1        0.0896
     14 N           7.5272   -4.7632   22.3884 N.3     1  UNL1       -0.2716
     15 C           7.7367   -5.3721   23.7431 C.3     1  UNL1        0.0896
     16 O          -0.6378    1.6208   20.7074 O.3     1  UNL1       -0.4754
     17 C          -0.4178    2.9776   20.1068 C.3     1  UNL1        0.2068
     18 C           0.5034    3.1382   18.9339 C.3     1  UNL1        0.0646
     19 C           1.8629    3.7425   19.1254 C.3     1  UNL1        0.0759
     20 N           3.0474    2.8583   19.3808 N.3     1  UNL1       -0.2726
     21 C           3.8427    3.0159   20.6428 C.3     1  UNL1        0.0721
     22 C           5.0272    2.1318   20.8982 C.3     1  UNL1        0.0174
     23 C           5.4165    1.0901   19.8916 C.3     1  UNL1        0.0029
     24 C           4.6212    0.9324   18.6295 C.3     1  UNL1        0.0174
     25 C           3.4367    1.8166   18.3741 C.3     1  UNL1        0.0721
@<TRIPOS>BOND
     1    13    14    1
     2    14    15    1
     3     7    14    1
     4     7     8    1
     5     8     9    1
     6     9    10    1
     7    10     1    1
     8     1     2   ar
     9     2     3   ar
    10     3     4   ar
    11     4    16    1
    12    16    17    1
    13    17    18    1
    14    18    19    1
    15    19    20    1
    16    20    21    1
    17    21    22    1
    18    22    23    1
    19    23    24    1
    20    24    25    1
    21     4     5   ar
    22     5     6   ar
    23    10    11    1
    24    11    12    1
    25    12     7    1
    26     6     1   ar
    27    25    20    1
@<TRIPOS>MOLECULE
*****
 25 27 0 0 0
SMALL
GASTEIGER

@<TRIPOS>ATOM
      1 C           0.7703    1.3339   19.3889 C.ar    1  UNL1       -0.0223
      2 C           0.4788    2.3049   18.2833 C.ar    1  UNL1       -0.0012
      3 C          -0.5545    3.3747   18.4777 C.ar    1  UNL1        0.0366
      4 C          -1.2964    3.4735   19.7776 C.ar    1  UNL1        0.1385
      5 C          -1.0049    2.5026   20.8831 C.ar    1  UNL1        0.0366
      6 C           0.0284    1.4328   20.6888 C.ar    1  UNL1       -0.0012
      7 C           3.8702   -1.8755   18.8057 C.3     1  UNL1        0.0576
      8 C           3.0033   -1.8836   20.0298 C.3     1  UNL1        0.0163
      9 C           1.9700   -0.8138   20.2242 C.3     1  UNL1        0.0057
     10 C           1.8036    0.2641   19.1945 C.3     1  UNL1        0.0224
     11 C           2.6704    0.2722   17.9704 C.3     1  UNL1        0.0057
     12 C           3.7037   -0.7976   17.7760 C.3     1  UNL1        0.0163
     13 C           4.5411   -4.3854   18.8231 C.3     1  UNL1        0.0896
     14 N           4.9035   -2.9453   18.6114 N.3     1  UNL1       -0.2716
     15 C           6.2992   -2.5751   18.2053 C.3     1  UNL1        0.0896
     16 O          -2.3297    4.5434   19.9720 O.3     1  UNL1       -0.4754
     17 C          -3.5875    4.5285   19.1549 C.3     1  UNL1        0.2068
     18 C          -4.6819    3.5557   19.4804 C.3     1  UNL1        0.0646
     19 C          -5.8648    4.0005   20.2886 C.3     1  UNL1        0.0759
     20 N          -5.8027    3.9724   21.7870 N.3     1  UNL1       -0.2726
     21 C          -6.8765    4.6389   22.5948 C.3     1  UNL1        0.0721
     22 C          -6.8144    4.6107   24.0932 C.3     1  UNL1        0.0174
     23 C          -5.6785    3.9161   24.7839 C.3     1  UNL1        0.0029
     24 C          -4.6046    3.2496   23.9761 C.3     1  UNL1        0.0174
     25 C          -4.6666    3.2777   22.4777 C.3     1  UNL1        0.0721
@<TRIPOS>BOND
     1    13    14    1
     2    14    15    1
     3     7    14    1
     4     7     8    1
     5     8     9    1
     6     9    10    1
     7    10     1    1
     8     1     2   ar
     9     2     3   ar
    10     3     4   ar
    11     4    16    1
    12    16    17    1
    13    17    18    1
    14    18    19    1
    15    19    20    1
    16    20    21    1
    17    21    22    1
    18    22    23    1
    19    23    24    1
    20    24    25    1
    21     4     5   ar
    22     5     6   ar
    23    10    11    1
    24    11    12    1
    25    12     7    1
    26     6     1   ar
    27    25    20    1
@<TRIPOS>MOLECULE
*****
 25 27 0 0 0
SMALL
GASTEIGER

@<TRIPOS>ATOM
      1 C           3.4583   -1.1800   19.9215 C.ar    1  UNL1       -0.0223
      2 C           2.0519   -1.1882   20.4430 C.ar    1  UNL1       -0.0012
      3 C           1.0201   -0.2871   19.8318 C.ar    1  UNL1        0.0366
      4 C           1.3947    0.6222   18.6992 C.ar    1  UNL1        0.1385
      5 C           2.8011    0.6304   18.1777 C.ar    1  UNL1        0.0366
      6 C           3.8329   -0.2707   18.7889 C.ar    1  UNL1       -0.0012
      7 C           6.5536   -3.8833   21.7548 C.3     1  UNL1        0.0576
      8 C           6.7865   -3.2885   20.3977 C.3     1  UNL1        0.0163
      9 C           5.7547   -2.3875   19.7865 C.3     1  UNL1        0.0057
     10 C           4.4900   -2.0811   20.5326 C.3     1  UNL1        0.0224
     11 C           4.2571   -2.6758   21.8898 C.3     1  UNL1        0.0057
     12 C           5.2889   -3.5769   22.5009 C.3     1  UNL1        0.0163
     13 C           7.5197   -5.1171   23.8271 C.3     1  UNL1        0.0896
     14 N           7.5853   -4.7844   22.3660 N.3     1  UNL1       -0.2716
     15 C           8.6828   -5.3527   21.5160 C.3     1  UNL1        0.0896
     16 O           0.3629    1.5233   18.0881 O.3     1  UNL1       -0.4754
     17 C           0.3261    2.9775   18.4538 C.3     1  UNL1        0.2068
     18 C           0.1405    3.3866   19.8850 C.3     1  UNL1        0.0646
     19 C           1.3356    3.6883   20.7398 C.3     1  UNL1        0.0759
     20 N           1.8612    2.6510   21.6872 N.3     1  UNL1       -0.2726
     21 C           0.9341    1.9863   22.6612 C.3     1  UNL1        0.0721
     22 C           1.4597    0.9489   23.6086 C.3     1  UNL1        0.0174
     23 C           2.9124    0.5763   23.5821 C.3     1  UNL1        0.0029
     24 C           3.8396    1.2410   22.6082 C.3     1  UNL1        0.0174
     25 C           3.3140    2.2783   21.6607 C.3     1  UNL1        0.0721
@<TRIPOS>BOND
     1    13    14    1
     2    14    15    1
     3     7    14    1
     4     7     8    1
     5     8     9    1
     6     9    10    1
     7    10     1    1
     8     1     2   ar
     9     2     3   ar
    10     3     4   ar
    11     4    16    1
    12    16    17    1
    13    17    18    1
    14    18    19    1
    15    19    20    1
    16    20    21    1
    17    21    22    1
    18    22    23    1
    19    23    24    1
    20    24    25    1
    21     4     5   ar
    22     5     6   ar
    23    10    11    1
    24    11    12    1
    25    12     7    1
    26     6     1   ar
    27    25    20    1
@<TRIPOS>MOLECULE
*****
 25 27 0 0 0
SMALL
GASTEIGER

@<TRIPOS>ATOM
      1 C           7.1299   -3.5100   20.9879 C.ar    1  UNL1       -0.0223
      2 C           8.0555   -2.3974   20.5939 C.ar    1  UNL1       -0.0012
      3 C           7.8437   -1.6681   19.3004 C.ar    1  UNL1        0.0366
      4 C           6.7064   -2.0515   18.4007 C.ar    1  UNL1        0.1385
      5 C           5.7808   -3.1642   18.7947 C.ar    1  UNL1        0.0366
      6 C           5.9925   -3.8934   20.0882 C.ar    1  UNL1       -0.0012
      7 C           7.7651   -5.6978   24.8686 C.3     1  UNL1        0.0576
      8 C           6.7510   -4.5956   24.7863 C.3     1  UNL1        0.0163
      9 C           6.5393   -3.8664   23.4927 C.3     1  UNL1        0.0057
     10 C           7.3416   -4.2393   22.2815 C.3     1  UNL1        0.0224
     11 C           8.3557   -5.3414   22.3638 C.3     1  UNL1        0.0057
     12 C           8.5675   -6.0707   23.6574 C.3     1  UNL1        0.0163
     13 C           8.8017   -5.8031   27.2486 C.3     1  UNL1        0.0896
     14 N           7.9769   -6.4270   26.1622 N.3     1  UNL1       -0.2716
     15 C           7.3638   -7.7802   26.3694 C.3     1  UNL1        0.0896
     16 O           6.4946   -1.3223   17.1071 O.3     1  UNL1       -0.4754
     17 C           5.5526   -0.1565   17.0489 C.3     1  UNL1        0.2068
     18 C           4.0731   -0.3818   17.1510 C.3     1  UNL1        0.0646
     19 C           3.3174    0.1272   18.3426 C.3     1  UNL1        0.0759
     20 N           3.7627   -0.2417   19.7267 N.3     1  UNL1       -0.2726
     21 C           4.8798    0.5150   20.3819 C.3     1  UNL1        0.0721
     22 C           5.3251    0.1461   21.7659 C.3     1  UNL1        0.0174
     23 C           4.6531   -0.9796   22.4948 C.3     1  UNL1        0.0029
     24 C           3.5359   -1.7364   21.8397 C.3     1  UNL1        0.0174
     25 C           3.0907   -1.3674   20.4556 C.3     1  UNL1        0.0721
@<TRIPOS>BOND
     1    13    14    1
     2    14    15    1
     3     7    14    1
     4     7     8    1
     5     8     9    1
     6     9    10    1
     7    10     1    1
     8     1     2   ar
     9     2     3   ar
    10     3     4   ar
    11     4    16    1
    12    16    17    1
    13    17    18    1
    14    18    19    1
    15    19    20    1
    16    20    21    1
    17    21    22    1
    18    22    23    1
    19    23    24    1
    20    24    25    1
    21     4     5   ar
    22     5     6   ar
    23    10    11    1
    24    11    12    1
    25    12     7    1
    26     6     1   ar
    27    25    20    1
@<TRIPOS>MOLECULE
*****
 25 27 0 0 0
SMALL
GASTEIGER

@<TRIPOS>ATOM
      1 C           6.2609   -3.5158   21.0705 C.ar    1  UNL1       -0.0223
      2 C           4.8180   -3.7267   20.7191 C.ar    1  UNL1       -0.0012
      3 C           4.2820   -3.2185   19.4136 C.ar    1  UNL1        0.0366
      4 C           5.1888   -2.4994   18.4595 C.ar    1  UNL1        0.1385
      5 C           6.6317   -2.2885   18.8109 C.ar    1  UNL1        0.0366
      6 C           7.1678   -2.7967   20.1164 C.ar    1  UNL1       -0.0012
      7 C           7.8690   -5.0405   24.9871 C.3     1  UNL1        0.0576
      8 C           6.5932   -4.2523   24.9560 C.3     1  UNL1        0.0163
      9 C           6.0572   -3.7440   23.6505 C.3     1  UNL1        0.0057
     10 C           6.7969   -4.0240   22.3760 C.3     1  UNL1        0.0224
     11 C           8.0727   -4.8123   22.4071 C.3     1  UNL1        0.0057
     12 C           8.6088   -5.3205   23.7126 C.3     1  UNL1        0.0163
     13 C           9.1427   -6.8538   26.3434 C.3     1  UNL1        0.0896
     14 N           8.4051   -5.5487   26.2926 N.3     1  UNL1       -0.2716
     15 C           8.2035   -4.7518   27.5473 C.3     1  UNL1        0.0896
     16 O           4.6528   -1.9912   17.1540 O.3     1  UNL1       -0.4754
     17 C           4.2244   -0.5594   17.0255 C.3     1  UNL1        0.2068
     18 C           3.0574   -0.0516   17.8193 C.3     1  UNL1        0.0646
     19 C           3.2837    0.8784   18.9743 C.3     1  UNL1        0.0759
     20 N           3.6620    0.3279   20.3174 N.3     1  UNL1       -0.2726
     21 C           2.6334   -0.3657   21.1604 C.3     1  UNL1        0.0721
     22 C           3.0117   -0.9162   22.5035 C.3     1  UNL1        0.0174
     23 C           4.4186   -0.7730   23.0036 C.3     1  UNL1        0.0029
     24 C           5.4473   -0.0793   22.1605 C.3     1  UNL1        0.0174
     25 C           5.0690    0.4711   20.8174 C.3     1  UNL1        0.0721
@<TRIPOS>BOND
     1    13    14    1
     2    14    15    1
     3     7    14    1
     4     7     8    1
     5     8     9    1
     6     9    10    1
     7    10     1    1
     8     1     2   ar
     9     2     3   ar
    10     3     4   ar
    11     4    16    1
    12    16    17    1
    13    17    18    1
    14    18    19    1
    15    19    20    1
    16    20    21    1
    17    21    22    1
    18    22    23    1
    19    23    24    1
    20    24    25    1
    21     4     5   ar
    22     5     6   ar
    23    10    11    1
    24    11    12    1
    25    12     7    1
    26     6     1   ar
    27    25    20    1
