@<TRIPOS>MOLECULE
*****
 20 22 0 0 0
SMALL
GASTEIGER

@<TRIPOS>ATOM
      1 C         -10.1963  -17.9384   22.8873 C.3     1  UNL1        0.0681
      2 C         -10.7732  -16.5538   22.9003 C.3     1  UNL1        0.0100
      3 C         -11.9988  -16.2443   22.0926 C.3     1  UNL1        0.0176
      4 C         -12.6474  -17.3193   21.2719 C.3     1  UNL1        0.0686
      5 N         -12.0705  -18.7038   21.2589 N.3     1  UNL1       -0.2971
      6 C         -10.8450  -19.0134   22.0666 C.3     1  UNL1        0.0757
      7 H         -11.8455  -18.9199   20.2878 H       1  UNL1        0.1233
      8 C          -9.2309  -17.2627   23.8154 C.ar    1  UNL1        0.1234
      9 C          -7.9038  -16.6770   23.4336 C.ar    1  UNL1        0.0360
     10 C          -7.2758  -16.1064   24.6705 C.ar    1  UNL1        0.0372
     11 C          -5.9703  -15.4047   24.9011 C.ar    1  UNL1        0.0031
     12 C          -5.6037  -14.9361   26.2780 C.ar    1  UNL1        0.0002
     13 C          -6.5427  -15.1691   27.4243 C.ar    1  UNL1        0.0031
     14 C          -7.8482  -15.8707   27.1937 C.ar    1  UNL1        0.0375
     15 C          -8.2148  -16.3394   25.8168 C.ar    1  UNL1        0.1448
     16 O          -9.4231  -17.0540   25.2883 O.2     1  UNL1       -0.4577
     17 C          -9.2842  -19.0882   23.1966 C.3     1  UNL1        0.0402
     18 O         -10.1716  -20.0701   25.4323 O.3     1  UNL1       -0.3820
     19 C          -9.7906  -20.2540   23.9932 C.3     1  UNL1        0.1376
     20 H         -10.4761  -20.9159   25.7968 H       1  UNL1        0.2104
@<TRIPOS>BOND
     1    18    19    1
     2    19    17    1
     3     1    17    1
     4     1     8    1
     5     8     9   ar
     6     9    10   ar
     7    10    11   ar
     8    11    12   ar
     9    12    13   ar
    10    13    14   ar
    11    14    15   ar
    12    15    16   ar
    13     1     2    1
    14     2     3    1
    15     3     4    1
    16     4     5    1
    17     5     6    1
    18     6     1    1
    19    16     8   ar
    20    15    10   ar
    21    18    20    1
    22     5     7    1
@<TRIPOS>MOLECULE
*****
 20 22 0 0 0
SMALL
GASTEIGER

@<TRIPOS>ATOM
      1 C          -9.3872  -17.6251   21.6580 C.3     1  UNL1        0.0681
      2 C         -10.1233  -16.3325   21.8508 C.3     1  UNL1        0.0100
      3 C         -11.2842  -15.9911   20.9643 C.3     1  UNL1        0.0176
      4 C         -11.7088  -16.9422   19.8849 C.3     1  UNL1        0.0686
      5 N         -10.9726  -18.2348   19.6921 N.3     1  UNL1       -0.2971
      6 C          -9.8118  -18.5763   20.5787 C.3     1  UNL1        0.0757
      7 H         -10.6214  -18.2336   18.7345 H       1  UNL1        0.1233
      8 C          -8.6136  -17.0540   22.8092 C.ar    1  UNL1        0.1234
      9 C          -9.1196  -16.8767   24.2101 C.ar    1  UNL1        0.0360
     10 C          -8.0169  -16.2730   25.0284 C.ar    1  UNL1        0.0372
     11 C          -7.9407  -15.8764   26.4730 C.ar    1  UNL1        0.0031
     12 C          -6.6770  -15.2839   27.0224 C.ar    1  UNL1        0.0002
     13 C          -5.4894  -15.0880   26.1272 C.ar    1  UNL1        0.0031
     14 C          -5.5656  -15.4847   24.6826 C.ar    1  UNL1        0.0375
     15 C          -6.8293  -16.0772   24.1332 C.ar    1  UNL1        0.1448
     16 O          -7.1981  -16.5599   22.7617 O.2     1  UNL1       -0.4577
     17 C          -8.3823  -18.7194   21.8650 C.3     1  UNL1        0.0402
     18 O          -6.4323  -18.2782   20.2058 O.3     1  UNL1       -0.3820
     19 C          -7.5201  -19.1716   20.7238 C.3     1  UNL1        0.1376
     20 H          -5.9738  -18.7184   19.4731 H       1  UNL1        0.2104
@<TRIPOS>BOND
     1    18    19    1
     2    19    17    1
     3     1    17    1
     4     1     8    1
     5     8     9   ar
     6     9    10   ar
     7    10    11   ar
     8    11    12   ar
     9    12    13   ar
    10    13    14   ar
    11    14    15   ar
    12    15    16   ar
    13     1     2    1
    14     2     3    1
    15     3     4    1
    16     4     5    1
    17     5     6    1
    18     6     1    1
    19    16     8   ar
    20    15    10   ar
    21    18    20    1
    22     5     7    1
@<TRIPOS>MOLECULE
*****
 20 22 0 0 0
SMALL
GASTEIGER

@<TRIPOS>ATOM
      1 C          -3.6550  -18.7082   21.3174 C.3     1  UNL1        0.0681
      2 C          -3.6407  -18.6970   19.8175 C.3     1  UNL1        0.0100
      3 C          -2.3390  -18.5830   19.0808 C.3     1  UNL1        0.0176
      4 C          -1.0518  -18.4803   19.8439 C.3     1  UNL1        0.0686
      5 N          -1.0661  -18.4916   21.3437 N.3     1  UNL1       -0.2971
      6 C          -2.3678  -18.6055   22.0805 C.3     1  UNL1        0.0757
      7 H          -0.6302  -17.6213   21.6489 H       1  UNL1        0.1233
      8 C          -5.1245  -18.8294   21.0419 C.ar    1  UNL1        0.1234
      9 C          -5.7477  -19.5463   19.8810 C.ar    1  UNL1        0.0360
     10 C          -7.2372  -19.4150   20.0006 C.ar    1  UNL1        0.0372
     11 C          -8.3611  -19.9190   19.1447 C.ar    1  UNL1        0.0031
     12 C          -9.7824  -19.6250   19.5235 C.ar    1  UNL1        0.0002
     13 C         -10.0797  -18.8270   20.7584 C.ar    1  UNL1        0.0031
     14 C          -8.9558  -18.3230   21.6143 C.ar    1  UNL1        0.0375
     15 C          -7.5345  -18.6170   21.2355 C.ar    1  UNL1        0.1448
     16 O          -6.2288  -18.2551   21.8790 O.2     1  UNL1       -0.4577
     17 C          -4.1797  -18.7615   22.7216 C.3     1  UNL1        0.0402
     18 O          -4.5643  -16.2984   23.4529 O.3     1  UNL1       -0.3820
     19 C          -3.9074  -17.6296   23.6675 C.3     1  UNL1        0.1376
     20 H          -4.2830  -15.6831   24.1481 H       1  UNL1        0.2104
@<TRIPOS>BOND
     1    18    19    1
     2    19    17    1
     3     1    17    1
     4     1     8    1
     5     8     9   ar
     6     9    10   ar
     7    10    11   ar
     8    11    12   ar
     9    12    13   ar
    10    13    14   ar
    11    14    15   ar
    12    15    16   ar
    13     1     2    1
    14     2     3    1
    15     3     4    1
    16     4     5    1
    17     5     6    1
    18     6     1    1
    19    16     8   ar
    20    15    10   ar
    21    18    20    1
    22     5     7    1
@<TRIPOS>MOLECULE
*****
 20 22 0 0 0
SMALL
GASTEIGER

@<TRIPOS>ATOM
      1 C          -8.6316  -17.7117   22.7727 C.3     1  UNL1        0.0681
      2 C          -8.9787  -19.1331   22.4424 C.3     1  UNL1        0.0100
      3 C         -10.3871  -19.6202   22.6129 C.3     1  UNL1        0.0176
      4 C         -11.4484  -18.6860   23.1137 C.3     1  UNL1        0.0686
      5 N         -11.1013  -17.2646   23.4440 N.3     1  UNL1       -0.2971
      6 C          -9.6929  -16.7774   23.2735 C.3     1  UNL1        0.0757
      7 H         -11.3456  -17.1219   24.4240 H       1  UNL1        0.1233
      8 C          -7.2877  -18.2127   22.3336 C.ar    1  UNL1        0.1234
      9 C          -7.0339  -19.2405   21.2710 C.ar    1  UNL1        0.0360
     10 C          -5.5509  -19.4370   21.1607 C.ar    1  UNL1        0.0372
     11 C          -4.7185  -20.3241   20.2832 C.ar    1  UNL1        0.0031
     12 C          -3.2232  -20.3048   20.4003 C.ar    1  UNL1        0.0002
     13 C          -2.5604  -19.3983   21.3948 C.ar    1  UNL1        0.0031
     14 C          -3.3928  -18.5112   22.2722 C.ar    1  UNL1        0.0375
     15 C          -4.8881  -18.5305   22.1552 C.ar    1  UNL1        0.1448
     16 O          -5.9615  -17.7739   22.8801 O.2     1  UNL1       -0.4577
     17 C          -7.8177  -16.4643   22.9505 C.3     1  UNL1        0.0402
     18 O          -7.5706  -14.1515   24.1081 O.3     1  UNL1       -0.3820
     19 C          -8.0684  -15.5664   24.1257 C.3     1  UNL1        0.1376
     20 H          -7.8149  -13.7124   24.9378 H       1  UNL1        0.2104
@<TRIPOS>BOND
     1    18    19    1
     2    19    17    1
     3     1    17    1
     4     1     8    1
     5     8     9   ar
     6     9    10   ar
     7    10    11   ar
     8    11    12   ar
     9    12    13   ar
    10    13    14   ar
    11    14    15   ar
    12    15    16   ar
    13     1     2    1
    14     2     3    1
    15     3     4    1
    16     4     5    1
    17     5     6    1
    18     6     1    1
    19    16     8   ar
    20    15    10   ar
    21    18    20    1
    22     5     7    1
@<TRIPOS>MOLECULE
*****
 20 22 0 0 0
SMALL
GASTEIGER

@<TRIPOS>ATOM
      1 C          -9.9388  -17.9031   22.5177 C.3     1  UNL1        0.0681
      2 C         -10.0991  -18.0539   21.0340 C.3     1  UNL1        0.0100
      3 C         -11.4090  -17.7209   20.3834 C.3     1  UNL1        0.0176
      4 C         -12.5587  -17.2371   21.2166 C.3     1  UNL1        0.0686
      5 N         -12.3984  -17.0864   22.7004 N.3     1  UNL1       -0.2971
      6 C         -11.0884  -17.4194   23.3509 C.3     1  UNL1        0.0757
      7 H         -13.1028  -17.6826   23.1348 H       1  UNL1        0.1233
      8 C          -8.5682  -18.3937   22.1562 C.ar    1  UNL1        0.1234
      9 C          -8.2469  -19.4254   21.1158 C.ar    1  UNL1        0.0360
     10 C          -6.7584  -19.6080   21.0881 C.ar    1  UNL1        0.0372
     11 C          -5.8708  -20.4923   20.2633 C.ar    1  UNL1        0.0031
     12 C          -4.3844  -20.4577   20.4619 C.ar    1  UNL1        0.0002
     13 C          -3.7856  -19.5389   21.4852 C.ar    1  UNL1        0.0031
     14 C          -4.6732  -18.6546   22.3100 C.ar    1  UNL1        0.0375
     15 C          -6.1596  -18.6892   22.1115 C.ar    1  UNL1        0.1448
     16 O          -7.2781  -17.9387   22.7715 O.2     1  UNL1       -0.4577
     17 C          -9.3025  -17.9227   23.8759 C.3     1  UNL1        0.0402
     18 O          -9.7435  -20.1213   25.1881 O.3     1  UNL1       -0.3820
     19 C          -9.9692  -18.6496   25.0061 C.3     1  UNL1        0.1376
     20 H         -10.2436  -20.4322   25.9589 H       1  UNL1        0.2104
@<TRIPOS>BOND
     1    18    19    1
     2    19    17    1
     3     1    17    1
     4     1     8    1
     5     8     9   ar
     6     9    10   ar
     7    10    11   ar
     8    11    12   ar
     9    12    13   ar
    10    13    14   ar
    11    14    15   ar
    12    15    16   ar
    13     1     2    1
    14     2     3    1
    15     3     4    1
    16     4     5    1
    17     5     6    1
    18     6     1    1
    19    16     8   ar
    20    15    10   ar
    21    18    20    1
    22     5     7    1
@<TRIPOS>MOLECULE
*****
 20 22 0 0 0
SMALL
GASTEIGER

@<TRIPOS>ATOM
      1 C          -6.8181  -18.0508   22.5513 C.3     1  UNL1        0.0681
      2 C          -7.0357  -16.7753   23.3101 C.3     1  UNL1        0.0100
      3 C          -5.8602  -16.0037   23.8327 C.3     1  UNL1        0.0176
      4 C          -4.4673  -16.5078   23.5966 C.3     1  UNL1        0.0686
      5 N          -4.2498  -17.7833   22.8379 N.3     1  UNL1       -0.2971
      6 C          -5.4253  -18.5548   22.3152 C.3     1  UNL1        0.0757
      7 H          -3.7377  -18.4109   23.4577 H       1  UNL1        0.1233
      8 C          -8.3162  -17.9814   22.5202 C.ar    1  UNL1        0.1234
      9 C          -9.2362  -18.2674   23.6699 C.ar    1  UNL1        0.0360
     10 C         -10.6459  -18.0765   23.1941 C.ar    1  UNL1        0.0372
     11 C         -11.9676  -18.2184   23.8890 C.ar    1  UNL1        0.0031
     12 C         -13.2406  -17.9563   23.1402 C.ar    1  UNL1        0.0002
     13 C         -13.1918  -17.5523   21.6964 C.ar    1  UNL1        0.0031
     14 C         -11.8701  -17.4104   21.0015 C.ar    1  UNL1        0.0375
     15 C         -10.5972  -17.6726   21.7504 C.ar    1  UNL1        0.1448
     16 O          -9.1574  -17.6137   21.3339 O.2     1  UNL1       -0.4577
     17 C          -7.1210  -19.3022   21.7818 C.3     1  UNL1        0.0402
     18 O          -7.4606  -18.9854   19.2255 O.3     1  UNL1       -0.3820
     19 C          -6.6216  -19.4575   20.3759 C.3     1  UNL1        0.1376
     20 H          -6.9945  -19.1591   18.3928 H       1  UNL1        0.2104
@<TRIPOS>BOND
     1    18    19    1
     2    19    17    1
     3     1    17    1
     4     1     8    1
     5     8     9   ar
     6     9    10   ar
     7    10    11   ar
     8    11    12   ar
     9    12    13   ar
    10    13    14   ar
    11    14    15   ar
    12    15    16   ar
    13     1     2    1
    14     2     3    1
    15     3     4    1
    16     4     5    1
    17     5     6    1
    18     6     1    1
    19    16     8   ar
    20    15    10   ar
    21    18    20    1
    22     5     7    1
@<TRIPOS>MOLECULE
*****
 20 22 0 0 0
SMALL
GASTEIGER

@<TRIPOS>ATOM
      1 C          -6.4637  -16.9921   23.1857 C.3     1  UNL1        0.0681
      2 C          -6.5329  -18.2822   22.4235 C.3     1  UNL1        0.0100
      3 C          -5.2904  -19.0954   22.2112 C.3     1  UNL1        0.0176
      4 C          -3.9789  -18.6185   22.7610 C.3     1  UNL1        0.0686
      5 N          -3.9097  -17.3284   23.5232 N.3     1  UNL1       -0.2971
      6 C          -5.1522  -16.5152   23.7355 C.3     1  UNL1        0.0757
      7 H          -3.2469  -16.7302   23.0300 H       1  UNL1        0.1233
      8 C          -7.9279  -17.0249   22.8614 C.ar    1  UNL1        0.1234
      9 C          -9.0033  -17.6477   23.7015 C.ar    1  UNL1        0.0360
     10 C         -10.3137  -17.4484   22.9994 C.ar    1  UNL1        0.0372
     11 C         -11.7144  -17.8498   23.3555 C.ar    1  UNL1        0.0031
     12 C         -12.8497  -17.5052   22.4377 C.ar    1  UNL1        0.0002
     13 C         -12.5842  -16.7592   21.1637 C.ar    1  UNL1        0.0031
     14 C         -11.1835  -16.3578   20.8075 C.ar    1  UNL1        0.0375
     15 C         -10.0483  -16.7024   21.7254 C.ar    1  UNL1        0.1448
     16 O          -8.5738  -16.4407   21.6401 O.2     1  UNL1       -0.4577
     17 C          -6.9031  -15.7134   23.8353 C.3     1  UNL1        0.0402
     18 O          -7.4662  -14.9695   26.2600 O.3     1  UNL1       -0.3820
     19 C          -6.4590  -15.3901   25.2311 C.3     1  UNL1        0.1376
     20 H          -7.0161  -14.7993   27.1023 H       1  UNL1        0.2104
@<TRIPOS>BOND
     1    18    19    1
     2    19    17    1
     3     1    17    1
     4     1     8    1
     5     8     9   ar
     6     9    10   ar
     7    10    11   ar
     8    11    12   ar
     9    12    13   ar
    10    13    14   ar
    11    14    15   ar
    12    15    16   ar
    13     1     2    1
    14     2     3    1
    15     3     4    1
    16     4     5    1
    17     5     6    1
    18     6     1    1
    19    16     8   ar
    20    15    10   ar
    21    18    20    1
    22     5     7    1
@<TRIPOS>MOLECULE
*****
 20 22 0 0 0
SMALL
GASTEIGER

@<TRIPOS>ATOM
      1 C          -9.8798  -17.6098   22.2216 C.3     1  UNL1        0.0681
      2 C          -9.7293  -18.7945   23.1292 C.3     1  UNL1        0.0100
      3 C         -10.4090  -20.0886   22.7923 C.3     1  UNL1        0.0176
      4 C         -11.2392  -20.1979   21.5478 C.3     1  UNL1        0.0686
      5 N         -11.3897  -19.0131   20.6402 N.3     1  UNL1       -0.2971
      6 C         -10.7100  -17.7191   20.9771 C.3     1  UNL1        0.0757
      7 H         -12.3882  -18.8141   20.5790 H       1  UNL1        0.1233
      8 C          -8.9952  -17.0177   23.2785 C.ar    1  UNL1        0.1234
      9 C          -9.3644  -16.7976   24.7156 C.ar    1  UNL1        0.0360
     10 C          -8.1835  -16.1855   25.4090 C.ar    1  UNL1        0.0372
     11 C          -7.9669  -15.7518   26.8285 C.ar    1  UNL1        0.0031
     12 C          -6.6513  -15.1599   27.2394 C.ar    1  UNL1        0.0002
     13 C          -5.5524  -15.0017   26.2309 C.ar    1  UNL1        0.0031
     14 C          -5.7689  -15.4354   24.8114 C.ar    1  UNL1        0.0375
     15 C          -7.0845  -16.0273   24.4005 C.ar    1  UNL1        0.1448
     16 O          -7.5862  -16.5416   23.0837 O.2     1  UNL1       -0.4577
     17 C          -9.7231  -16.2194   21.6811 C.3     1  UNL1        0.0402
     18 O         -10.2858  -14.8084   19.5734 O.3     1  UNL1       -0.3820
     19 C         -10.7323  -15.6718   20.7159 C.3     1  UNL1        0.1376
     20 H         -11.0572  -14.5407   19.0498 H       1  UNL1        0.2104
@<TRIPOS>BOND
     1    18    19    1
     2    19    17    1
     3     1    17    1
     4     1     8    1
     5     8     9   ar
     6     9    10   ar
     7    10    11   ar
     8    11    12   ar
     9    12    13   ar
    10    13    14   ar
    11    14    15   ar
    12    15    16   ar
    13     1     2    1
    14     2     3    1
    15     3     4    1
    16     4     5    1
    17     5     6    1
    18     6     1    1
    19    16     8   ar
    20    15    10   ar
    21    18    20    1
    22     5     7    1
@<TRIPOS>MOLECULE
*****
 20 22 0 0 0
SMALL
GASTEIGER

@<TRIPOS>ATOM
      1 C          -4.9426  -18.3943   22.3781 C.3     1  UNL1        0.0681
      2 C          -5.1420  -19.3515   21.2406 C.3     1  UNL1        0.0100
      3 C          -3.9574  -20.0116   20.5994 C.3     1  UNL1        0.0176
      4 C          -2.5735  -19.7146   21.0959 C.3     1  UNL1        0.0686
      5 N          -2.3741  -18.7575   22.2335 N.3     1  UNL1       -0.2971
      6 C          -3.5587  -18.0973   22.8746 C.3     1  UNL1        0.0757
      7 H          -1.7721  -18.0103   21.8875 H       1  UNL1        0.1233
      8 C          -6.4377  -18.3541   22.2628 C.ar    1  UNL1        0.1234
      9 C          -7.3560  -19.5398   22.2862 C.ar    1  UNL1        0.0360
     10 C          -8.7628  -19.0396   22.1417 C.ar    1  UNL1        0.0372
     11 C         -10.0819  -19.7522   22.0981 C.ar    1  UNL1        0.0031
     12 C         -11.3521  -18.9699   21.9420 C.ar    1  UNL1        0.0002
     13 C         -11.3032  -17.4749   21.8294 C.ar    1  UNL1        0.0031
     14 C          -9.9840  -16.7623   21.8729 C.ar    1  UNL1        0.0375
     15 C          -8.7138  -17.5446   22.0291 C.ar    1  UNL1        0.1448
     16 O          -7.2768  -17.1210   22.1040 O.2     1  UNL1       -0.4577
     17 C          -5.2625  -17.4232   23.4757 C.3     1  UNL1        0.0402
     18 O          -5.2625  -14.8378   23.2196 O.3     1  UNL1       -0.3820
     19 C          -4.5405  -16.1105   23.5496 C.3     1  UNL1        0.1376
     20 H          -4.6557  -14.0873   23.3167 H       1  UNL1        0.2104
@<TRIPOS>BOND
     1    18    19    1
     2    19    17    1
     3     1    17    1
     4     1     8    1
     5     8     9   ar
     6     9    10   ar
     7    10    11   ar
     8    11    12   ar
     9    12    13   ar
    10    13    14   ar
    11    14    15   ar
    12    15    16   ar
    13     1     2    1
    14     2     3    1
    15     3     4    1
    16     4     5    1
    17     5     6    1
    18     6     1    1
    19    16     8   ar
    20    15    10   ar
    21    18    20    1
    22     5     7    1
