@<TRIPOS>MOLECULE
*****
 27 30 0 0 0
SMALL
GASTEIGER

@<TRIPOS>ATOM
      1 C          -7.7770  -19.4277   21.6242 C.ar    1  UNL1        0.1629
      2 N          -7.6973  -18.5182   22.8143 N.ar    1  UNL1       -0.2284
      3 C          -8.9321  -17.6666   22.8304 C.ar    1  UNL1        0.0666
      4 C          -9.7749  -18.0499   21.6502 C.ar    1  UNL1        0.0237
      5 S          -9.0609  -19.1383   20.9047 S.2     1  UNL1       -0.0561
      6 C         -11.0834  -17.3583   21.4068 C.3     1  UNL1        0.0343
      7 C         -11.5493  -16.2834   22.3436 C.3     1  UNL1        0.0060
      8 C         -10.7065  -15.9002   23.5238 C.3     1  UNL1        0.0107
      9 C          -9.3979  -16.5918   23.7672 C.3     1  UNL1        0.0627
     10 C          -8.5551  -16.2085   24.9474 C.ar    1  UNL1       -0.0169
     11 C          -9.0446  -16.4813   26.3387 C.ar    1  UNL1       -0.0039
     12 C          -8.2018  -16.0981   27.5189 C.ar    1  UNL1       -0.0003
     13 C          -6.8696  -15.4420   27.3078 C.ar    1  UNL1       -0.0000
     14 C          -6.3802  -15.1691   25.9164 C.ar    1  UNL1       -0.0003
     15 C          -7.2229  -15.5524   24.7362 C.ar    1  UNL1       -0.0039
     16 N          -6.7525  -20.4476   21.2238 N.pl3   1  UNL1       -0.2927
     17 H          -7.0034  -21.3972   21.1566 H       1  UNL1        0.1541
     18 C          -3.2507  -18.6039   21.5205 C.ar    1  UNL1        0.1495
     19 C          -4.6574  -19.0309   21.8184 C.ar    1  UNL1        0.0522
     20 C          -5.3458  -20.0207   20.9259 C.ar    1  UNL1        0.0528
     21 C          -4.6273  -20.5835   19.7355 C.ar    1  UNL1        0.0155
     22 C          -3.2205  -20.1565   19.4376 C.ar    1  UNL1        0.0146
     23 C          -2.5322  -19.1667   20.3301 C.ar    1  UNL1        0.1024
     24 C          -2.3773  -16.1966   21.9587 C.3     1  UNL1        0.2525
     25 O          -2.5623  -17.6141   22.4130 O.3     1  UNL1       -0.4707
     26 C          -1.1254  -18.7398   20.0322 C.1     1  UNL1        0.1035
     27 N           0.2813  -18.3128   19.7342 N.1     1  UNL1       -0.1907
@<TRIPOS>BOND
     1    24    25    1
     2    25    18    1
     3    18    19   ar
     4    19    20   ar
     5    20    16    1
     6    16     1    1
     7     1     2   ar
     8     2     3   ar
     9     3     4   ar
    10     4     5   ar
    11     4     6    1
    12     6     7    1
    13     7     8    1
    14     8     9    1
    15     9    10    1
    16    10    11   ar
    17    11    12   ar
    18    12    13   ar
    19    13    14   ar
    20    14    15   ar
    21    20    21   ar
    22    21    22   ar
    23    22    23   ar
    24    23    26    1
    25    26    27    3
    26    23    18   ar
    27     5     1   ar
    28    15    10   ar
    29     9     3    1
    30    16    17    1
@<TRIPOS>MOLECULE
*****
 27 30 0 0 0
SMALL
GASTEIGER

@<TRIPOS>ATOM
      1 C          -6.6696  -19.3517   20.6831 C.ar    1  UNL1        0.1629
      2 N          -6.3676  -18.4619   21.8524 N.ar    1  UNL1       -0.2284
      3 C          -4.8800  -18.4351   22.0425 C.ar    1  UNL1        0.0666
      4 C          -4.2624  -19.3082   20.9907 C.ar    1  UNL1        0.0237
      5 S          -5.3685  -19.8747   20.1506 S.2     1  UNL1       -0.0561
      6 C          -2.7728  -19.4747   20.9339 C.3     1  UNL1        0.0343
      7 C          -1.9007  -18.7680   21.9288 C.3     1  UNL1        0.0060
      8 C          -2.5182  -17.8948   22.9806 C.3     1  UNL1        0.0107
      9 C          -4.0078  -17.7284   23.0374 C.3     1  UNL1        0.0627
     10 C          -4.6254  -16.8552   24.0892 C.ar    1  UNL1       -0.0169
     11 C          -5.5864  -15.7727   23.6960 C.ar    1  UNL1       -0.0039
     12 C          -6.2039  -14.8995   24.7478 C.ar    1  UNL1       -0.0003
     13 C          -5.8604  -15.1088   26.1928 C.ar    1  UNL1       -0.0000
     14 C          -4.8994  -16.1913   26.5860 C.ar    1  UNL1       -0.0003
     15 C          -4.2819  -17.0645   25.5342 C.ar    1  UNL1       -0.0039
     16 N          -8.0331  -19.6636   20.1415 N.pl3   1  UNL1       -0.2927
     17 H          -8.1261  -20.1027   19.2653 H       1  UNL1        0.1541
     18 C         -11.4929  -18.0056   21.1567 C.ar    1  UNL1        0.1495
     19 C         -10.2711  -18.3626   20.3633 C.ar    1  UNL1        0.0522
     20 C          -9.2550  -19.3066   20.9349 C.ar    1  UNL1        0.0528
     21 C          -9.4609  -19.8934   22.2999 C.ar    1  UNL1        0.0155
     22 C         -10.6828  -19.5363   23.0933 C.ar    1  UNL1        0.0146
     23 C         -11.6988  -18.5924   22.5217 C.ar    1  UNL1        0.1024
     24 C         -12.0710  -15.9397   19.6910 C.3     1  UNL1        0.2525
     25 O         -12.5090  -17.0616   20.5851 O.3     1  UNL1       -0.4707
     26 C         -12.9207  -18.2353   23.3152 C.1     1  UNL1        0.1035
     27 N         -14.1426  -17.8783   24.1085 N.1     1  UNL1       -0.1907
@<TRIPOS>BOND
     1    24    25    1
     2    25    18    1
     3    18    19   ar
     4    19    20   ar
     5    20    16    1
     6    16     1    1
     7     1     2   ar
     8     2     3   ar
     9     3     4   ar
    10     4     5   ar
    11     4     6    1
    12     6     7    1
    13     7     8    1
    14     8     9    1
    15     9    10    1
    16    10    11   ar
    17    11    12   ar
    18    12    13   ar
    19    13    14   ar
    20    14    15   ar
    21    20    21   ar
    22    21    22   ar
    23    22    23   ar
    24    23    26    1
    25    26    27    3
    26    23    18   ar
    27     5     1   ar
    28    15    10   ar
    29     9     3    1
    30    16    17    1
@<TRIPOS>MOLECULE
*****
 27 30 0 0 0
SMALL
GASTEIGER

@<TRIPOS>ATOM
      1 C          -7.1643  -19.5100   20.7131 C.ar    1  UNL1        0.1629
      2 N          -7.2641  -18.6089   21.9081 N.ar    1  UNL1       -0.2284
      3 C          -8.6207  -17.9691   21.8943 C.ar    1  UNL1        0.0666
      4 C          -9.3595  -18.4749   20.6908 C.ar    1  UNL1        0.0237
      5 S          -8.4594  -19.4272   19.9608 S.2     1  UNL1       -0.0561
      6 C         -10.7563  -18.0029   20.4152 C.3     1  UNL1        0.0343
      7 C         -11.4144  -17.0252   21.3430 C.3     1  UNL1        0.0060
      8 C         -10.6756  -16.5195   22.5466 C.3     1  UNL1        0.0107
      9 C          -9.2788  -16.9914   22.8222 C.3     1  UNL1        0.0627
     10 C          -8.5400  -16.4857   24.0257 C.ar    1  UNL1       -0.0169
     11 C          -7.3402  -15.6023   23.8528 C.ar    1  UNL1       -0.0039
     12 C          -6.6014  -15.0966   25.0563 C.ar    1  UNL1       -0.0003
     13 C          -7.0625  -15.4743   26.4328 C.ar    1  UNL1       -0.0000
     14 C          -8.2624  -16.3577   26.6057 C.ar    1  UNL1       -0.0003
     15 C          -9.0011  -16.8634   25.4022 C.ar    1  UNL1       -0.0039
     16 N          -5.9779  -20.3470   20.3365 N.pl3   1  UNL1       -0.2927
     17 H          -6.0987  -21.2963   20.1051 H       1  UNL1        0.1541
     18 C          -2.8817  -18.1227   19.2339 C.ar    1  UNL1        0.1495
     19 C          -4.2521  -18.7320   19.2578 C.ar    1  UNL1        0.0522
     20 C          -4.6075  -19.7377   20.3125 C.ar    1  UNL1        0.0528
     21 C          -3.5923  -20.1341   21.3432 C.ar    1  UNL1        0.0155
     22 C          -2.2218  -19.5248   21.3192 C.ar    1  UNL1        0.0146
     23 C          -1.8665  -18.5191   20.2646 C.ar    1  UNL1        0.1024
     24 C          -1.6794  -17.5238   17.0099 C.3     1  UNL1        0.2525
     25 O          -2.5263  -17.1170   18.1792 O.3     1  UNL1       -0.4707
     26 C          -0.4960  -17.9098   20.2406 C.1     1  UNL1        0.1035
     27 N           0.8744  -17.3004   20.2165 N.1     1  UNL1       -0.1907
@<TRIPOS>BOND
     1    24    25    1
     2    25    18    1
     3    18    19   ar
     4    19    20   ar
     5    20    16    1
     6    16     1    1
     7     1     2   ar
     8     2     3   ar
     9     3     4   ar
    10     4     5   ar
    11     4     6    1
    12     6     7    1
    13     7     8    1
    14     8     9    1
    15     9    10    1
    16    10    11   ar
    17    11    12   ar
    18    12    13   ar
    19    13    14   ar
    20    14    15   ar
    21    20    21   ar
    22    21    22   ar
    23    22    23   ar
    24    23    26    1
    25    26    27    3
    26    23    18   ar
    27     5     1   ar
    28    15    10   ar
    29     9     3    1
    30    16    17    1
@<TRIPOS>MOLECULE
*****
 27 30 0 0 0
SMALL
GASTEIGER

@<TRIPOS>ATOM
      1 C          -6.5955  -19.3403   20.5869 C.ar    1  UNL1        0.1629
      2 N          -6.2988  -18.4627   21.7666 N.ar    1  UNL1       -0.2284
      3 C          -4.8122  -18.4407   21.9658 C.ar    1  UNL1        0.0666
      4 C          -4.1902  -19.3047   20.9091 C.ar    1  UNL1        0.0237
      5 S          -5.2923  -19.8607   20.0569 S.2     1  UNL1       -0.0561
      6 C          -2.7006  -19.4736   20.8595 C.3     1  UNL1        0.0343
      7 C          -1.8330  -18.7785   21.8665 C.3     1  UNL1        0.0060
      8 C          -2.4551  -17.9145   22.9231 C.3     1  UNL1        0.0107
      9 C          -3.9447  -17.7456   22.9728 C.3     1  UNL1        0.0627
     10 C          -4.5667  -16.8816   24.0294 C.ar    1  UNL1       -0.0169
     11 C          -4.2461  -17.1173   25.4756 C.ar    1  UNL1       -0.0039
     12 C          -4.8681  -16.2533   26.5323 C.ar    1  UNL1       -0.0003
     13 C          -5.8108  -15.1535   26.1428 C.ar    1  UNL1       -0.0000
     14 C          -6.1314  -14.9178   24.6966 C.ar    1  UNL1       -0.0003
     15 C          -5.5094  -15.7818   23.6399 C.ar    1  UNL1       -0.0039
     16 N          -7.9564  -19.6441   20.0341 N.pl3   1  UNL1       -0.2927
     17 H          -8.0452  -20.0688   19.1504 H       1  UNL1        0.1541
     18 C         -10.4529  -19.2446   23.0932 C.ar    1  UNL1        0.1495
     19 C          -9.2272  -19.5878   22.2995 C.ar    1  UNL1        0.0522
     20 C          -9.1821  -19.3009   20.8279 C.ar    1  UNL1        0.0528
     21 C         -10.3625  -18.6709   20.1500 C.ar    1  UNL1        0.0155
     22 C         -11.5882  -18.3277   20.9438 C.ar    1  UNL1        0.0146
     23 C         -11.6333  -18.6145   22.4154 C.ar    1  UNL1        0.1024
     24 C          -9.8901  -18.5638   25.5366 C.3     1  UNL1        0.2525
     25 O         -10.4980  -19.5314   24.5649 O.3     1  UNL1       -0.4707
     26 C         -12.8590  -18.2713   23.2092 C.1     1  UNL1        0.1035
     27 N         -14.0846  -17.9281   24.0029 N.1     1  UNL1       -0.1907
@<TRIPOS>BOND
     1    24    25    1
     2    25    18    1
     3    18    19   ar
     4    19    20   ar
     5    20    16    1
     6    16     1    1
     7     1     2   ar
     8     2     3   ar
     9     3     4   ar
    10     4     5   ar
    11     4     6    1
    12     6     7    1
    13     7     8    1
    14     8     9    1
    15     9    10    1
    16    10    11   ar
    17    11    12   ar
    18    12    13   ar
    19    13    14   ar
    20    14    15   ar
    21    20    21   ar
    22    21    22   ar
    23    22    23   ar
    24    23    26    1
    25    26    27    3
    26    23    18   ar
    27     5     1   ar
    28    15    10   ar
    29     9     3    1
    30    16    17    1
@<TRIPOS>MOLECULE
*****
 27 30 0 0 0
SMALL
GASTEIGER

@<TRIPOS>ATOM
      1 C          -7.1322  -18.1958   22.5282 C.ar    1  UNL1        0.1629
      2 N          -5.7304  -17.9462   22.0564 N.ar    1  UNL1       -0.2284
      3 C          -5.3013  -19.1248   21.2338 C.ar    1  UNL1        0.0666
      4 C          -6.4380  -20.1029   21.1971 C.ar    1  UNL1        0.0237
      5 S          -7.5695  -19.5287   21.9971 S.2     1  UNL1       -0.0561
      6 C          -6.2958  -21.3900   20.4400 C.3     1  UNL1        0.0343
      7 C          -5.0170  -21.6990   19.7196 C.3     1  UNL1        0.0060
      8 C          -3.8803  -20.7209   19.7563 C.3     1  UNL1        0.0107
      9 C          -4.0225  -19.4338   20.5134 C.3     1  UNL1        0.0627
     10 C          -2.8858  -18.4558   20.5500 C.ar    1  UNL1       -0.0169
     11 C          -1.8575  -18.4597   19.4580 C.ar    1  UNL1       -0.0039
     12 C          -0.7208  -17.4816   19.4947 C.ar    1  UNL1       -0.0003
     13 C          -0.6125  -16.4996   20.6234 C.ar    1  UNL1       -0.0000
     14 C          -1.6408  -16.4957   21.7153 C.ar    1  UNL1       -0.0003
     15 C          -2.7775  -17.4738   21.6787 C.ar    1  UNL1       -0.0039
     16 N          -7.9527  -17.2743   23.3813 N.pl3   1  UNL1       -0.2927
     17 H          -7.5330  -16.4901   23.8033 H       1  UNL1        0.1541
     18 C         -11.8933  -17.1559   22.9265 C.ar    1  UNL1        0.1495
     19 C         -10.4335  -16.8826   22.7165 C.ar    1  UNL1        0.0522
     20 C          -9.4125  -17.5477   23.5913 C.ar    1  UNL1        0.0528
     21 C          -9.8513  -18.4860   24.6761 C.ar    1  UNL1        0.0155
     22 C         -11.3112  -18.7593   24.8862 C.ar    1  UNL1        0.0146
     23 C         -12.3322  -18.0943   24.0114 C.ar    1  UNL1        0.1024
     24 C         -12.6147  -16.2453   20.6026 C.3     1  UNL1        0.2525
     25 O         -12.9144  -16.4909   22.0517 O.3     1  UNL1       -0.4707
     26 C         -13.7921  -18.3676   24.2214 C.1     1  UNL1        0.1035
     27 N         -15.2520  -18.6409   24.4314 N.1     1  UNL1       -0.1907
@<TRIPOS>BOND
     1    24    25    1
     2    25    18    1
     3    18    19   ar
     4    19    20   ar
     5    20    16    1
     6    16     1    1
     7     1     2   ar
     8     2     3   ar
     9     3     4   ar
    10     4     5   ar
    11     4     6    1
    12     6     7    1
    13     7     8    1
    14     8     9    1
    15     9    10    1
    16    10    11   ar
    17    11    12   ar
    18    12    13   ar
    19    13    14   ar
    20    14    15   ar
    21    20    21   ar
    22    21    22   ar
    23    22    23   ar
    24    23    26    1
    25    26    27    3
    26    23    18   ar
    27     5     1   ar
    28    15    10   ar
    29     9     3    1
    30    16    17    1
@<TRIPOS>MOLECULE
*****
 27 30 0 0 0
SMALL
GASTEIGER

@<TRIPOS>ATOM
      1 C          -8.7344  -19.2991   20.5637 C.ar    1  UNL1        0.1629
      2 N          -8.7020  -18.5849   21.8823 N.ar    1  UNL1       -0.2284
      3 C         -10.0944  -18.1214   22.1928 C.ar    1  UNL1        0.0666
      4 C         -10.9874  -18.5492   21.0661 C.ar    1  UNL1        0.0237
      5 S         -10.1469  -19.2771   20.0593 S.2     1  UNL1       -0.0561
      6 C         -12.4505  -18.2208   21.1026 C.3     1  UNL1        0.0343
      7 C         -13.0206  -17.4645   22.2657 C.3     1  UNL1        0.0060
      8 C         -12.1275  -17.0366   23.3924 C.3     1  UNL1        0.0107
      9 C         -10.6644  -17.3651   23.3560 C.3     1  UNL1        0.0627
     10 C          -9.7714  -16.9373   24.4827 C.ar    1  UNL1       -0.0169
     11 C          -9.6919  -17.7636   25.7320 C.ar    1  UNL1       -0.0039
     12 C          -8.7989  -17.3358   26.8587 C.ar    1  UNL1       -0.0003
     13 C          -7.9854  -16.0816   26.7361 C.ar    1  UNL1       -0.0000
     14 C          -8.0648  -15.2552   25.4868 C.ar    1  UNL1       -0.0003
     15 C          -8.9579  -15.6831   24.3601 C.ar    1  UNL1       -0.0039
     16 N          -7.5605  -19.9255   19.8711 N.pl3   1  UNL1       -0.2927
     17 H          -7.7029  -20.5066   19.0893 H       1  UNL1        0.1541
     18 C          -3.6823  -19.0835   19.8971 C.ar    1  UNL1        0.1495
     19 C          -5.0731  -19.3427   19.3986 C.ar    1  UNL1        0.0522
     20 C          -6.1697  -19.6663   20.3696 C.ar    1  UNL1        0.0528
     21 C          -5.8756  -19.7307   21.8390 C.ar    1  UNL1        0.0155
     22 C          -4.4847  -19.4715   22.3375 C.ar    1  UNL1        0.0146
     23 C          -3.3881  -19.1479   21.3666 C.ar    1  UNL1        0.1024
     24 C          -2.2350  -17.3297   18.6402 C.3     1  UNL1        0.2525
     25 O          -2.5857  -18.7599   18.9262 O.3     1  UNL1       -0.4707
     26 C          -1.9973  -18.8887   21.8651 C.1     1  UNL1        0.1035
     27 N          -0.6065  -18.6295   22.3635 N.1     1  UNL1       -0.1907
@<TRIPOS>BOND
     1    24    25    1
     2    25    18    1
     3    18    19   ar
     4    19    20   ar
     5    20    16    1
     6    16     1    1
     7     1     2   ar
     8     2     3   ar
     9     3     4   ar
    10     4     5   ar
    11     4     6    1
    12     6     7    1
    13     7     8    1
    14     8     9    1
    15     9    10    1
    16    10    11   ar
    17    11    12   ar
    18    12    13   ar
    19    13    14   ar
    20    14    15   ar
    21    20    21   ar
    22    21    22   ar
    23    22    23   ar
    24    23    26    1
    25    26    27    3
    26    23    18   ar
    27     5     1   ar
    28    15    10   ar
    29     9     3    1
    30    16    17    1
@<TRIPOS>MOLECULE
*****
 27 30 0 0 0
SMALL
GASTEIGER

@<TRIPOS>ATOM
      1 C          -8.0351  -15.9870   22.7313 C.ar    1  UNL1        0.1629
      2 N          -7.0650  -16.9978   22.1955 N.ar    1  UNL1       -0.2284
      3 C          -5.8819  -17.0385   23.1167 C.ar    1  UNL1        0.0666
      4 C          -6.1207  -16.0527   24.2218 C.ar    1  UNL1        0.0237
      5 S          -7.4515  -15.4029   23.9836 S.2     1  UNL1       -0.0561
      6 C          -5.0956  -15.8742   25.3021 C.3     1  UNL1        0.0343
      7 C          -3.8316  -16.6815   25.2774 C.3     1  UNL1        0.0060
      8 C          -3.5928  -17.6672   24.1723 C.3     1  UNL1        0.0107
      9 C          -4.6179  -17.8457   23.0919 C.3     1  UNL1        0.0627
     10 C          -4.3790  -18.8315   21.9868 C.ar    1  UNL1       -0.0169
     11 C          -3.0740  -18.8274   21.2473 C.ar    1  UNL1       -0.0039
     12 C          -2.8351  -19.8131   20.1422 C.ar    1  UNL1       -0.0003
     13 C          -3.9012  -20.8029   19.7766 C.ar    1  UNL1       -0.0000
     14 C          -5.2062  -20.8070   20.5162 C.ar    1  UNL1       -0.0003
     15 C          -5.4451  -19.8213   21.6213 C.ar    1  UNL1       -0.0039
     16 N          -9.3568  -15.6240   22.1218 N.pl3   1  UNL1       -0.2927
     17 H          -9.3997  -14.9520   21.4036 H       1  UNL1        0.1541
     18 C         -11.7882  -18.1801   23.9396 C.ar    1  UNL1        0.1495
     19 C         -10.5319  -17.5193   23.4549 C.ar    1  UNL1        0.0522
     20 C         -10.6130  -16.2848   22.6066 C.ar    1  UNL1        0.0528
     21 C         -11.9505  -15.7112   22.2431 C.ar    1  UNL1        0.0155
     22 C         -13.2068  -16.3721   22.7279 C.ar    1  UNL1        0.0146
     23 C         -13.1256  -17.6065   23.5762 C.ar    1  UNL1        0.1024
     24 C         -10.3908  -20.1084   24.9786 C.3     1  UNL1        0.2525
     25 O         -11.7070  -19.4146   24.7880 O.3     1  UNL1       -0.4707
     26 C         -14.3820  -18.2674   24.0610 C.1     1  UNL1        0.1035
     27 N         -15.6382  -18.9282   24.5458 N.1     1  UNL1       -0.1907
@<TRIPOS>BOND
     1    24    25    1
     2    25    18    1
     3    18    19   ar
     4    19    20   ar
     5    20    16    1
     6    16     1    1
     7     1     2   ar
     8     2     3   ar
     9     3     4   ar
    10     4     5   ar
    11     4     6    1
    12     6     7    1
    13     7     8    1
    14     8     9    1
    15     9    10    1
    16    10    11   ar
    17    11    12   ar
    18    12    13   ar
    19    13    14   ar
    20    14    15   ar
    21    20    21   ar
    22    21    22   ar
    23    22    23   ar
    24    23    26    1
    25    26    27    3
    26    23    18   ar
    27     5     1   ar
    28    15    10   ar
    29     9     3    1
    30    16    17    1
@<TRIPOS>MOLECULE
*****
 27 30 0 0 0
SMALL
GASTEIGER

@<TRIPOS>ATOM
      1 C          -8.9988  -16.5034   23.2883 C.ar    1  UNL1        0.1629
      2 N          -7.5320  -16.6939   23.0388 N.ar    1  UNL1       -0.2284
      3 C          -6.7896  -16.2154   24.2513 C.ar    1  UNL1        0.0666
      4 C          -7.7976  -15.7292   25.2501 C.ar    1  UNL1        0.0237
      5 S          -9.1629  -15.9072   24.6549 S.2     1  UNL1       -0.0561
      6 C          -7.3420  -15.1873   26.5724 C.3     1  UNL1        0.0343
      7 C          -5.8784  -15.1315   26.8960 C.3     1  UNL1        0.0060
      8 C          -4.8704  -15.6177   25.8972 C.3     1  UNL1        0.0107
      9 C          -5.3260  -16.1596   24.5748 C.3     1  UNL1        0.0627
     10 C          -4.3180  -16.6458   23.5760 C.ar    1  UNL1       -0.0169
     11 C          -3.4819  -15.6608   22.8141 C.ar    1  UNL1       -0.0039
     12 C          -2.4739  -16.1470   21.8153 C.ar    1  UNL1       -0.0003
     13 C          -2.3020  -17.6181   21.5785 C.ar    1  UNL1       -0.0000
     14 C          -3.1382  -18.6031   22.3404 C.ar    1  UNL1       -0.0003
     15 C          -4.1462  -18.1169   23.3392 C.ar    1  UNL1       -0.0039
     16 N         -10.1069  -16.8485   22.3380 N.pl3   1  UNL1       -0.2927
     17 H         -10.9836  -16.4089   22.4236 H       1  UNL1        0.1541
     18 C          -8.3191  -19.5562   20.0528 C.ar    1  UNL1        0.1495
     19 C          -8.5468  -18.5413   21.1335 C.ar    1  UNL1        0.0522
     20 C          -9.8792  -17.8635   21.2573 C.ar    1  UNL1        0.0528
     21 C         -10.9839  -18.2007   20.3002 C.ar    1  UNL1        0.0155
     22 C         -10.7562  -19.2157   19.2195 C.ar    1  UNL1        0.0146
     23 C          -9.4238  -19.8934   19.0958 C.ar    1  UNL1        0.1024
     24 C          -6.1577  -20.4877   21.1532 C.3     1  UNL1        0.2525
     25 O          -6.9866  -20.2341   19.9291 O.3     1  UNL1       -0.4707
     26 C          -9.1961  -20.9084   18.0150 C.1     1  UNL1        0.1035
     27 N          -8.9683  -21.9234   16.9344 N.1     1  UNL1       -0.1907
@<TRIPOS>BOND
     1    24    25    1
     2    25    18    1
     3    18    19   ar
     4    19    20   ar
     5    20    16    1
     6    16     1    1
     7     1     2   ar
     8     2     3   ar
     9     3     4   ar
    10     4     5   ar
    11     4     6    1
    12     6     7    1
    13     7     8    1
    14     8     9    1
    15     9    10    1
    16    10    11   ar
    17    11    12   ar
    18    12    13   ar
    19    13    14   ar
    20    14    15   ar
    21    20    21   ar
    22    21    22   ar
    23    22    23   ar
    24    23    26    1
    25    26    27    3
    26    23    18   ar
    27     5     1   ar
    28    15    10   ar
    29     9     3    1
    30    16    17    1
@<TRIPOS>MOLECULE
*****
 27 30 0 0 0
SMALL
GASTEIGER

@<TRIPOS>ATOM
      1 C         -15.0479   -3.6721   19.7630 C.ar    1  UNL1        0.1629
      2 N         -13.8233   -4.4690   19.4231 N.ar    1  UNL1       -0.2284
      3 C         -12.7827   -3.5212   18.9045 C.ar    1  UNL1        0.0666
      4 C         -13.3641   -2.1386   18.9238 C.ar    1  UNL1        0.0237
      5 S         -14.7641   -2.2319   19.4544 S.2     1  UNL1       -0.0561
      6 C         -12.5437   -0.9734   18.4558 C.3     1  UNL1        0.0343
      7 C         -11.1419   -1.1908   17.9685 C.3     1  UNL1        0.0060
      8 C         -10.5604   -2.5734   17.9492 C.3     1  UNL1        0.0107
      9 C         -11.3809   -3.7386   18.4172 C.3     1  UNL1        0.0627
     10 C         -10.7994   -5.1212   18.3979 C.ar    1  UNL1       -0.0169
     11 C         -11.3751   -6.1643   17.4866 C.ar    1  UNL1       -0.0039
     12 C         -10.7937   -7.5469   17.4673 C.ar    1  UNL1       -0.0003
     13 C          -9.6366   -7.8864   18.3593 C.ar    1  UNL1       -0.0000
     14 C          -9.0609   -6.8433   19.2706 C.ar    1  UNL1       -0.0003
     15 C          -9.6423   -5.4607   19.2899 C.ar    1  UNL1       -0.0039
     16 N         -16.3310   -4.2194   20.3145 N.pl3   1  UNL1       -0.2927
     17 H         -16.7882   -3.7537   21.0516 H       1  UNL1        0.1541
     18 C         -16.6971   -7.9976   19.1565 C.ar    1  UNL1        0.1495
     19 C         -16.1107   -6.7408   19.7279 C.ar    1  UNL1        0.0522
     20 C         -16.9174   -5.4762   19.7431 C.ar    1  UNL1        0.0528
     21 C         -18.3104   -5.4684   19.1869 C.ar    1  UNL1        0.0155
     22 C         -18.8968   -6.7253   18.6154 C.ar    1  UNL1        0.0146
     23 C         -18.0901   -7.9899   18.6002 C.ar    1  UNL1        0.1024
     24 C         -14.9500   -9.5383   18.0058 C.3     1  UNL1        0.2525
     25 O         -15.8905   -9.2622   19.1413 O.3     1  UNL1       -0.4707
     26 C         -18.6765   -9.2467   18.0288 C.1     1  UNL1        0.1035
     27 N         -19.2629  -10.5035   17.4574 N.1     1  UNL1       -0.1907
@<TRIPOS>BOND
     1    24    25    1
     2    25    18    1
     3    18    19   ar
     4    19    20   ar
     5    20    16    1
     6    16     1    1
     7     1     2   ar
     8     2     3   ar
     9     3     4   ar
    10     4     5   ar
    11     4     6    1
    12     6     7    1
    13     7     8    1
    14     8     9    1
    15     9    10    1
    16    10    11   ar
    17    11    12   ar
    18    12    13   ar
    19    13    14   ar
    20    14    15   ar
    21    20    21   ar
    22    21    22   ar
    23    22    23   ar
    24    23    26    1
    25    26    27    3
    26    23    18   ar
    27     5     1   ar
    28    15    10   ar
    29     9     3    1
    30    16    17    1
