@<TRIPOS>MOLECULE
*****
 38 41 0 0 0
SMALL
GASTEIGER

@<TRIPOS>ATOM
      1 C           3.6944   -0.1561   28.2052 C.3     1  UNL1        0.0377
      2 C           5.0796    0.2465   27.7942 C.3     1  UNL1        0.0075
      3 C           6.0526    0.7428   28.8222 C.3     1  UNL1        0.0219
      4 C           5.6403    0.8365   30.2615 C.3     1  UNL1        0.0950
      5 N           4.2551    0.4339   30.6725 N.am    1  UNL1       -0.2637
      6 C           3.8428    0.5275   32.1118 C.2     1  UNL1        0.3077
      7 O           2.4576    0.1249   32.5228 O.2     1  UNL1       -0.2522
      8 N           4.8158    1.0239   33.1398 N.am    1  UNL1       -0.2681
      9 C           3.2821   -0.0625   29.6445 C.3     1  UNL1        0.0989
     10 H           5.7250    1.2881   32.8701 H       1  UNL1        0.1564
     11 C           3.6161   -0.4217   26.7310 C.ar    1  UNL1       -0.0212
     12 C           2.7116    0.4060   25.8668 C.ar    1  UNL1       -0.0042
     13 C           2.6334    0.1404   24.3926 C.ar    1  UNL1       -0.0003
     14 C           3.4596   -0.9529   23.7826 C.ar    1  UNL1       -0.0000
     15 C           4.3641   -1.7805   24.6467 C.ar    1  UNL1       -0.0003
     16 C           4.4423   -1.5150   26.1209 C.ar    1  UNL1       -0.0042
     17 C           3.3813   -1.2184   22.3083 C.ar    1  UNL1       -0.0000
     18 C           4.2853   -2.2378   21.6808 C.ar    1  UNL1       -0.0000
     19 C           4.2070   -2.5033   20.2065 C.ar    1  UNL1        0.0000
     20 C           3.2247   -1.7495   19.3598 C.ar    1  UNL1        0.0000
     21 C           2.3207   -0.7301   19.9874 C.ar    1  UNL1        0.0000
     22 C           2.3991   -0.4646   21.4616 C.ar    1  UNL1       -0.0000
     23 C           4.4035    1.1175   34.5790 C.ar    1  UNL1        0.0518
     24 C           4.9032    0.1079   35.5695 C.ar    1  UNL1        0.0178
     25 C           4.4909    0.2015   37.0086 C.ar    1  UNL1        0.0385
     26 C           3.5789    1.3046   37.4574 C.ar    1  UNL1        0.1469
     27 C           3.0792    2.3142   36.4669 C.ar    1  UNL1        0.0385
     28 C           3.4915    2.2206   35.0277 C.ar    1  UNL1        0.0178
     29 O           3.1666    1.3982   38.8966 O.3     1  UNL1       -0.4045
     30 C           1.7122    1.4679   39.2570 C.3     1  UNL1        0.5753
     31 F           0.2578    1.5376   39.6175 F       1  UNL1       -0.1328
     32 F           1.5358    0.0436   38.8209 F       1  UNL1       -0.1328
     33 F           1.8886    2.8923   39.6932 F       1  UNL1       -0.1328
     34 C           2.2819   -0.6510   28.1043 C.3     1  UNL1        0.0116
     35 C           1.2480   -0.1721   29.0798 C.3     1  UNL1        0.0421
     36 O          -1.2738   -0.6596   29.4712 O.co2   1  UNL1       -0.5492
     37 C          -0.1830   -0.0379   28.6504 C.2     1  UNL1        0.0503
     38 O          -0.5231    0.7179   27.4002 O.co2   1  UNL1       -0.5492
@<TRIPOS>UNITY_ATOM_ATTR
36 1
charge -1
@<TRIPOS>BOND
     1    36    37   ar
     2    37    38   ar
     3    37    35    1
     4    35    34    1
     5    34     1    1
     6     1    11    1
     7    11    12   ar
     8    12    13   ar
     9    13    14   ar
    10    14    17    1
    11    17    18   ar
    12    18    19   ar
    13    19    20   ar
    14    20    21   ar
    15    21    22   ar
    16    14    15   ar
    17    15    16   ar
    18     1     2    1
    19     2     3    1
    20     3     4    1
    21     4     5    1
    22     5     6   am
    23     6     7    2
    24     6     8   am
    25     8    23    1
    26    23    24   ar
    27    24    25   ar
    28    25    26   ar
    29    26    29    1
    30    29    30    1
    31    30    31    1
    32    30    32    1
    33    30    33    1
    34    26    27   ar
    35    27    28   ar
    36     5     9    1
    37     9     1    1
    38    16    11   ar
    39    28    23   ar
    40    22    17   ar
    41     8    10    1
@<TRIPOS>MOLECULE
*****
 38 41 0 0 0
SMALL
GASTEIGER

@<TRIPOS>ATOM
      1 C           1.6103    2.5678   28.2906 C.3     1  UNL1        0.0377
      2 C           2.9432    2.7844   28.9435 C.3     1  UNL1        0.0075
      3 C           4.1944    2.2995   28.2732 C.3     1  UNL1        0.0219
      4 C           4.1126    1.5980   26.9498 C.3     1  UNL1        0.0950
      5 N           2.7797    1.3814   26.2969 N.am    1  UNL1       -0.2637
      6 C           2.6980    0.6799   24.9735 C.2     1  UNL1        0.3077
      7 O           1.3650    0.4633   24.3206 O.2     1  UNL1       -0.2522
      8 N           3.9492    0.1950   24.3032 N.am    1  UNL1       -0.2681
      9 C           1.5285    1.8663   26.9672 C.3     1  UNL1        0.0989
     10 H           4.8240    0.3371   24.7317 H       1  UNL1        0.1564
     11 C           1.1768    3.2800   29.5376 C.ar    1  UNL1       -0.0212
     12 C           0.5110    4.6207   29.4426 C.ar    1  UNL1       -0.0042
     13 C           0.0775    5.3329   30.6895 C.ar    1  UNL1       -0.0003
     14 C           0.3098    4.7042   32.0315 C.ar    1  UNL1       -0.0000
     15 C           0.9756    3.3635   32.1265 C.ar    1  UNL1       -0.0003
     16 C           1.4091    2.6514   30.8795 C.ar    1  UNL1       -0.0042
     17 C          -0.1237    5.4164   33.2785 C.ar    1  UNL1       -0.0000
     18 C           0.7918    5.4756   34.4652 C.ar    1  UNL1       -0.0000
     19 C           0.3583    6.1878   35.7122 C.ar    1  UNL1        0.0000
     20 C          -0.9907    6.8408   35.7724 C.ar    1  UNL1        0.0000
     21 C          -1.9063    6.7816   34.5856 C.ar    1  UNL1        0.0000
     22 C          -1.4727    6.0695   33.3387 C.ar    1  UNL1       -0.0000
     23 C           3.8674   -0.5065   22.9799 C.ar    1  UNL1        0.0518
     24 C           3.4974    0.2615   21.7455 C.ar    1  UNL1        0.0178
     25 C           3.4156   -0.4399   20.4223 C.ar    1  UNL1        0.0385
     26 C           3.7037   -1.9093   20.3331 C.ar    1  UNL1        0.1469
     27 C           4.0736   -2.6773   21.5673 C.ar    1  UNL1        0.0385
     28 C           4.1555   -1.9758   22.8907 C.ar    1  UNL1        0.0178
     29 O           3.6218   -2.6108   19.0097 O.3     1  UNL1       -0.4045
     30 C           4.1226   -4.0182   18.8747 C.3     1  UNL1        0.5753
     31 F           4.6234   -5.4257   18.7396 F       1  UNL1       -0.1328
     32 F           2.7363   -4.5352   19.1217 F       1  UNL1       -0.1328
     33 F           5.5089   -3.5013   18.6276 F       1  UNL1       -0.1328
     34 C           0.1268    2.5985   28.0707 C.3     1  UNL1        0.0116
     35 C          -0.6301    1.3174   27.8817 C.3     1  UNL1        0.0421
     36 O           0.5193   -0.4004   29.4560 O.co2   1  UNL1       -0.5492
     37 C          -0.7137    0.3234   29.0020 C.2     1  UNL1        0.0503
     38 O          -2.0301    0.0531   29.6682 O.co2   1  UNL1       -0.5492
@<TRIPOS>UNITY_ATOM_ATTR
36 1
charge -1
@<TRIPOS>BOND
     1    36    37   ar
     2    37    38   ar
     3    37    35    1
     4    35    34    1
     5    34     1    1
     6     1    11    1
     7    11    12   ar
     8    12    13   ar
     9    13    14   ar
    10    14    17    1
    11    17    18   ar
    12    18    19   ar
    13    19    20   ar
    14    20    21   ar
    15    21    22   ar
    16    14    15   ar
    17    15    16   ar
    18     1     2    1
    19     2     3    1
    20     3     4    1
    21     4     5    1
    22     5     6   am
    23     6     7    2
    24     6     8   am
    25     8    23    1
    26    23    24   ar
    27    24    25   ar
    28    25    26   ar
    29    26    29    1
    30    29    30    1
    31    30    31    1
    32    30    32    1
    33    30    33    1
    34    26    27   ar
    35    27    28   ar
    36     5     9    1
    37     9     1    1
    38    16    11   ar
    39    28    23   ar
    40    22    17   ar
    41     8    10    1
@<TRIPOS>MOLECULE
*****
 38 41 0 0 0
SMALL
GASTEIGER

@<TRIPOS>ATOM
      1 C           1.4789    2.3532   28.3362 C.3     1  UNL1        0.0377
      2 C           2.6742    2.1337   29.2154 C.3     1  UNL1        0.0075
      3 C           3.8314    1.3191   28.7182 C.3     1  UNL1        0.0219
      4 C           3.7932    0.7239   27.3418 C.3     1  UNL1        0.0950
      5 N           2.5979    0.9434   26.4627 N.am    1  UNL1       -0.2637
      6 C           2.5597    0.3482   25.0863 C.2     1  UNL1        0.3077
      7 O           1.3644    0.5677   24.2072 O.2     1  UNL1       -0.2522
      8 N           3.7170   -0.4665   24.5892 N.am    1  UNL1       -0.2681
      9 C           1.4407    1.7580   26.9598 C.3     1  UNL1        0.0989
     10 H           4.5015   -0.6106   25.1662 H       1  UNL1        0.1564
     11 C           1.0501    3.1167   29.5541 C.ar    1  UNL1       -0.0212
     12 C           0.8965    2.4088   30.8676 C.ar    1  UNL1       -0.0042
     13 C           0.4678    3.1724   32.0854 C.ar    1  UNL1       -0.0003
     14 C           0.1927    4.6438   31.9898 C.ar    1  UNL1       -0.0000
     15 C           0.3462    5.3517   30.6764 C.ar    1  UNL1       -0.0003
     16 C           0.7750    4.5882   29.4585 C.ar    1  UNL1       -0.0042
     17 C          -0.2361    5.4073   33.2078 C.ar    1  UNL1       -0.0000
     18 C          -1.5685    6.0958   33.2308 C.ar    1  UNL1       -0.0000
     19 C          -1.9972    6.8594   34.4487 C.ar    1  UNL1        0.0000
     20 C          -1.0935    6.9343   35.6436 C.ar    1  UNL1        0.0000
     21 C           0.2390    6.2458   35.6205 C.ar    1  UNL1        0.0000
     22 C           0.6677    5.4823   34.4026 C.ar    1  UNL1       -0.0000
     23 C           3.6787   -1.0616   23.2128 C.ar    1  UNL1        0.0518
     24 C           4.2949   -2.4057   22.9596 C.ar    1  UNL1        0.0178
     25 C           4.2567   -3.0008   21.5833 C.ar    1  UNL1        0.0385
     26 C           3.6024   -2.2521   20.4602 C.ar    1  UNL1        0.1469
     27 C           2.9863   -0.9081   20.7135 C.ar    1  UNL1        0.0385
     28 C           3.0245   -0.3129   22.0898 C.ar    1  UNL1        0.0178
     29 O           3.5642   -2.8473   19.0839 O.3     1  UNL1       -0.4045
     30 C           4.1435   -4.2091   18.8394 C.3     1  UNL1        0.5753
     31 F           4.7229   -5.5709   18.5949 F       1  UNL1       -0.1328
     32 F           5.4599   -3.5850   18.4820 F       1  UNL1       -0.1328
     33 F           2.8272   -4.8333   19.1967 F       1  UNL1       -0.1328
     34 C           0.1346    2.8379   27.8800 C.3     1  UNL1        0.0116
     35 C          -0.5143    2.2248   26.6746 C.3     1  UNL1        0.0421
     36 O          -1.5775    3.1455   24.4901 O.co2   1  UNL1       -0.5492
     37 C          -1.6295    2.9444   25.9756 C.2     1  UNL1        0.0503
     38 O          -2.7967    3.4628   26.7623 O.co2   1  UNL1       -0.5492
@<TRIPOS>UNITY_ATOM_ATTR
36 1
charge -1
@<TRIPOS>BOND
     1    36    37   ar
     2    37    38   ar
     3    37    35    1
     4    35    34    1
     5    34     1    1
     6     1    11    1
     7    11    12   ar
     8    12    13   ar
     9    13    14   ar
    10    14    17    1
    11    17    18   ar
    12    18    19   ar
    13    19    20   ar
    14    20    21   ar
    15    21    22   ar
    16    14    15   ar
    17    15    16   ar
    18     1     2    1
    19     2     3    1
    20     3     4    1
    21     4     5    1
    22     5     6   am
    23     6     7    2
    24     6     8   am
    25     8    23    1
    26    23    24   ar
    27    24    25   ar
    28    25    26   ar
    29    26    29    1
    30    29    30    1
    31    30    31    1
    32    30    32    1
    33    30    33    1
    34    26    27   ar
    35    27    28   ar
    36     5     9    1
    37     9     1    1
    38    16    11   ar
    39    28    23   ar
    40    22    17   ar
    41     8    10    1
@<TRIPOS>MOLECULE
*****
 38 41 0 0 0
SMALL
GASTEIGER

@<TRIPOS>ATOM
      1 C           3.3850    0.8390   28.9137 C.3     1  UNL1        0.0377
      2 C           4.7335    0.5322   29.4944 C.3     1  UNL1        0.0075
      3 C           5.8043   -0.0643   28.6299 C.3     1  UNL1        0.0219
      4 C           5.5266   -0.3539   27.1845 C.3     1  UNL1        0.0950
      5 N           4.1781   -0.0471   26.6038 N.am    1  UNL1       -0.2637
      6 C           3.9004   -0.3367   25.1584 C.2     1  UNL1        0.3077
      7 O           2.5518   -0.0298   24.5777 O.2     1  UNL1       -0.2522
      8 N           4.9712   -0.9331   24.2938 N.am    1  UNL1       -0.2681
      9 C           3.1072    0.5494   27.4683 C.3     1  UNL1        0.0989
     10 H           5.8563   -1.1346   24.6749 H       1  UNL1        0.1564
     11 C           3.1681    1.2896   30.3280 C.ar    1  UNL1       -0.0212
     12 C           3.3527    0.3227   31.4598 C.ar    1  UNL1       -0.0042
     13 C           3.1359    0.7732   32.8739 C.ar    1  UNL1       -0.0003
     14 C           2.7345    2.1907   33.1563 C.ar    1  UNL1       -0.0000
     15 C           2.5500    3.1576   32.0245 C.ar    1  UNL1       -0.0003
     16 C           2.7668    2.7070   30.6103 C.ar    1  UNL1       -0.0042
     17 C           2.5177    2.6412   34.5706 C.ar    1  UNL1       -0.0000
     18 C           3.0099    1.7988   35.7099 C.ar    1  UNL1       -0.0000
     19 C           2.7931    2.2493   37.1242 C.ar    1  UNL1        0.0000
     20 C           2.0840    3.5423   37.3990 C.ar    1  UNL1        0.0000
     21 C           1.5918    4.3847   36.2596 C.ar    1  UNL1        0.0000
     22 C           1.8087    3.9342   34.8455 C.ar    1  UNL1       -0.0000
     23 C           4.6934   -1.2227   22.8485 C.ar    1  UNL1        0.0518
     24 C           4.7821   -0.1225   21.8327 C.ar    1  UNL1        0.0178
     25 C           4.5044   -0.4120   20.3874 C.ar    1  UNL1        0.0385
     26 C           4.1379   -1.8016   19.9578 C.ar    1  UNL1        0.1469
     27 C           4.0492   -2.9018   20.9735 C.ar    1  UNL1        0.0385
     28 C           4.3270   -2.6123   22.4189 C.ar    1  UNL1        0.0178
     29 O           3.8601   -2.0911   18.5124 O.3     1  UNL1       -0.4045
     30 C           4.3545   -1.1534   17.4512 C.3     1  UNL1        0.5753
     31 F           4.8489   -0.2156   16.3900 F       1  UNL1       -0.1328
     32 F           5.7151   -1.7797   17.5317 F       1  UNL1       -0.1328
     33 F           2.9939   -0.5270   17.3708 F       1  UNL1       -0.1328
     34 C           1.9611    1.3024   28.8241 C.3     1  UNL1        0.0116
     35 C           0.8955    0.3628   28.3427 C.3     1  UNL1        0.0421
     36 O          -0.5810    0.9905   30.3862 O.co2   1  UNL1       -0.5492
     37 C          -0.3764    0.2084   29.1227 C.2     1  UNL1        0.0503
     38 O          -1.4437   -0.7281   28.6391 O.co2   1  UNL1       -0.5492
@<TRIPOS>UNITY_ATOM_ATTR
36 1
charge -1
@<TRIPOS>BOND
     1    36    37   ar
     2    37    38   ar
     3    37    35    1
     4    35    34    1
     5    34     1    1
     6     1    11    1
     7    11    12   ar
     8    12    13   ar
     9    13    14   ar
    10    14    17    1
    11    17    18   ar
    12    18    19   ar
    13    19    20   ar
    14    20    21   ar
    15    21    22   ar
    16    14    15   ar
    17    15    16   ar
    18     1     2    1
    19     2     3    1
    20     3     4    1
    21     4     5    1
    22     5     6   am
    23     6     7    2
    24     6     8   am
    25     8    23    1
    26    23    24   ar
    27    24    25   ar
    28    25    26   ar
    29    26    29    1
    30    29    30    1
    31    30    31    1
    32    30    32    1
    33    30    33    1
    34    26    27   ar
    35    27    28   ar
    36     5     9    1
    37     9     1    1
    38    16    11   ar
    39    28    23   ar
    40    22    17   ar
    41     8    10    1
@<TRIPOS>MOLECULE
*****
 38 41 0 0 0
SMALL
GASTEIGER

@<TRIPOS>ATOM
      1 C           6.7592   -1.9763   32.7674 C.3     1  UNL1        0.0377
      2 C           8.2557   -1.9265   32.6791 C.3     1  UNL1        0.0075
      3 C           9.0270   -0.9771   33.5473 C.3     1  UNL1        0.0219
      4 C           8.3018   -0.0775   34.5037 C.3     1  UNL1        0.0950
      5 N           6.8052   -0.1273   34.5920 N.am    1  UNL1       -0.2637
      6 C           6.0800    0.7723   35.5485 C.2     1  UNL1        0.3077
      7 O           4.5834    0.7224   35.6367 O.2     1  UNL1       -0.2522
      8 N           6.8513    1.7217   36.4166 N.am    1  UNL1       -0.2681
      9 C           6.0339   -1.0767   33.7238 C.3     1  UNL1        0.0989
     10 H           7.8336    1.7544   36.3587 H       1  UNL1        0.1564
     11 C           6.9928   -3.0190   31.7146 C.ar    1  UNL1       -0.0212
     12 C           6.7369   -4.4648   32.0211 C.ar    1  UNL1       -0.0042
     13 C           6.9706   -5.5074   30.9684 C.ar    1  UNL1       -0.0003
     14 C           7.4601   -5.1041   29.6091 C.ar    1  UNL1       -0.0000
     15 C           7.7160   -3.6583   29.3025 C.ar    1  UNL1       -0.0003
     16 C           7.4823   -2.6157   30.3553 C.ar    1  UNL1       -0.0042
     17 C           7.6938   -6.1468   28.5563 C.ar    1  UNL1       -0.0000
     18 C           8.6823   -7.2487   28.7983 C.ar    1  UNL1       -0.0000
     19 C           8.9160   -8.2913   27.7455 C.ar    1  UNL1        0.0000
     20 C           8.1611   -8.2321   26.4507 C.ar    1  UNL1        0.0000
     21 C           7.1724   -7.1302   26.2087 C.ar    1  UNL1        0.0000
     22 C           6.9388   -6.0876   27.2614 C.ar    1  UNL1       -0.0000
     23 C           6.1260    2.6212   37.3730 C.ar    1  UNL1        0.0518
     24 C           5.8380    4.0435   36.9930 C.ar    1  UNL1        0.0178
     25 C           5.1127    4.9431   37.9493 C.ar    1  UNL1        0.0385
     26 C           4.6754    4.4205   39.2857 C.ar    1  UNL1        0.1469
     27 C           4.9633    2.9982   39.6656 C.ar    1  UNL1        0.0385
     28 C           5.6887    2.0986   38.7092 C.ar    1  UNL1        0.0178
     29 O           3.9500    5.3201   40.2420 O.3     1  UNL1       -0.4045
     30 C           4.4249    5.4468   41.6592 C.3     1  UNL1        0.5753
     31 F           4.8997    5.5736   43.0764 F       1  UNL1       -0.1328
     32 F           3.0925    4.9622   42.1490 F       1  UNL1       -0.1328
     33 F           5.7572    5.9315   41.1695 F       1  UNL1       -0.1328
     34 C           5.3437   -2.3882   32.4900 C.3     1  UNL1        0.0116
     35 C           4.2649   -1.3502   32.3977 C.3     1  UNL1        0.0421
     36 O           2.1986   -0.8594   30.9012 O.co2   1  UNL1       -0.5492
     37 C           3.6843   -0.9885   31.0627 C.2     1  UNL1        0.0503
     38 O           4.5894   -0.7561   29.8894 O.co2   1  UNL1       -0.5492
@<TRIPOS>UNITY_ATOM_ATTR
36 1
charge -1
@<TRIPOS>BOND
     1    36    37   ar
     2    37    38   ar
     3    37    35    1
     4    35    34    1
     5    34     1    1
     6     1    11    1
     7    11    12   ar
     8    12    13   ar
     9    13    14   ar
    10    14    17    1
    11    17    18   ar
    12    18    19   ar
    13    19    20   ar
    14    20    21   ar
    15    21    22   ar
    16    14    15   ar
    17    15    16   ar
    18     1     2    1
    19     2     3    1
    20     3     4    1
    21     4     5    1
    22     5     6   am
    23     6     7    2
    24     6     8   am
    25     8    23    1
    26    23    24   ar
    27    24    25   ar
    28    25    26   ar
    29    26    29    1
    30    29    30    1
    31    30    31    1
    32    30    32    1
    33    30    33    1
    34    26    27   ar
    35    27    28   ar
    36     5     9    1
    37     9     1    1
    38    16    11   ar
    39    28    23   ar
    40    22    17   ar
    41     8    10    1
@<TRIPOS>MOLECULE
*****
 38 41 0 0 0
SMALL
GASTEIGER

@<TRIPOS>ATOM
      1 C           1.4000    2.6491   28.4848 C.3     1  UNL1        0.0377
      2 C          -0.0877    2.4895   28.3795 C.3     1  UNL1        0.0075
      3 C          -0.6821    1.7466   27.2198 C.3     1  UNL1        0.0219
      4 C           0.2113    1.1634   26.1654 C.3     1  UNL1        0.0950
      5 N           1.6990    1.3230   26.2707 N.am    1  UNL1       -0.2637
      6 C           2.5924    0.7397   25.2163 C.2     1  UNL1        0.3077
      7 O           4.0801    0.8994   25.3216 O.2     1  UNL1       -0.2522
      8 N           1.9980   -0.0032   24.0566 N.am    1  UNL1       -0.2681
      9 C           2.2934    2.0658   27.4303 C.3     1  UNL1        0.0989
     10 H           1.0215   -0.1079   23.9875 H       1  UNL1        0.1564
     11 C           0.9717    3.3754   29.7254 C.ar    1  UNL1       -0.0212
     12 C           0.9819    2.6696   31.0489 C.ar    1  UNL1       -0.0042
     13 C           0.5536    3.3960   32.2894 C.ar    1  UNL1       -0.0003
     14 C           0.1151    4.8281   32.2064 C.ar    1  UNL1       -0.0000
     15 C           0.1050    5.5338   30.8829 C.ar    1  UNL1       -0.0003
     16 C           0.5333    4.8075   29.6424 C.ar    1  UNL1       -0.0042
     17 C          -0.3132    5.5544   33.4471 C.ar    1  UNL1       -0.0000
     18 C          -1.6736    6.1824   33.5165 C.ar    1  UNL1       -0.0000
     19 C          -2.1019    6.9088   34.7572 C.ar    1  UNL1        0.0000
     20 C          -1.1698    7.0070   35.9283 C.ar    1  UNL1        0.0000
     21 C           0.1907    6.3788   35.8588 C.ar    1  UNL1        0.0000
     22 C           0.6189    5.6526   34.6182 C.ar    1  UNL1       -0.0000
     23 C           2.8914   -0.5864   23.0023 C.ar    1  UNL1        0.0518
     24 C           2.9245    0.0173   21.6294 C.ar    1  UNL1        0.0178
     25 C           3.8178   -0.5658   20.5751 C.ar    1  UNL1        0.0385
     26 C           4.6782   -1.7527   20.8935 C.ar    1  UNL1        0.1469
     27 C           4.6451   -2.3563   22.2663 C.ar    1  UNL1        0.0385
     28 C           3.7517   -1.7731   23.3207 C.ar    1  UNL1        0.0178
     29 O           5.5716   -2.3358   19.8391 O.3     1  UNL1       -0.4045
     30 C           5.1379   -3.5536   19.0782 C.3     1  UNL1        0.5753
     31 F           4.7042   -4.7713   18.3173 F       1  UNL1       -0.1328
     32 F           4.2733   -2.6975   18.2009 F       1  UNL1       -0.1328
     33 F           6.0025   -4.4097   19.9554 F       1  UNL1       -0.1328
     34 C           2.7391    3.0610   29.0209 C.3     1  UNL1        0.0116
     35 C           3.8882    2.0974   28.9895 C.3     1  UNL1        0.0421
     36 O           6.0017    2.4930   30.4478 O.co2   1  UNL1       -0.5492
     37 C           4.6743    1.8267   30.2381 C.2     1  UNL1        0.0503
     38 O           4.1329    0.8897   31.2768 O.co2   1  UNL1       -0.5492
@<TRIPOS>UNITY_ATOM_ATTR
36 1
charge -1
@<TRIPOS>BOND
     1    36    37   ar
     2    37    38   ar
     3    37    35    1
     4    35    34    1
     5    34     1    1
     6     1    11    1
     7    11    12   ar
     8    12    13   ar
     9    13    14   ar
    10    14    17    1
    11    17    18   ar
    12    18    19   ar
    13    19    20   ar
    14    20    21   ar
    15    21    22   ar
    16    14    15   ar
    17    15    16   ar
    18     1     2    1
    19     2     3    1
    20     3     4    1
    21     4     5    1
    22     5     6   am
    23     6     7    2
    24     6     8   am
    25     8    23    1
    26    23    24   ar
    27    24    25   ar
    28    25    26   ar
    29    26    29    1
    30    29    30    1
    31    30    31    1
    32    30    32    1
    33    30    33    1
    34    26    27   ar
    35    27    28   ar
    36     5     9    1
    37     9     1    1
    38    16    11   ar
    39    28    23   ar
    40    22    17   ar
    41     8    10    1
@<TRIPOS>MOLECULE
*****
 38 41 0 0 0
SMALL
GASTEIGER

@<TRIPOS>ATOM
      1 C           3.6450    0.1001   29.4439 C.3     1  UNL1        0.0377
      2 C           2.3527    0.8402   29.6233 C.3     1  UNL1        0.0075
      3 C           1.4536    1.0759   28.4460 C.3     1  UNL1        0.0219
      4 C           1.8468    0.5713   27.0892 C.3     1  UNL1        0.0950
      5 N           3.1391   -0.1689   26.9098 N.am    1  UNL1       -0.2637
      6 C           3.5323   -0.6734   25.5530 C.2     1  UNL1        0.3077
      7 O           4.8246   -1.4136   25.3736 O.2     1  UNL1       -0.2522
      8 N           2.6332   -0.4378   24.3756 N.am    1  UNL1       -0.2681
      9 C           4.0382   -0.4045   28.0871 C.3     1  UNL1        0.0989
     10 H           1.7850    0.0480   24.4934 H       1  UNL1        0.1564
     11 C           3.7082    0.3816   30.9159 C.ar    1  UNL1       -0.0212
     12 C           3.7505   -0.7536   31.8954 C.ar    1  UNL1       -0.0042
     13 C           3.8138   -0.4722   33.3674 C.ar    1  UNL1       -0.0003
     14 C           3.8348    0.9445   33.8599 C.ar    1  UNL1       -0.0000
     15 C           3.7925    2.0798   32.8804 C.ar    1  UNL1       -0.0003
     16 C           3.7292    1.7983   31.4084 C.ar    1  UNL1       -0.0042
     17 C           3.8981    1.2260   35.3319 C.ar    1  UNL1       -0.0000
     18 C           4.8823    0.4926   36.1941 C.ar    1  UNL1       -0.0000
     19 C           4.9456    0.7741   37.6661 C.ar    1  UNL1        0.0000
     20 C           4.0246    1.7889   38.2759 C.ar    1  UNL1        0.0000
     21 C           3.0403    2.5223   37.4137 C.ar    1  UNL1        0.0000
     22 C           2.9770    2.2408   35.9417 C.ar    1  UNL1       -0.0000
     23 C           3.0264   -0.9424   23.0189 C.ar    1  UNL1        0.0518
     24 C           2.5006   -0.2679   21.7865 C.ar    1  UNL1        0.0178
     25 C           2.8938   -0.7724   20.4298 C.ar    1  UNL1        0.0385
     26 C           3.8128   -1.9514   20.3054 C.ar    1  UNL1        0.1469
     27 C           4.3386   -2.6259   21.5377 C.ar    1  UNL1        0.0385
     28 C           3.9454   -2.1213   22.8945 C.ar    1  UNL1        0.0178
     29 O           4.2060   -2.4560   18.9486 O.3     1  UNL1       -0.4045
     30 C           4.4642   -3.9185   18.7381 C.3     1  UNL1        0.5753
     31 F           4.7223   -5.3811   18.5276 F       1  UNL1       -0.1328
     32 F           2.9941   -4.1943   18.8517 F       1  UNL1       -0.1328
     33 F           5.9342   -3.6428   18.6245 F       1  UNL1       -0.1328
     34 C           4.9593   -0.5423   29.7757 C.3     1  UNL1        0.0116
     35 C           5.5475   -1.5672   28.8519 C.3     1  UNL1        0.0421
     36 O           6.9245   -3.7399   28.4868 O.co2   1  UNL1       -0.5492
     37 C           6.3034   -2.7356   29.4118 C.2     1  UNL1        0.0503
     38 O           6.4383   -2.8997   30.8967 O.co2   1  UNL1       -0.5492
@<TRIPOS>UNITY_ATOM_ATTR
36 1
charge -1
@<TRIPOS>BOND
     1    36    37   ar
     2    37    38   ar
     3    37    35    1
     4    35    34    1
     5    34     1    1
     6     1    11    1
     7    11    12   ar
     8    12    13   ar
     9    13    14   ar
    10    14    17    1
    11    17    18   ar
    12    18    19   ar
    13    19    20   ar
    14    20    21   ar
    15    21    22   ar
    16    14    15   ar
    17    15    16   ar
    18     1     2    1
    19     2     3    1
    20     3     4    1
    21     4     5    1
    22     5     6   am
    23     6     7    2
    24     6     8   am
    25     8    23    1
    26    23    24   ar
    27    24    25   ar
    28    25    26   ar
    29    26    29    1
    30    29    30    1
    31    30    31    1
    32    30    32    1
    33    30    33    1
    34    26    27   ar
    35    27    28   ar
    36     5     9    1
    37     9     1    1
    38    16    11   ar
    39    28    23   ar
    40    22    17   ar
    41     8    10    1
@<TRIPOS>MOLECULE
*****
 38 41 0 0 0
SMALL
GASTEIGER

@<TRIPOS>ATOM
      1 C           1.9033    2.2576   27.8384 C.3     1  UNL1        0.0377
      2 C           2.3682    3.6026   27.3644 C.3     1  UNL1        0.0075
      3 C           2.7546    4.6562   28.3597 C.3     1  UNL1        0.0219
      4 C           2.6760    4.3648   29.8291 C.3     1  UNL1        0.0950
      5 N           2.2111    3.0198   30.3031 N.am    1  UNL1       -0.2637
      6 C           2.1325    2.7283   31.7724 C.2     1  UNL1        0.3077
      7 O           1.6675    1.3832   32.2463 O.2     1  UNL1       -0.2522
      8 N           2.5189    3.7819   32.7677 N.am    1  UNL1       -0.2681
      9 C           1.8247    1.9662   29.3078 C.3     1  UNL1        0.0989
     10 H           2.8240    4.6647   32.4566 H       1  UNL1        0.1564
     11 C           1.8090    2.0578   26.3547 C.ar    1  UNL1       -0.0212
     12 C           3.0013    2.3250   25.4847 C.ar    1  UNL1       -0.0042
     13 C           2.9070    2.1252   24.0011 C.ar    1  UNL1       -0.0003
     14 C           1.6204    1.6582   23.3875 C.ar    1  UNL1       -0.0000
     15 C           0.4281    1.3910   24.2575 C.ar    1  UNL1       -0.0003
     16 C           0.5224    1.5908   25.7411 C.ar    1  UNL1       -0.0042
     17 C           1.5261    1.4584   21.9038 C.ar    1  UNL1       -0.0000
     18 C           0.6628    0.3651   21.3476 C.ar    1  UNL1       -0.0000
     19 C           0.5686    0.1653   19.8639 C.ar    1  UNL1        0.0000
     20 C           1.3376    1.0589   18.9365 C.ar    1  UNL1        0.0000
     21 C           2.2009    2.1522   19.4928 C.ar    1  UNL1        0.0000
     22 C           2.2951    2.3520   20.9764 C.ar    1  UNL1       -0.0000
     23 C           2.4403    3.4904   34.2370 C.ar    1  UNL1        0.0518
     24 C           3.1394    2.2893   34.8017 C.ar    1  UNL1        0.0178
     25 C           3.0608    1.9977   36.2709 C.ar    1  UNL1        0.0385
     26 C           2.2831    2.9071   37.1755 C.ar    1  UNL1        0.1469
     27 C           1.5840    4.1081   36.6108 C.ar    1  UNL1        0.0385
     28 C           1.6626    4.3997   35.1415 C.ar    1  UNL1        0.0178
     29 O           2.2046    2.6155   38.6448 O.3     1  UNL1       -0.4045
     30 C           1.5819    1.3376   39.1236 C.3     1  UNL1        0.5753
     31 F           0.9592    0.0597   39.6023 F       1  UNL1       -0.1328
     32 F           2.9421    0.7140   39.2283 F       1  UNL1       -0.1328
     33 F           0.2217    1.9611   39.0188 F       1  UNL1       -0.1328
     34 C           1.4056    0.8432   27.7971 C.3     1  UNL1        0.0116
     35 C           2.1774   -0.2438   28.4846 C.3     1  UNL1        0.0421
     36 O           3.3610   -1.0409   26.3134 O.co2   1  UNL1       -0.5492
     37 C           3.3577   -0.8713   27.8038 C.2     1  UNL1        0.0503
     38 O           4.5344   -1.3290   28.6135 O.co2   1  UNL1       -0.5492
@<TRIPOS>UNITY_ATOM_ATTR
36 1
charge -1
@<TRIPOS>BOND
     1    36    37   ar
     2    37    38   ar
     3    37    35    1
     4    35    34    1
     5    34     1    1
     6     1    11    1
     7    11    12   ar
     8    12    13   ar
     9    13    14   ar
    10    14    17    1
    11    17    18   ar
    12    18    19   ar
    13    19    20   ar
    14    20    21   ar
    15    21    22   ar
    16    14    15   ar
    17    15    16   ar
    18     1     2    1
    19     2     3    1
    20     3     4    1
    21     4     5    1
    22     5     6   am
    23     6     7    2
    24     6     8   am
    25     8    23    1
    26    23    24   ar
    27    24    25   ar
    28    25    26   ar
    29    26    29    1
    30    29    30    1
    31    30    31    1
    32    30    32    1
    33    30    33    1
    34    26    27   ar
    35    27    28   ar
    36     5     9    1
    37     9     1    1
    38    16    11   ar
    39    28    23   ar
    40    22    17   ar
    41     8    10    1
@<TRIPOS>MOLECULE
*****
 38 41 0 0 0
SMALL
GASTEIGER

@<TRIPOS>ATOM
      1 C          -0.3940    2.5989   27.7235 C.3     1  UNL1        0.0377
      2 C          -1.0623    1.2693   27.5356 C.3     1  UNL1        0.0075
      3 C          -0.6905    0.1121   28.4147 C.3     1  UNL1        0.0219
      4 C           0.3496    0.2847   29.4817 C.3     1  UNL1        0.0950
      5 N           1.0179    1.6143   29.6696 N.am    1  UNL1       -0.2637
      6 C           2.0580    1.7869   30.7366 C.2     1  UNL1        0.3077
      7 O           2.7263    3.1166   30.9244 O.2     1  UNL1       -0.2522
      8 N           2.4298    0.6297   31.6157 N.am    1  UNL1       -0.2681
      9 C           0.6462    2.7715   28.7905 C.3     1  UNL1        0.0989
     10 H           1.9911   -0.2430   31.4924 H       1  UNL1        0.1564
     11 C          -1.3128    2.9279   26.5843 C.ar    1  UNL1       -0.0212
     12 C          -2.7312    3.3321   26.8575 C.ar    1  UNL1       -0.0042
     13 C          -3.6499    3.6610   25.7184 C.ar    1  UNL1       -0.0003
     14 C          -3.1503    3.5858   24.3061 C.ar    1  UNL1       -0.0000
     15 C          -1.7318    3.1816   24.0329 C.ar    1  UNL1       -0.0003
     16 C          -0.8131    2.8526   25.1720 C.ar    1  UNL1       -0.0042
     17 C          -4.0691    3.9147   23.1669 C.ar    1  UNL1       -0.0000
     18 C          -3.5069    4.1730   21.8005 C.ar    1  UNL1       -0.0000
     19 C          -4.4258    4.5019   20.6613 C.ar    1  UNL1        0.0000
     20 C          -5.9067    4.5726   20.8887 C.ar    1  UNL1        0.0000
     21 C          -6.4689    4.3144   22.2552 C.ar    1  UNL1        0.0000
     22 C          -5.5501    3.9854   23.3943 C.ar    1  UNL1       -0.0000
     23 C           3.4698    0.8024   32.6826 C.ar    1  UNL1        0.0518
     24 C           3.1501    1.5845   33.9221 C.ar    1  UNL1        0.0178
     25 C           4.1901    1.7572   34.9890 C.ar    1  UNL1        0.0385
     26 C           5.5499    1.1477   34.8166 C.ar    1  UNL1        0.1469
     27 C           5.8696    0.3656   33.5773 C.ar    1  UNL1        0.0385
     28 C           4.8295    0.1929   32.5102 C.ar    1  UNL1        0.0178
     29 O           6.5900    1.3204   35.8837 O.3     1  UNL1       -0.4045
     30 C           7.5429    0.2032   36.1899 C.3     1  UNL1        0.5753
     31 F           8.4958   -0.9140   36.4961 F       1  UNL1       -0.1328
     32 F           8.6392    0.9448   35.4841 F       1  UNL1       -0.1328
     33 F           6.4466   -0.5385   36.8957 F       1  UNL1       -0.1328
     34 C          -0.0447    4.0429   27.5158 C.3     1  UNL1        0.0116
     35 C           0.0385    4.9710   28.6911 C.3     1  UNL1        0.0421
     36 O          -1.5946    6.6831   27.6180 O.co2   1  UNL1       -0.5492
     37 C          -0.9514    6.0887   28.8358 C.2     1  UNL1        0.0503
     38 O          -1.2979    6.6120   30.1981 O.co2   1  UNL1       -0.5492
@<TRIPOS>UNITY_ATOM_ATTR
36 1
charge -1
@<TRIPOS>BOND
     1    36    37   ar
     2    37    38   ar
     3    37    35    1
     4    35    34    1
     5    34     1    1
     6     1    11    1
     7    11    12   ar
     8    12    13   ar
     9    13    14   ar
    10    14    17    1
    11    17    18   ar
    12    18    19   ar
    13    19    20   ar
    14    20    21   ar
    15    21    22   ar
    16    14    15   ar
    17    15    16   ar
    18     1     2    1
    19     2     3    1
    20     3     4    1
    21     4     5    1
    22     5     6   am
    23     6     7    2
    24     6     8   am
    25     8    23    1
    26    23    24   ar
    27    24    25   ar
    28    25    26   ar
    29    26    29    1
    30    29    30    1
    31    30    31    1
    32    30    32    1
    33    30    33    1
    34    26    27   ar
    35    27    28   ar
    36     5     9    1
    37     9     1    1
    38    16    11   ar
    39    28    23   ar
    40    22    17   ar
    41     8    10    1
