@<TRIPOS>MOLECULE
*****
 35 38 0 0 0
SMALL
GASTEIGER

@<TRIPOS>ATOM
      1 O          -5.1365  -15.5606   25.2526 O.2     1  UNL1       -0.2673
      2 C          -5.8325  -16.3932   24.2169 C.ar    1  UNL1        0.2572
      3 C          -7.3098  -16.2443   24.0037 C.ar    1  UNL1        0.0366
      4 C          -8.0057  -17.0768   22.9681 C.ar    1  UNL1        0.0050
      5 C          -7.2244  -18.0582   22.1456 C.ar    1  UNL1        0.0158
      6 C          -7.9203  -18.8906   21.1099 C.ar    1  UNL1        0.0053
      7 C          -7.1390  -19.8720   20.2875 C.ar    1  UNL1        0.0715
      8 C          -5.6617  -20.0208   20.5007 C.ar    1  UNL1        0.0053
      9 C          -4.9657  -19.1883   21.5363 C.ar    1  UNL1        0.0172
     10 C          -5.7471  -18.2070   22.3588 C.ar    1  UNL1        0.0628
     11 N          -5.0511  -17.3745   23.3945 N.ar    1  UNL1       -0.2883
     12 C          -9.4830  -16.9280   22.7549 C.ar    1  UNL1        0.0344
     13 C         -10.4430  -17.7689   23.5431 C.ar    1  UNL1        0.0144
     14 C         -11.9203  -17.6200   23.3299 C.ar    1  UNL1        0.0579
     15 CL        -12.8803  -18.4610   24.1181 Cl      1  UNL1       -0.0822
     16 C         -12.4376  -16.6303   22.3285 C.ar    1  UNL1        0.0145
     17 C         -11.4776  -15.7893   21.5403 C.ar    1  UNL1        0.0375
     18 C         -10.0003  -15.9382   21.7535 C.ar    1  UNL1        0.1336
     19 O          -9.0403  -15.0973   20.9653 O.3     1  UNL1       -0.5055
     20 H          -9.3634  -14.4790   20.3398 H       1  UNL1        0.2922
     21 C          -7.8349  -20.7045   19.2518 C.3     1  UNL1        0.4186
     22 F          -8.5308  -21.5370   18.2161 F       1  UNL1       -0.1659
     23 F          -8.9138  -19.6681   19.1437 F       1  UNL1       -0.1659
     24 F          -6.7560  -21.7409   19.3599 F       1  UNL1       -0.1659
     25 C          -8.0911  -15.2630   24.8263 C.3     1  UNL1        0.0629
     26 C          -8.3026  -15.5119   26.2902 C.3     1  UNL1        0.1420
     27 O          -7.3836  -14.8870   27.2976 O.3     1  UNL1       -0.3816
     28 H          -6.4930  -15.2580   27.1968 H       1  UNL1        0.2105
     29 C          -3.5738  -17.5233   23.6077 C.3     1  UNL1        0.1760
     30 C          -2.6390  -17.4828   22.4352 C.ar    1  UNL1        0.1806
     31 N          -2.5493  -16.3854   21.4166 N.ar    1  UNL1       -0.1109
     32 N          -1.4847  -16.7569   20.4274 N.ar    1  UNL1       -0.0231
     33 N          -0.9164  -18.0840   20.8346 N.ar    1  UNL1       -0.0466
     34 N          -1.6298  -18.5327   22.0755 N.ar    1  UNL1       -0.2406
     35 H          -1.4647  -19.3693   22.5675 H       1  UNL1        0.1921
@<TRIPOS>BOND
     1     1     2    2
     2     2     3   ar
     3     3    25    1
     4    25    26    1
     5    26    27    1
     6     3     4   ar
     7     4    12    1
     8    12    13   ar
     9    13    14   ar
    10    14    15    1
    11    14    16   ar
    12    16    17   ar
    13    17    18   ar
    14    18    19    1
    15     4     5   ar
    16     5     6   ar
    17     6     7   ar
    18     7    21    1
    19    21    22    1
    20    21    23    1
    21    21    24    1
    22     7     8   ar
    23     8     9   ar
    24     9    10   ar
    25    10    11   ar
    26    11    29    1
    27    29    30    1
    28    30    31   ar
    29    31    32   ar
    30    32    33   ar
    31    33    34   ar
    32    11     2   ar
    33    34    30   ar
    34    18    12   ar
    35    10     5   ar
    36    27    28    1
    37    19    20    1
    38    34    35    1
@<TRIPOS>MOLECULE
*****
 35 38 0 0 0
SMALL
GASTEIGER

@<TRIPOS>ATOM
      1 O          -5.1996  -15.8194   24.7613 O.2     1  UNL1       -0.2673
      2 C          -5.9070  -16.6773   23.7545 C.ar    1  UNL1        0.2572
      3 C          -7.3643  -16.4583   23.4744 C.ar    1  UNL1        0.0366
      4 C          -8.0717  -17.3162   22.4677 C.ar    1  UNL1        0.0050
      5 C          -7.3219  -18.3931   21.7409 C.ar    1  UNL1        0.0158
      6 C          -8.0294  -19.2510   20.7342 C.ar    1  UNL1        0.0053
      7 C          -7.2795  -20.3278   20.0075 C.ar    1  UNL1        0.0715
      8 C          -5.8223  -20.5468   20.2876 C.ar    1  UNL1        0.0053
      9 C          -5.1148  -19.6890   21.2943 C.ar    1  UNL1        0.0172
     10 C          -5.8647  -18.6121   22.0210 C.ar    1  UNL1        0.0628
     11 N          -5.1572  -17.7542   23.0278 N.ar    1  UNL1       -0.2883
     12 C          -9.5290  -17.0972   22.1876 C.ar    1  UNL1        0.0344
     13 C          -9.9552  -16.4150   20.9216 C.ar    1  UNL1        0.0144
     14 C         -11.4124  -16.1960   20.6415 C.ar    1  UNL1        0.0579
     15 CL        -11.8386  -15.5138   19.3754 Cl      1  UNL1       -0.0822
     16 C         -12.4435  -16.6592   21.6275 C.ar    1  UNL1        0.0145
     17 C         -12.0174  -17.3414   22.8937 C.ar    1  UNL1        0.0375
     18 C         -10.5601  -17.5604   23.1737 C.ar    1  UNL1        0.1336
     19 O         -10.1339  -18.2426   24.4398 O.3     1  UNL1       -0.5055
     20 H         -10.7780  -18.5320   25.0557 H       1  UNL1        0.2922
     21 C          -7.9870  -21.1857   19.0007 C.3     1  UNL1        0.4186
     22 F          -8.6944  -22.0436   17.9940 F       1  UNL1       -0.1659
     23 F          -9.1298  -20.2145   18.9762 F       1  UNL1       -0.1659
     24 F          -6.8442  -22.1570   19.0252 F       1  UNL1       -0.1659
     25 C          -8.1141  -15.3814   24.2012 C.3     1  UNL1        0.0629
     26 C          -8.3721  -15.5098   25.6732 C.3     1  UNL1        0.1420
     27 O          -7.3634  -14.9989   26.6588 O.3     1  UNL1       -0.3816
     28 H          -6.5501  -15.5231   26.5902 H       1  UNL1        0.2105
     29 C          -3.7000  -17.9732   23.3079 C.3     1  UNL1        0.1760
     30 C          -2.6930  -17.8177   22.2069 C.ar    1  UNL1        0.1806
     31 N          -1.6457  -18.8202   21.8219 N.ar    1  UNL1       -0.1109
     32 N          -0.8620  -18.2546   20.6748 N.ar    1  UNL1       -0.0231
     33 N          -1.4250  -16.9025   20.3508 N.ar    1  UNL1       -0.0466
     34 N          -2.5566  -16.6325   21.2977 N.ar    1  UNL1       -0.2406
     35 H          -3.1122  -15.8201   21.3188 H       1  UNL1        0.1921
@<TRIPOS>BOND
     1     1     2    2
     2     2     3   ar
     3     3    25    1
     4    25    26    1
     5    26    27    1
     6     3     4   ar
     7     4    12    1
     8    12    13   ar
     9    13    14   ar
    10    14    15    1
    11    14    16   ar
    12    16    17   ar
    13    17    18   ar
    14    18    19    1
    15     4     5   ar
    16     5     6   ar
    17     6     7   ar
    18     7    21    1
    19    21    22    1
    20    21    23    1
    21    21    24    1
    22     7     8   ar
    23     8     9   ar
    24     9    10   ar
    25    10    11   ar
    26    11    29    1
    27    29    30    1
    28    30    31   ar
    29    31    32   ar
    30    32    33   ar
    31    33    34   ar
    32    11     2   ar
    33    34    30   ar
    34    18    12   ar
    35    10     5   ar
    36    27    28    1
    37    19    20    1
    38    34    35    1
