@<TRIPOS>MOLECULE
*****
 29 32 0 0 0
SMALL
GASTEIGER

@<TRIPOS>ATOM
      1 C           6.1733   -2.1818   32.6494 C.ar    1  UNL1        0.0536
      2 C           4.7913   -2.4752   33.1535 C.ar    1  UNL1        0.0076
      3 C           4.2255   -1.6832   34.2948 C.ar    1  UNL1        0.0370
      4 C           5.0415   -0.5979   34.9320 C.ar    1  UNL1        0.1384
      5 C           6.4235   -0.3045   34.4280 C.ar    1  UNL1        0.0370
      6 C           6.9893   -1.0964   33.2867 C.ar    1  UNL1        0.0076
      7 N           6.4674   -4.4455   31.4089 N.am    1  UNL1       -0.3011
      8 C           6.7392   -2.9737   31.5081 C.2     1  UNL1        0.2458
      9 O           7.5769   -2.2938   30.4660 O.2     1  UNL1       -0.2701
     10 H           5.9176   -4.8918   32.0928 H       1  UNL1        0.1497
     11 N           7.3919   -6.1591   28.0511 N.3     1  UNL1       -0.2725
     12 C           8.4166   -6.7532   28.9714 C.3     1  UNL1        0.0738
     13 C           8.1950   -6.1836   30.3413 C.3     1  UNL1        0.0383
     14 C           7.0334   -5.2375   30.2675 C.3     1  UNL1        0.0892
     15 C           6.5370   -5.2223   28.8521 C.3     1  UNL1        0.0919
     16 C           7.0136   -5.3292   25.6183 C.3     1  UNL1        0.0173
     17 C           7.2475   -6.4505   26.5868 C.3     1  UNL1        0.0576
     18 C           7.3369   -7.8633   26.0910 C.3     1  UNL1        0.0173
     19 O           4.4756    0.1940   36.0734 O.3     1  UNL1       -0.4791
     20 C           3.6210    1.3963   35.8011 C.3     1  UNL1        0.1687
     21 C           3.1584    2.2604   36.9366 C.3     1  UNL1        0.0609
     22 C           2.3037    3.4627   36.6643 C.3     1  UNL1        0.0758
     23 N           1.9118    3.8009   35.2565 N.3     1  UNL1       -0.2737
     24 C           2.3744    2.9369   34.1210 C.3     1  UNL1        0.0758
     25 C           3.2290    1.7346   34.3933 C.3     1  UNL1        0.0609
     26 C           1.0572    5.0032   34.9842 C.3     1  UNL1        0.0575
     27 C           0.5836    6.1734   35.7944 C.3     1  UNL1        0.0160
     28 C          -0.1514    6.7035   34.5992 C.3     1  UNL1        0.0028
     29 C           0.3222    5.5333   33.7890 C.3     1  UNL1        0.0160
@<TRIPOS>BOND
     1    16    17    1
     2    17    18    1
     3    17    11    1
     4    11    12    1
     5    12    13    1
     6    13    14    1
     7    14     7    1
     8     7     8   am
     9     8     9    2
    10     8     1    1
    11     1     2   ar
    12     2     3   ar
    13     3     4   ar
    14     4    19    1
    15    19    20    1
    16    20    21    1
    17    21    22    1
    18    22    23    1
    19    23    26    1
    20    26    27    1
    21    27    28    1
    22    28    29    1
    23    23    24    1
    24    24    25    1
    25     4     5   ar
    26     5     6   ar
    27    14    15    1
    28    15    11    1
    29     6     1   ar
    30    25    20    1
    31    29    26    1
    32     7    10    1
@<TRIPOS>MOLECULE
*****
 29 32 0 0 0
SMALL
GASTEIGER

@<TRIPOS>ATOM
      1 C           6.3245   -1.9501   33.1174 C.ar    1  UNL1        0.0536
      2 C           7.7398   -1.4542   33.0868 C.ar    1  UNL1        0.0076
      3 C           8.8101   -2.2804   32.4374 C.ar    1  UNL1        0.0370
      4 C           8.4652   -3.6026   31.8187 C.ar    1  UNL1        0.1384
      5 C           7.0499   -4.0986   31.8494 C.ar    1  UNL1        0.0370
      6 C           5.9796   -3.2723   32.4987 C.ar    1  UNL1        0.0076
      7 N           5.6067   -0.1760   34.8745 N.am    1  UNL1       -0.3011
      8 C           5.2541   -1.1239   33.7668 C.2     1  UNL1        0.2458
      9 O           3.8310   -1.2457   33.3084 O.2     1  UNL1       -0.2701
     10 H           6.5407   -0.0961   35.1753 H       1  UNL1        0.1497
     11 N           3.0155    1.5730   37.1749 N.3     1  UNL1       -0.2725
     12 C           2.7628    2.2704   35.8711 C.3     1  UNL1        0.0738
     13 C           3.7028    1.7000   34.8506 C.3     1  UNL1        0.0383
     14 C           4.5363    0.6503   35.5238 C.3     1  UNL1        0.0892
     15 C           4.1116    0.5718   36.9603 C.3     1  UNL1        0.0919
     16 C           2.4690    3.1456   39.1695 C.3     1  UNL1        0.0173
     17 C           2.2981    1.8316   38.4666 C.3     1  UNL1        0.0576
     18 C           1.4097    0.7761   39.0554 C.3     1  UNL1        0.0173
     19 O           9.5356   -4.4288   31.1694 O.3     1  UNL1       -0.4791
     20 C           9.3356   -4.9576   29.7800 C.3     1  UNL1        0.1687
     21 C           8.9359   -4.0270   28.6736 C.3     1  UNL1        0.0609
     22 C           8.7359   -4.5559   27.2842 C.3     1  UNL1        0.0758
     23 N           8.9356   -6.0153   27.0013 N.3     1  UNL1       -0.2737
     24 C           9.3352   -6.9460   28.1077 C.3     1  UNL1        0.0758
     25 C           9.5353   -6.4172   29.4970 C.3     1  UNL1        0.0609
     26 C           8.7356   -6.5441   25.6119 C.3     1  UNL1        0.0575
     27 C           7.9647   -6.0941   24.4064 C.3     1  UNL1        0.0160
     28 C           8.4527   -7.2920   23.6471 C.3     1  UNL1        0.0028
     29 C           9.2235   -7.7422   24.8525 C.3     1  UNL1        0.0160
@<TRIPOS>BOND
     1    16    17    1
     2    17    18    1
     3    17    11    1
     4    11    12    1
     5    12    13    1
     6    13    14    1
     7    14     7    1
     8     7     8   am
     9     8     9    2
    10     8     1    1
    11     1     2   ar
    12     2     3   ar
    13     3     4   ar
    14     4    19    1
    15    19    20    1
    16    20    21    1
    17    21    22    1
    18    22    23    1
    19    23    26    1
    20    26    27    1
    21    27    28    1
    22    28    29    1
    23    23    24    1
    24    24    25    1
    25     4     5   ar
    26     5     6   ar
    27    14    15    1
    28    15    11    1
    29     6     1   ar
    30    25    20    1
    31    29    26    1
    32     7    10    1
@<TRIPOS>MOLECULE
*****
 29 32 0 0 0
SMALL
GASTEIGER

@<TRIPOS>ATOM
      1 C           6.7916   -4.6646   27.2001 C.ar    1  UNL1        0.0536
      2 C           7.1338   -5.8776   28.0134 C.ar    1  UNL1        0.0076
      3 C           7.1463   -5.7972   29.5111 C.ar    1  UNL1        0.0370
      4 C           6.8166   -4.5038   30.1956 C.ar    1  UNL1        0.1384
      5 C           6.4744   -3.2908   29.3823 C.ar    1  UNL1        0.0370
      6 C           6.4619   -3.3712   27.8845 C.ar    1  UNL1        0.0076
      7 N           6.0733   -3.6918   24.9005 N.am    1  UNL1       -0.3011
      8 C           6.7790   -4.7449   25.7022 C.2     1  UNL1        0.2458
      9 O           7.4723   -5.8785   25.0061 O.2     1  UNL1       -0.2701
     10 H           5.6182   -2.9479   25.3574 H       1  UNL1        0.1497
     11 N           5.2923   -3.8618   21.1022 N.3     1  UNL1       -0.2725
     12 C           6.7907   -3.9299   21.0934 C.3     1  UNL1        0.0738
     13 C           7.2657   -3.8745   22.5152 C.3     1  UNL1        0.0383
     14 C           6.0607   -3.7722   23.4027 C.3     1  UNL1        0.0892
     15 C           4.8411   -3.7644   22.5295 C.3     1  UNL1        0.0919
     16 C           4.4919   -5.0225   18.9200 C.3     1  UNL1        0.0173
     17 C           4.4014   -3.8868   19.8958 C.3     1  UNL1        0.0576
     18 C           3.4200   -2.7762   19.6650 C.3     1  UNL1        0.0173
     19 O           6.8291   -4.4234   31.6934 O.3     1  UNL1       -0.4791
     20 C           6.4528   -3.1435   32.3790 C.3     1  UNL1        0.1687
     21 C           5.0355   -2.9137   32.8131 C.3     1  UNL1        0.0609
     22 C           4.6592   -1.6337   33.4987 C.3     1  UNL1        0.0758
     23 N           5.7002   -0.5835   33.7502 N.3     1  UNL1       -0.2737
     24 C           7.1175   -0.8132   33.3161 C.3     1  UNL1        0.0758
     25 C           7.4938   -2.0931   32.6305 C.3     1  UNL1        0.0609
     26 C           5.3239    0.6965   34.4358 C.3     1  UNL1        0.0575
     27 C           4.0551    1.4804   34.5966 C.3     1  UNL1        0.0160
     28 C           4.7917    2.5067   35.4053 C.3     1  UNL1        0.0028
     29 C           6.0604    1.7228   35.2446 C.3     1  UNL1        0.0160
@<TRIPOS>BOND
     1    16    17    1
     2    17    18    1
     3    17    11    1
     4    11    12    1
     5    12    13    1
     6    13    14    1
     7    14     7    1
     8     7     8   am
     9     8     9    2
    10     8     1    1
    11     1     2   ar
    12     2     3   ar
    13     3     4   ar
    14     4    19    1
    15    19    20    1
    16    20    21    1
    17    21    22    1
    18    22    23    1
    19    23    26    1
    20    26    27    1
    21    27    28    1
    22    28    29    1
    23    23    24    1
    24    24    25    1
    25     4     5   ar
    26     5     6   ar
    27    14    15    1
    28    15    11    1
    29     6     1   ar
    30    25    20    1
    31    29    26    1
    32     7    10    1
@<TRIPOS>MOLECULE
*****
 29 32 0 0 0
SMALL
GASTEIGER

@<TRIPOS>ATOM
      1 C           0.0970    1.8924   20.2628 C.ar    1  UNL1        0.0536
      2 C           1.0084    2.4648   19.2181 C.ar    1  UNL1        0.0076
      3 C           2.0086    1.5832   18.5308 C.ar    1  UNL1        0.0370
      4 C           2.0973    0.1291   18.8883 C.ar    1  UNL1        0.1384
      5 C           1.1859   -0.4433   19.9331 C.ar    1  UNL1        0.0370
      6 C           0.1857    0.4383   20.6203 C.ar    1  UNL1        0.0076
      7 N          -2.3425    2.7459   20.5286 N.am    1  UNL1       -0.3011
      8 C          -0.9032    2.7740   20.9501 C.2     1  UNL1        0.2458
      9 O          -0.4641    3.6838   22.0590 O.2     1  UNL1       -0.2701
     10 H          -2.6307    2.1488   19.8009 H       1  UNL1        0.1497
     11 N          -5.1054    4.4038   22.6926 N.3     1  UNL1       -0.2725
     12 C          -4.6582    5.5647   21.8545 C.3     1  UNL1        0.0738
     13 C          -3.5687    5.0849   20.9418 C.3     1  UNL1        0.0383
     14 C          -3.3427    3.6275   21.2160 C.3     1  UNL1        0.0892
     15 C          -4.2924    3.2067   22.2980 C.3     1  UNL1        0.0919
     16 C          -5.8051    4.4554   25.1942 C.3     1  UNL1        0.0173
     17 C          -6.1774    4.4348   23.7413 C.3     1  UNL1        0.0576
     18 C          -7.6219    4.4451   23.3371 C.3     1  UNL1        0.0173
     19 O           3.0975   -0.7525   18.2010 O.3     1  UNL1       -0.4791
     20 C           4.0785   -1.5471   19.0110 C.3     1  UNL1        0.1687
     21 C           3.9341   -3.0367   19.1136 C.3     1  UNL1        0.0609
     22 C           4.9152   -3.8313   19.9237 C.3     1  UNL1        0.0758
     23 N           6.0406   -3.1363   20.6311 N.3     1  UNL1       -0.2737
     24 C           6.1850   -1.6468   20.5286 C.3     1  UNL1        0.0758
     25 C           5.2040   -0.8522   19.7186 C.3     1  UNL1        0.0609
     26 C           7.0216   -3.9309   21.4412 C.3     1  UNL1        0.0575
     27 C           7.1667   -4.2725   22.8946 C.3     1  UNL1        0.0160
     28 C           8.4090   -5.0547   22.5868 C.3     1  UNL1        0.0028
     29 C           8.2639   -4.7132   21.1334 C.3     1  UNL1        0.0160
@<TRIPOS>BOND
     1    16    17    1
     2    17    18    1
     3    17    11    1
     4    11    12    1
     5    12    13    1
     6    13    14    1
     7    14     7    1
     8     7     8   am
     9     8     9    2
    10     8     1    1
    11     1     2   ar
    12     2     3   ar
    13     3     4   ar
    14     4    19    1
    15    19    20    1
    16    20    21    1
    17    21    22    1
    18    22    23    1
    19    23    26    1
    20    26    27    1
    21    27    28    1
    22    28    29    1
    23    23    24    1
    24    24    25    1
    25     4     5   ar
    26     5     6   ar
    27    14    15    1
    28    15    11    1
    29     6     1   ar
    30    25    20    1
    31    29    26    1
    32     7    10    1
@<TRIPOS>MOLECULE
*****
 29 32 0 0 0
SMALL
GASTEIGER

@<TRIPOS>ATOM
      1 C           6.3702   -3.0847   27.0738 C.ar    1  UNL1        0.0536
      2 C           6.7935   -4.4286   27.5882 C.ar    1  UNL1        0.0076
      3 C           6.9511   -4.6515   29.0631 C.ar    1  UNL1        0.0370
      4 C           6.6855   -3.5304   30.0236 C.ar    1  UNL1        0.1384
      5 C           6.2622   -2.1865   29.5092 C.ar    1  UNL1        0.0370
      6 C           6.1046   -1.9636   28.0343 C.ar    1  UNL1        0.0076
      7 N           6.0398   -4.0329   24.6775 N.am    1  UNL1       -0.3011
      8 C           6.2125   -2.8618   25.5988 C.2     1  UNL1        0.2458
      9 O           6.2276   -1.4678   25.0451 O.2     1  UNL1       -0.2701
     10 H           6.0299   -4.9478   25.0409 H       1  UNL1        0.1497
     11 N           4.8942   -3.4507   21.0149 N.3     1  UNL1       -0.2725
     12 C           6.3849   -3.4832   20.8507 C.3     1  UNL1        0.0738
     13 C           6.9955   -3.7052   22.2028 C.3     1  UNL1        0.0383
     14 C           5.8821   -3.8100   23.2025 C.3     1  UNL1        0.0892
     15 C           4.5835   -3.6527   22.4684 C.3     1  UNL1        0.0919
     16 C           3.3452   -1.8819   19.6405 C.3     1  UNL1        0.0173
     17 C           3.8906   -3.2513   19.9183 C.3     1  UNL1        0.0576
     18 C           3.4322   -4.4214   19.0993 C.3     1  UNL1        0.0173
     19 O           6.8432   -3.7533   31.4986 O.3     1  UNL1       -0.4791
     20 C           6.2856   -2.7570   32.4715 C.3     1  UNL1        0.1687
     21 C           7.1430   -1.6290   32.9640 C.3     1  UNL1        0.0609
     22 C           6.5854   -0.6327   33.9369 C.3     1  UNL1        0.0758
     23 N           5.1705   -0.7644   34.4173 N.3     1  UNL1       -0.2737
     24 C           4.3132   -1.8925   33.9248 C.3     1  UNL1        0.0758
     25 C           4.8707   -2.8887   32.9519 C.3     1  UNL1        0.0609
     26 C           4.6130    0.2318   35.3902 C.3     1  UNL1        0.0575
     27 C           4.5541    0.3358   36.8855 C.3     1  UNL1        0.0160
     28 C           3.8245    1.6408   36.7661 C.3     1  UNL1        0.0028
     29 C           3.8833    1.5370   35.2709 C.3     1  UNL1        0.0160
@<TRIPOS>BOND
     1    16    17    1
     2    17    18    1
     3    17    11    1
     4    11    12    1
     5    12    13    1
     6    13    14    1
     7    14     7    1
     8     7     8   am
     9     8     9    2
    10     8     1    1
    11     1     2   ar
    12     2     3   ar
    13     3     4   ar
    14     4    19    1
    15    19    20    1
    16    20    21    1
    17    21    22    1
    18    22    23    1
    19    23    26    1
    20    26    27    1
    21    27    28    1
    22    28    29    1
    23    23    24    1
    24    24    25    1
    25     4     5   ar
    26     5     6   ar
    27    14    15    1
    28    15    11    1
    29     6     1   ar
    30    25    20    1
    31    29    26    1
    32     7    10    1
@<TRIPOS>MOLECULE
*****
 29 32 0 0 0
SMALL
GASTEIGER

@<TRIPOS>ATOM
      1 C           5.4273   -2.9704   23.8359 C.ar    1  UNL1        0.0536
      2 C           4.4083   -1.8863   23.6450 C.ar    1  UNL1        0.0076
      3 C           3.7340   -1.7165   22.3159 C.ar    1  UNL1        0.0370
      4 C           4.0787   -2.6307   21.1778 C.ar    1  UNL1        0.1384
      5 C           5.0976   -3.7148   21.3687 C.ar    1  UNL1        0.0370
      6 C           5.7719   -3.8846   22.6978 C.ar    1  UNL1        0.0076
      7 N           6.2895   -4.5125   25.7407 N.am    1  UNL1       -0.3011
      8 C           6.1016   -3.1402   25.1650 C.2     1  UNL1        0.2458
      9 O           6.5881   -1.9378   25.9183 O.2     1  UNL1       -0.2701
     10 H           5.9703   -5.3017   25.2463 H       1  UNL1        0.1497
     11 N           7.3455   -4.8356   29.4618 N.3     1  UNL1       -0.2725
     12 C           8.6579   -5.0520   28.7683 C.3     1  UNL1        0.0738
     13 C           8.4220   -4.9573   27.2899 C.3     1  UNL1        0.0383
     14 C           6.9639   -4.6824   27.0699 C.3     1  UNL1        0.0892
     15 C           6.2986   -4.6071   28.4121 C.3     1  UNL1        0.0919
     16 C           7.3738   -6.0961   31.7334 C.3     1  UNL1        0.0173
     17 C           7.1197   -4.8458   30.9446 C.3     1  UNL1        0.0576
     18 C           6.6398   -3.6057   31.6387 C.3     1  UNL1        0.0173
     19 O           3.4043   -2.4609   19.8487 O.3     1  UNL1       -0.4791
     20 C           2.7777   -1.1466   19.4881 C.3     1  UNL1        0.1687
     21 C           3.4990   -0.1962   18.5790 C.3     1  UNL1        0.0609
     22 C           2.8724    1.1182   18.2184 C.3     1  UNL1        0.0758
     23 N           1.5245    1.4820   18.7670 N.3     1  UNL1       -0.2737
     24 C           0.8033    0.5316   19.6761 C.3     1  UNL1        0.0758
     25 C           1.4298   -0.7827   20.0366 C.3     1  UNL1        0.0609
     26 C           0.8980    2.7963   18.4064 C.3     1  UNL1        0.0575
     27 C          -0.4143    3.2192   17.8156 C.3     1  UNL1        0.0160
     28 C           0.0118    4.6550   17.8964 C.3     1  UNL1        0.0028
     29 C           1.3242    4.2322   18.4872 C.3     1  UNL1        0.0160
@<TRIPOS>BOND
     1    16    17    1
     2    17    18    1
     3    17    11    1
     4    11    12    1
     5    12    13    1
     6    13    14    1
     7    14     7    1
     8     7     8   am
     9     8     9    2
    10     8     1    1
    11     1     2   ar
    12     2     3   ar
    13     3     4   ar
    14     4    19    1
    15    19    20    1
    16    20    21    1
    17    21    22    1
    18    22    23    1
    19    23    26    1
    20    26    27    1
    21    27    28    1
    22    28    29    1
    23    23    24    1
    24    24    25    1
    25     4     5   ar
    26     5     6   ar
    27    14    15    1
    28    15    11    1
    29     6     1   ar
    30    25    20    1
    31    29    26    1
    32     7    10    1
@<TRIPOS>MOLECULE
*****
 29 32 0 0 0
SMALL
GASTEIGER

@<TRIPOS>ATOM
      1 C           2.8848   -0.6269   20.2028 C.ar    1  UNL1        0.0536
      2 C           3.4059    0.7439   19.8878 C.ar    1  UNL1        0.0076
      3 C           2.4501    1.8846   19.6996 C.ar    1  UNL1        0.0370
      4 C           0.9733    1.6545   19.8265 C.ar    1  UNL1        0.1384
      5 C           0.4523    0.2836   20.1415 C.ar    1  UNL1        0.0370
      6 C           1.4080   -0.8570   20.3296 C.ar    1  UNL1        0.0076
      7 N           5.0967   -1.5702   21.1864 N.am    1  UNL1       -0.3011
      8 C           3.8405   -1.7676   20.3909 C.2     1  UNL1        0.2458
      9 O           3.5399   -3.1058   19.7835 O.2     1  UNL1       -0.2701
     10 H           5.2940   -0.6919   21.5850 H       1  UNL1        0.1497
     11 N           7.3383   -4.5015   22.3900 N.3     1  UNL1       -0.2725
     12 C           7.7080   -4.4312   20.9379 C.3     1  UNL1        0.0738
     13 C           6.9133   -3.3245   20.3103 C.3     1  UNL1        0.0383
     14 C           6.0525   -2.7110   21.3745 C.3     1  UNL1        0.0892
     15 C           6.3151   -3.4383   22.6598 C.3     1  UNL1        0.0919
     16 C           8.8608   -6.5275   22.9621 C.3     1  UNL1        0.0173
     17 C           7.8941   -5.4656   23.3956 C.3     1  UNL1        0.0576
     18 C           7.4832   -5.3681   24.8349 C.3     1  UNL1        0.0173
     19 O           0.0176    2.7952   19.6384 O.3     1  UNL1       -0.4791
     20 C          -1.0368    3.0681   20.6697 C.3     1  UNL1        0.1687
     21 C          -2.4737    3.1943   20.2581 C.3     1  UNL1        0.0609
     22 C          -3.5281    3.4672   21.2895 C.3     1  UNL1        0.0758
     23 N          -3.1456    3.6140   22.7324 N.3     1  UNL1       -0.2737
     24 C          -1.7088    3.4878   23.1441 C.3     1  UNL1        0.0758
     25 C          -0.6543    3.2149   22.1127 C.3     1  UNL1        0.0609
     26 C          -4.2001    3.8869   23.7638 C.3     1  UNL1        0.0575
     27 C          -4.2254    3.9574   25.2619 C.3     1  UNL1        0.0160
     28 C          -5.6912    4.2729   25.2223 C.3     1  UNL1        0.0028
     29 C          -5.6660    4.2024   23.7242 C.3     1  UNL1        0.0160
@<TRIPOS>BOND
     1    16    17    1
     2    17    18    1
     3    17    11    1
     4    11    12    1
     5    12    13    1
     6    13    14    1
     7    14     7    1
     8     7     8   am
     9     8     9    2
    10     8     1    1
    11     1     2   ar
    12     2     3   ar
    13     3     4   ar
    14     4    19    1
    15    19    20    1
    16    20    21    1
    17    21    22    1
    18    22    23    1
    19    23    26    1
    20    26    27    1
    21    27    28    1
    22    28    29    1
    23    23    24    1
    24    24    25    1
    25     4     5   ar
    26     5     6   ar
    27    14    15    1
    28    15    11    1
    29     6     1   ar
    30    25    20    1
    31    29    26    1
    32     7    10    1
@<TRIPOS>MOLECULE
*****
 29 32 0 0 0
SMALL
GASTEIGER

@<TRIPOS>ATOM
      1 C          -1.9285    3.4371   21.5496 C.ar    1  UNL1        0.0536
      2 C          -0.8760    3.5493   22.6124 C.ar    1  UNL1        0.0076
      3 C           0.5555    3.2429   22.2855 C.ar    1  UNL1        0.0370
      4 C           0.9345    2.8244   20.8958 C.ar    1  UNL1        0.1384
      5 C          -0.1180    2.7122   19.8330 C.ar    1  UNL1        0.0370
      6 C          -1.5495    3.0186   20.1599 C.ar    1  UNL1        0.0076
      7 N          -3.7295    5.0806   22.4471 N.am    1  UNL1       -0.3011
      8 C          -3.3601    3.7435   21.8764 C.2     1  UNL1        0.2458
      9 O          -4.4222    2.7127   21.6326 O.2     1  UNL1       -0.2701
     10 H          -3.0324    5.7571   22.6071 H       1  UNL1        0.1497
     11 N          -7.2115    5.7913   24.0080 N.3     1  UNL1       -0.2725
     12 C          -7.5167    5.9255   22.5455 C.3     1  UNL1        0.0738
     13 C          -6.2494    5.6755   21.7827 C.3     1  UNL1        0.0383
     14 C          -5.1611    5.3869   22.7739 C.3     1  UNL1        0.0892
     15 C          -5.7557    5.4585   24.1492 C.3     1  UNL1        0.0919
     16 C          -9.6475    5.6867   24.9052 C.3     1  UNL1        0.0173
     17 C          -8.1902    5.9603   25.1320 C.3     1  UNL1        0.0576
     18 C          -7.7117    6.4031   26.4829 C.3     1  UNL1        0.0173
     19 O           2.3661    2.5180   20.5690 O.3     1  UNL1       -0.4791
     20 C           2.7730    1.1164   20.2228 C.3     1  UNL1        0.1687
     21 C           3.2832    0.8014   18.8479 C.3     1  UNL1        0.0609
     22 C           3.6900   -0.6003   18.5017 C.3     1  UNL1        0.0758
     23 N           3.5867   -1.6869   19.5305 N.3     1  UNL1       -0.2737
     24 C           3.0765   -1.3720   20.9055 C.3     1  UNL1        0.0758
     25 C           2.6696    0.0296   21.2516 C.3     1  UNL1        0.0609
     26 C           3.9936   -3.0885   19.1844 C.3     1  UNL1        0.0575
     27 C           5.1887   -3.7149   18.5291 C.3     1  UNL1        0.0160
     28 C           4.5690   -5.0708   18.6948 C.3     1  UNL1        0.0028
     29 C           3.3739   -4.4445   19.3501 C.3     1  UNL1        0.0160
@<TRIPOS>BOND
     1    16    17    1
     2    17    18    1
     3    17    11    1
     4    11    12    1
     5    12    13    1
     6    13    14    1
     7    14     7    1
     8     7     8   am
     9     8     9    2
    10     8     1    1
    11     1     2   ar
    12     2     3   ar
    13     3     4   ar
    14     4    19    1
    15    19    20    1
    16    20    21    1
    17    21    22    1
    18    22    23    1
    19    23    26    1
    20    26    27    1
    21    27    28    1
    22    28    29    1
    23    23    24    1
    24    24    25    1
    25     4     5   ar
    26     5     6   ar
    27    14    15    1
    28    15    11    1
    29     6     1   ar
    30    25    20    1
    31    29    26    1
    32     7    10    1
@<TRIPOS>MOLECULE
*****
 29 32 0 0 0
SMALL
GASTEIGER

@<TRIPOS>ATOM
      1 C          -0.4532    1.8093   27.0839 C.ar    1  UNL1        0.0536
      2 C          -0.9728    0.8094   28.0739 C.ar    1  UNL1        0.0076
      3 C          -0.0161   -0.0641   28.8300 C.ar    1  UNL1        0.0370
      4 C           1.4601    0.0623   28.5961 C.ar    1  UNL1        0.1384
      5 C           1.9797    1.0622   27.6061 C.ar    1  UNL1        0.0370
      6 C           1.0230    1.9357   26.8500 C.ar    1  UNL1        0.0076
      7 N          -2.6139    3.2506   27.0192 N.am    1  UNL1       -0.3011
      8 C          -1.4099    2.6829   26.3278 C.2     1  UNL1        0.2458
      9 O          -1.1625    2.9888   24.8803 O.2     1  UNL1       -0.2701
     10 H          -2.7763    3.0498   27.9692 H       1  UNL1        0.1497
     11 N          -5.4061    4.8595   24.8557 N.3     1  UNL1       -0.2725
     12 C          -4.6793    6.0776   25.3435 C.3     1  UNL1        0.0738
     13 C          -3.5448    5.6232   26.2133 C.3     1  UNL1        0.0383
     14 C          -3.5706    4.1242   26.2631 C.3     1  UNL1        0.0892
     15 C          -4.7209    3.6522   25.4241 C.3     1  UNL1        0.0919
     16 C          -6.5435    4.1606   22.6268 C.3     1  UNL1        0.0173
     17 C          -6.6073    4.8502   23.9574 C.3     1  UNL1        0.0576
     18 C          -7.8723    5.5306   24.3895 C.3     1  UNL1        0.0173
     19 O           2.4168   -0.8113   29.3522 O.3     1  UNL1       -0.4791
     20 C           2.8317   -0.4395   30.7449 C.3     1  UNL1        0.1687
     21 C           3.6709   -1.3829   31.5546 C.3     1  UNL1        0.0609
     22 C           4.0857   -1.0110   32.9474 C.3     1  UNL1        0.0758
     23 N           3.6613    0.3043   33.5303 N.3     1  UNL1       -0.2737
     24 C           2.8221    1.2477   32.7205 C.3     1  UNL1        0.0758
     25 C           2.4073    0.8759   31.3279 C.3     1  UNL1        0.0609
     26 C           4.0761    0.6762   34.9230 C.3     1  UNL1        0.0575
     27 C           3.9067    1.8865   35.7927 C.3     1  UNL1        0.0160
     28 C           4.6627    1.2021   36.8926 C.3     1  UNL1        0.0028
     29 C           4.8322   -0.0083   36.0229 C.3     1  UNL1        0.0160
@<TRIPOS>BOND
     1    16    17    1
     2    17    18    1
     3    17    11    1
     4    11    12    1
     5    12    13    1
     6    13    14    1
     7    14     7    1
     8     7     8   am
     9     8     9    2
    10     8     1    1
    11     1     2   ar
    12     2     3   ar
    13     3     4   ar
    14     4    19    1
    15    19    20    1
    16    20    21    1
    17    21    22    1
    18    22    23    1
    19    23    26    1
    20    26    27    1
    21    27    28    1
    22    28    29    1
    23    23    24    1
    24    24    25    1
    25     4     5   ar
    26     5     6   ar
    27    14    15    1
    28    15    11    1
    29     6     1   ar
    30    25    20    1
    31    29    26    1
    32     7    10    1
