@<TRIPOS>MOLECULE
*****
 41 44 0 0 0
SMALL
GASTEIGER

@<TRIPOS>ATOM
      1 O          -5.2825  -20.1215   20.6075 O.2     1  UNL1       -0.2830
      2 C          -4.7499  -18.9185   21.3281 C.ar    1  UNL1        0.2382
      3 C          -5.5444  -18.2964   22.4379 C.ar    1  UNL1        0.2144
      4 C          -5.0118  -17.0935   23.1585 C.ar    1  UNL1        0.1823
      5 O          -3.6847  -16.5127   22.7694 O.2     1  UNL1       -0.4500
      6 C          -2.8901  -17.1349   21.6596 C.ar    1  UNL1        0.1545
      7 C          -1.5630  -16.5542   21.2705 C.ar    1  UNL1        0.0744
      8 C          -0.7684  -17.1763   20.1608 C.ar    1  UNL1        0.1397
      9 O           0.5588  -16.5956   19.7716 O.3     1  UNL1       -0.5053
     10 C          -1.3010  -18.3792   19.4401 C.ar    1  UNL1        0.0735
     11 C          -2.6282  -18.9600   19.8292 C.ar    1  UNL1        0.1428
     12 O          -3.1608  -20.1629   19.1086 O.3     1  UNL1       -0.5052
     13 C          -3.4227  -18.3378   20.9390 C.ar    1  UNL1        0.1104
     14 H           0.8915  -15.8442   20.2218 H       1  UNL1        0.2922
     15 H          -2.6644  -20.5515   18.4153 H       1  UNL1        0.2922
     16 C          -5.8064  -16.4713   24.2683 C.ar    1  UNL1        0.0409
     17 C          -5.2011  -16.3239   25.6328 C.ar    1  UNL1        0.0064
     18 C          -5.9957  -15.7018   26.7425 C.ar    1  UNL1        0.0399
     19 C          -7.3956  -15.2270   26.4877 C.ar    1  UNL1        0.1675
     20 O          -8.1902  -14.6048   27.5976 O.3     1  UNL1       -0.5029
     21 C          -8.0009  -15.3744   25.1233 C.ar    1  UNL1        0.1676
     22 O          -9.4008  -14.8996   24.8685 O.3     1  UNL1       -0.5029
     23 C          -7.2063  -15.9965   24.0136 C.ar    1  UNL1        0.0429
     24 H          -7.8121  -14.5128   28.4499 H       1  UNL1        0.2923
     25 H          -9.8971  -14.5110   25.5617 H       1  UNL1        0.2923
     26 O          -6.8716  -18.8771   22.8270 O.3     1  UNL1       -0.4441
     27 C          -8.0986  -18.5434   22.0313 C.3     1  UNL1        0.3182
     28 O          -8.9606  -17.3834   22.4331 O.3     1  UNL1       -0.3160
     29 C         -10.1876  -17.0497   21.6373 C.3     1  UNL1        0.1772
     30 C         -10.5525  -17.8761   20.4398 C.3     1  UNL1        0.1695
     31 O         -11.7795  -17.5424   19.6441 O.3     1  UNL1       -0.3794
     32 C          -9.6905  -19.0360   20.0381 C.3     1  UNL1        0.1728
     33 O         -10.0555  -19.8623   18.8406 O.3     1  UNL1       -0.3793
     34 C          -8.4636  -19.3697   20.8338 C.3     1  UNL1        0.2105
     35 O          -7.6016  -20.5296   20.4320 O.3     1  UNL1       -0.3766
     36 H         -12.2189  -16.7713   20.0355 H       1  UNL1        0.2105
     37 H         -10.8695  -19.5146   18.4438 H       1  UNL1        0.2105
     38 H          -6.8554  -20.6063   21.0471 H       1  UNL1        0.2107
     39 C         -11.0495  -15.8898   22.0391 C.3     1  UNL1        0.1693
     40 O         -12.5323  -16.0696   22.1771 O.3     1  UNL1       -0.3794
     41 H         -12.9167  -16.2641   21.3080 H       1  UNL1        0.2105
@<TRIPOS>BOND
     1     1     2    2
     2     2     3   ar
     3     3    26    1
     4    27    26    1
     5    27    28    1
     6    28    29    1
     7    29    39    1
     8    39    40    1
     9    29    30    1
    10    30    31    1
    11    30    32    1
    12    32    33    1
    13    32    34    1
    14    34    35    1
    15     3     4   ar
    16     4    16    1
    17    16    17   ar
    18    17    18   ar
    19    18    19   ar
    20    19    20    1
    21    19    21   ar
    22    21    22    1
    23    21    23   ar
    24     4     5   ar
    25     5     6   ar
    26     6     7   ar
    27     7     8   ar
    28     8     9    1
    29     8    10   ar
    30    10    11   ar
    31    11    12    1
    32    11    13   ar
    33    13     2   ar
    34    34    27    1
    35    23    16   ar
    36    13     6   ar
    37    40    41    1
    38    31    36    1
    39    33    37    1
    40    35    38    1
    41    20    24    1
    42    22    25    1
    43     9    14    1
    44    12    15    1
@<TRIPOS>MOLECULE
*****
 41 44 0 0 0
SMALL
GASTEIGER

@<TRIPOS>ATOM
      1 O          -5.3581  -19.9990   20.5563 O.2     1  UNL1       -0.2830
      2 C          -4.7960  -18.8283   21.3069 C.ar    1  UNL1        0.2382
      3 C          -5.5710  -18.2207   22.4383 C.ar    1  UNL1        0.2144
      4 C          -5.0089  -17.0499   23.1889 C.ar    1  UNL1        0.1823
      5 O          -3.6718  -16.4868   22.8081 O.2     1  UNL1       -0.4500
      6 C          -2.8968  -17.0944   21.6766 C.ar    1  UNL1        0.1545
      7 C          -1.5597  -16.5313   21.2957 C.ar    1  UNL1        0.0744
      8 C          -0.7848  -17.1389   20.1643 C.ar    1  UNL1        0.1397
      9 O           0.5524  -16.5758   19.7834 O.3     1  UNL1       -0.5053
     10 C          -1.3469  -18.3096   19.4137 C.ar    1  UNL1        0.0735
     11 C          -2.6839  -18.8728   19.7946 C.ar    1  UNL1        0.1428
     12 O          -3.2460  -20.0435   19.0440 O.3     1  UNL1       -0.5052
     13 C          -3.4589  -18.2652   20.9260 C.ar    1  UNL1        0.1104
     14 H           0.9035  -15.8444   20.2522 H       1  UNL1        0.2922
     15 H          -2.7619  -20.4231   18.3372 H       1  UNL1        0.2922
     16 C          -5.7839  -16.4423   24.3204 C.ar    1  UNL1        0.0409
     17 C          -5.1552  -16.3134   25.6761 C.ar    1  UNL1        0.0064
     18 C          -5.9302  -15.7058   26.8075 C.ar    1  UNL1        0.0399
     19 C          -7.3340  -15.2271   26.5832 C.ar    1  UNL1        0.1675
     20 O          -8.1090  -14.6194   27.7147 O.3     1  UNL1       -0.5029
     21 C          -7.9627  -15.3559   25.2275 C.ar    1  UNL1        0.1676
     22 O          -9.3664  -14.8772   25.0031 O.3     1  UNL1       -0.5029
     23 C          -7.1876  -15.9635   24.0961 C.ar    1  UNL1        0.0429
     24 H          -7.7162  -14.5390   28.5616 H       1  UNL1        0.2923
     25 H          -9.8505  -14.4976   25.7099 H       1  UNL1        0.2923
     26 O          -6.9081  -18.7838   22.8193 O.3     1  UNL1       -0.4441
     27 C          -8.1654  -18.0974   22.3741 C.3     1  UNL1        0.3182
     28 O          -8.0902  -16.7649   21.6893 O.3     1  UNL1       -0.3160
     29 C          -9.3474  -16.0785   21.2441 C.3     1  UNL1        0.1772
     30 C         -10.6798  -16.7245   21.4838 C.3     1  UNL1        0.1695
     31 O         -11.9371  -16.0381   21.0386 O.3     1  UNL1       -0.3794
     32 C         -10.7550  -18.0570   22.1686 C.3     1  UNL1        0.1728
     33 O         -12.0873  -18.7030   22.4082 O.3     1  UNL1       -0.3793
     34 C          -9.4977  -18.7434   22.6137 C.3     1  UNL1        0.2105
     35 O          -9.5728  -20.0758   23.2985 O.3     1  UNL1       -0.3766
     36 H         -11.7127  -15.1937   20.6173 H       1  UNL1        0.2105
     37 H         -12.7906  -18.1316   22.0621 H       1  UNL1        0.2105
     38 H          -8.6775  -20.3772   23.5184 H       1  UNL1        0.2107
     39 C          -9.2723  -14.7460   20.5594 C.3     1  UNL1        0.1693
     40 O         -10.0720  -14.4960   19.3152 O.3     1  UNL1       -0.3794
     41 H          -9.7445  -15.0644   18.6007 H       1  UNL1        0.2105
@<TRIPOS>BOND
     1     1     2    2
     2     2     3   ar
     3     3    26    1
     4    27    26    1
     5    27    28    1
     6    28    29    1
     7    29    39    1
     8    39    40    1
     9    29    30    1
    10    30    31    1
    11    30    32    1
    12    32    33    1
    13    32    34    1
    14    34    35    1
    15     3     4   ar
    16     4    16    1
    17    16    17   ar
    18    17    18   ar
    19    18    19   ar
    20    19    20    1
    21    19    21   ar
    22    21    22    1
    23    21    23   ar
    24     4     5   ar
    25     5     6   ar
    26     6     7   ar
    27     7     8   ar
    28     8     9    1
    29     8    10   ar
    30    10    11   ar
    31    11    12    1
    32    11    13   ar
    33    13     2   ar
    34    34    27    1
    35    23    16   ar
    36    13     6   ar
    37    40    41    1
    38    31    36    1
    39    33    37    1
    40    35    38    1
    41    20    24    1
    42    22    25    1
    43     9    14    1
    44    12    15    1
@<TRIPOS>MOLECULE
*****
 41 44 0 0 0
SMALL
GASTEIGER

@<TRIPOS>ATOM
      1 O          -5.2054  -20.2696   20.8476 O.2     1  UNL1       -0.2830
      2 C          -4.7059  -19.0164   21.5033 C.ar    1  UNL1        0.2382
      3 C          -5.5094  -18.3678   22.5913 C.ar    1  UNL1        0.2144
      4 C          -5.0100  -17.1146   23.2471 C.ar    1  UNL1        0.1823
      5 O          -3.7071  -16.5100   22.8149 O.2     1  UNL1       -0.4500
      6 C          -2.9035  -17.1586   21.7268 C.ar    1  UNL1        0.1545
      7 C          -1.6006  -16.5540   21.2946 C.ar    1  UNL1        0.0744
      8 C          -0.7972  -17.2026   20.2067 C.ar    1  UNL1        0.1397
      9 O           0.5058  -16.5979   19.7744 O.3     1  UNL1       -0.5053
     10 C          -1.2966  -18.4558   19.5509 C.ar    1  UNL1        0.0735
     11 C          -2.5995  -19.0604   19.9831 C.ar    1  UNL1        0.1428
     12 O          -3.0989  -20.3136   19.3273 O.3     1  UNL1       -0.5052
     13 C          -3.4030  -18.4118   21.0711 C.ar    1  UNL1        0.1104
     14 H           0.8178  -15.8151   20.1840 H       1  UNL1        0.2922
     15 H          -2.5970  -20.7187   18.6477 H       1  UNL1        0.2922
     16 C          -5.8135  -16.4660   24.3351 C.ar    1  UNL1        0.0409
     17 C          -5.2198  -16.2870   25.7009 C.ar    1  UNL1        0.0064
     18 C          -6.0233  -15.6385   26.7888 C.ar    1  UNL1        0.0399
     19 C          -7.4206  -15.1689   26.5110 C.ar    1  UNL1        0.1675
     20 O          -8.2241  -14.5203   27.5990 O.3     1  UNL1       -0.5029
     21 C          -8.0143  -15.3479   25.1452 C.ar    1  UNL1        0.1676
     22 O          -9.4115  -14.8783   24.8673 O.3     1  UNL1       -0.5029
     23 C          -7.2108  -15.9964   24.0572 C.ar    1  UNL1        0.0429
     24 H          -7.8532  -14.4085   28.4522 H       1  UNL1        0.2923
     25 H          -9.9135  -14.4732   25.5469 H       1  UNL1        0.2923
     26 O          -6.8124  -18.9724   23.0236 O.3     1  UNL1       -0.4441
     27 C          -8.0050  -18.9120   22.1158 C.3     1  UNL1        0.3182
     28 O          -7.8789  -19.3363   20.6825 O.3     1  UNL1       -0.3160
     29 C          -9.0715  -19.2758   19.7748 C.3     1  UNL1        0.1772
     30 C         -10.3902  -18.7910   20.3003 C.3     1  UNL1        0.1695
     31 O         -11.5828  -18.7306   19.3925 O.3     1  UNL1       -0.3794
     32 C         -10.5163  -18.3667   21.7334 C.3     1  UNL1        0.1728
     33 O         -11.8349  -17.8820   22.2588 O.3     1  UNL1       -0.3793
     34 C          -9.3236  -18.4272   22.6412 C.3     1  UNL1        0.2105
     35 O          -9.4497  -18.0029   24.0744 O.3     1  UNL1       -0.3766
     36 H         -11.3313  -19.0375   18.5074 H       1  UNL1        0.2105
     37 H         -12.4946  -17.9055   21.5481 H       1  UNL1        0.2105
     38 H          -8.5929  -18.1034   24.5179 H       1  UNL1        0.2107
     39 C          -8.9455  -19.7001   18.3416 C.3     1  UNL1        0.1693
     40 O          -8.9343  -21.1581   17.9893 O.3     1  UNL1       -0.3794
     41 H          -8.1357  -21.5723   18.3520 H       1  UNL1        0.2105
@<TRIPOS>BOND
     1     1     2    2
     2     2     3   ar
     3     3    26    1
     4    27    26    1
     5    27    28    1
     6    28    29    1
     7    29    39    1
     8    39    40    1
     9    29    30    1
    10    30    31    1
    11    30    32    1
    12    32    33    1
    13    32    34    1
    14    34    35    1
    15     3     4   ar
    16     4    16    1
    17    16    17   ar
    18    17    18   ar
    19    18    19   ar
    20    19    20    1
    21    19    21   ar
    22    21    22    1
    23    21    23   ar
    24     4     5   ar
    25     5     6   ar
    26     6     7   ar
    27     7     8   ar
    28     8     9    1
    29     8    10   ar
    30    10    11   ar
    31    11    12    1
    32    11    13   ar
    33    13     2   ar
    34    34    27    1
    35    23    16   ar
    36    13     6   ar
    37    40    41    1
    38    31    36    1
    39    33    37    1
    40    35    38    1
    41    20    24    1
    42    22    25    1
    43     9    14    1
    44    12    15    1
@<TRIPOS>MOLECULE
*****
 41 44 0 0 0
SMALL
GASTEIGER

@<TRIPOS>ATOM
      1 O           4.8834    0.0793   25.7441 O.2     1  UNL1       -0.2830
      2 C           3.9784    0.2873   26.9220 C.ar    1  UNL1        0.2382
      3 C           4.4725   -0.0037   28.3081 C.ar    1  UNL1        0.2144
      4 C           3.5675    0.2043   29.4861 C.ar    1  UNL1        0.1823
      5 O           2.1683    0.7032   29.2780 O.2     1  UNL1       -0.4500
      6 C           1.6741    0.9942   27.8919 C.ar    1  UNL1        0.1545
      7 C           0.2749    1.4931   27.6839 C.ar    1  UNL1        0.0744
      8 C          -0.2192    1.7840   26.2979 C.ar    1  UNL1        0.1397
      9 O          -1.6185    2.2830   26.0898 O.3     1  UNL1       -0.5053
     10 C           0.6858    1.5761   25.1199 C.ar    1  UNL1        0.0735
     11 C           2.0850    1.0771   25.3279 C.ar    1  UNL1        0.1428
     12 O           2.9900    0.8692   24.1499 O.3     1  UNL1       -0.5052
     13 C           2.5791    0.7862   26.7139 C.ar    1  UNL1        0.1104
     14 H          -2.1838    2.4129   26.8256 H       1  UNL1        0.2922
     15 H           2.6813    1.0509   23.2841 H       1  UNL1        0.2922
     16 C           4.0617   -0.0866   30.8722 C.ar    1  UNL1        0.0409
     17 C           4.8787    0.9345   31.6069 C.ar    1  UNL1        0.0064
     18 C           5.3729    0.6435   32.9929 C.ar    1  UNL1        0.0399
     19 C           5.0501   -0.6686   33.6442 C.ar    1  UNL1        0.1675
     20 O           5.5443   -0.9596   35.0303 O.3     1  UNL1       -0.5029
     21 C           4.2331   -1.6897   32.9095 C.ar    1  UNL1        0.1676
     22 O           3.9103   -3.0018   33.5608 O.3     1  UNL1       -0.5029
     23 C           3.7389   -1.3987   31.5235 C.ar    1  UNL1        0.0429
     24 H           6.0546   -0.3217   35.4892 H       1  UNL1        0.2923
     25 H           4.2190   -3.1836   34.4266 H       1  UNL1        0.2923
     26 O           5.8718   -0.5026   28.5162 O.3     1  UNL1       -0.4441
     27 C           6.1114   -1.9440   28.8553 C.3     1  UNL1        0.3182
     28 O           6.4577   -2.3362   30.2611 O.3     1  UNL1       -0.3160
     29 C           6.6973   -3.7776   30.6002 C.3     1  UNL1        0.1772
     30 C           6.5906   -4.8268   29.5335 C.3     1  UNL1        0.1695
     31 O           6.8302   -6.2682   29.8726 O.3     1  UNL1       -0.3794
     32 C           6.2443   -4.4346   28.1277 C.3     1  UNL1        0.1728
     33 O           6.1376   -5.4837   27.0611 O.3     1  UNL1       -0.3793
     34 C           6.0047   -2.9932   27.7886 C.3     1  UNL1        0.2105
     35 O           5.6584   -2.6009   26.3829 O.3     1  UNL1       -0.3766
     36 H           7.0413   -6.3476   30.8160 H       1  UNL1        0.2105
     37 H           6.3208   -6.3553   27.4453 H       1  UNL1        0.2105
     38 H           5.5369   -1.6397   26.3360 H       1  UNL1        0.2107
     39 C           7.0436   -4.1698   32.0060 C.3     1  UNL1        0.1693
     40 O           6.1511   -5.1066   32.7647 O.3     1  UNL1       -0.3794
     41 H           5.2939   -4.6806   32.9216 H       1  UNL1        0.2105
@<TRIPOS>BOND
     1     1     2    2
     2     2     3   ar
     3     3    26    1
     4    27    26    1
     5    27    28    1
     6    28    29    1
     7    29    39    1
     8    39    40    1
     9    29    30    1
    10    30    31    1
    11    30    32    1
    12    32    33    1
    13    32    34    1
    14    34    35    1
    15     3     4   ar
    16     4    16    1
    17    16    17   ar
    18    17    18   ar
    19    18    19   ar
    20    19    20    1
    21    19    21   ar
    22    21    22    1
    23    21    23   ar
    24     4     5   ar
    25     5     6   ar
    26     6     7   ar
    27     7     8   ar
    28     8     9    1
    29     8    10   ar
    30    10    11   ar
    31    11    12    1
    32    11    13   ar
    33    13     2   ar
    34    34    27    1
    35    23    16   ar
    36    13     6   ar
    37    40    41    1
    38    31    36    1
    39    33    37    1
    40    35    38    1
    41    20    24    1
    42    22    25    1
    43     9    14    1
    44    12    15    1
@<TRIPOS>MOLECULE
*****
 41 44 0 0 0
SMALL
GASTEIGER

@<TRIPOS>ATOM
      1 O           8.7193   -4.4381   21.9236 O.2     1  UNL1       -0.2830
      2 C           7.9055   -4.2835   23.1741 C.ar    1  UNL1        0.2382
      3 C           7.1938   -2.9925   23.4510 C.ar    1  UNL1        0.2144
      4 C           6.3800   -2.8379   24.7016 C.ar    1  UNL1        0.1823
      5 O           6.2778   -3.9744   25.6751 O.2     1  UNL1       -0.4500
      6 C           6.9895   -5.2655   25.3982 C.ar    1  UNL1        0.1545
      7 C           6.8873   -6.4020   26.3718 C.ar    1  UNL1        0.0744
      8 C           7.5989   -7.6930   26.0949 C.ar    1  UNL1        0.1397
      9 O           7.4968   -8.8296   27.0685 O.3     1  UNL1       -0.5053
     10 C           8.4128   -7.8476   24.8444 C.ar    1  UNL1        0.0735
     11 C           8.5150   -6.7111   23.8708 C.ar    1  UNL1        0.1428
     12 O           9.3288   -6.8657   22.6203 O.3     1  UNL1       -0.5052
     13 C           7.8033   -5.4201   24.1477 C.ar    1  UNL1        0.1104
     14 H           6.9884   -8.7331   27.8497 H       1  UNL1        0.2922
     15 H           9.7733   -7.6721   22.4473 H       1  UNL1        0.2922
     16 C           5.6683   -1.5468   24.9785 C.ar    1  UNL1        0.0409
     17 C           6.4341   -0.3631   25.4906 C.ar    1  UNL1        0.0064
     18 C           5.7225    0.9279   25.7675 C.ar    1  UNL1        0.0399
     19 C           4.2449    1.0353   25.5322 C.ar    1  UNL1        0.1675
     20 O           3.5333    2.3264   25.8091 O.3     1  UNL1       -0.5029
     21 C           3.4791   -0.1484   25.0200 C.ar    1  UNL1        0.1676
     22 O           2.0015   -0.0410   24.7847 O.3     1  UNL1       -0.5029
     23 C           4.1908   -1.4394   24.7432 C.ar    1  UNL1        0.0429
     24 H           4.0117    3.0658   26.1290 H       1  UNL1        0.2923
     25 H           1.5570    0.7655   24.9577 H       1  UNL1        0.2923
     26 O           7.2960   -1.8559   22.4774 O.3     1  UNL1       -0.4441
     27 C           6.4568   -1.8557   21.2341 C.3     1  UNL1        0.3182
     28 O           4.9782   -1.6209   21.3273 O.3     1  UNL1       -0.3160
     29 C           4.1390   -1.6207   20.0840 C.3     1  UNL1        0.1772
     30 C           4.7784   -1.8553   18.7475 C.3     1  UNL1        0.1695
     31 O           3.9393   -1.8550   17.5043 O.3     1  UNL1       -0.3794
     32 C           6.2570   -2.0900   18.6544 C.3     1  UNL1        0.1728
     33 O           6.8964   -2.3246   17.3180 O.3     1  UNL1       -0.3793
     34 C           7.0962   -2.0902   19.8977 C.3     1  UNL1        0.2105
     35 O           8.5747   -2.3250   19.8045 O.3     1  UNL1       -0.3766
     36 H           3.0128   -1.6898   17.7395 H       1  UNL1        0.2105
     37 H           6.2183   -2.2924   16.6250 H       1  UNL1        0.2105
     38 H           8.9637   -2.2931   20.6925 H       1  UNL1        0.2107
     39 C           2.6604   -1.3859   20.1772 C.3     1  UNL1        0.1693
     40 O           2.0010   -0.3882   19.2719 O.3     1  UNL1       -0.3794
     41 H           2.3205    0.5026   19.4850 H       1  UNL1        0.2105
@<TRIPOS>BOND
     1     1     2    2
     2     2     3   ar
     3     3    26    1
     4    27    26    1
     5    27    28    1
     6    28    29    1
     7    29    39    1
     8    39    40    1
     9    29    30    1
    10    30    31    1
    11    30    32    1
    12    32    33    1
    13    32    34    1
    14    34    35    1
    15     3     4   ar
    16     4    16    1
    17    16    17   ar
    18    17    18   ar
    19    18    19   ar
    20    19    20    1
    21    19    21   ar
    22    21    22    1
    23    21    23   ar
    24     4     5   ar
    25     5     6   ar
    26     6     7   ar
    27     7     8   ar
    28     8     9    1
    29     8    10   ar
    30    10    11   ar
    31    11    12    1
    32    11    13   ar
    33    13     2   ar
    34    34    27    1
    35    23    16   ar
    36    13     6   ar
    37    40    41    1
    38    31    36    1
    39    33    37    1
    40    35    38    1
    41    20    24    1
    42    22    25    1
    43     9    14    1
    44    12    15    1
@<TRIPOS>MOLECULE
*****
 41 44 0 0 0
SMALL
GASTEIGER

@<TRIPOS>ATOM
      1 O           0.2610    3.6839   21.6468 O.2     1  UNL1       -0.2830
      2 C           0.7768    2.5841   22.5269 C.ar    1  UNL1        0.2382
      3 C           0.5347    2.6317   24.0064 C.ar    1  UNL1        0.2144
      4 C           1.0504    1.5320   24.8865 C.ar    1  UNL1        0.1823
      5 O           1.8082    0.3847   24.2871 O.2     1  UNL1       -0.4500
      6 C           2.0504    0.3371   22.8075 C.ar    1  UNL1        0.1545
      7 C           2.8082   -0.8103   22.2081 C.ar    1  UNL1        0.0744
      8 C           3.0503   -0.8578   20.7285 C.ar    1  UNL1        0.1397
      9 O           3.8081   -2.0052   20.1290 O.3     1  UNL1       -0.5053
     10 C           2.5345    0.2419   19.8484 C.ar    1  UNL1        0.0735
     11 C           1.7767    1.3892   20.4479 C.ar    1  UNL1        0.1428
     12 O           1.2610    2.4890   19.5677 O.3     1  UNL1       -0.5052
     13 C           1.5346    1.4368   21.9274 C.ar    1  UNL1        0.1104
     14 H           4.1303   -2.6922   20.6788 H       1  UNL1        0.2922
     15 H           1.4122    2.4592   18.6435 H       1  UNL1        0.2922
     16 C           0.8083    1.5796   26.3662 C.ar    1  UNL1        0.0409
     17 C           1.7551    2.3273   27.2574 C.ar    1  UNL1        0.0064
     18 C           1.5130    2.3749   28.7369 C.ar    1  UNL1        0.0399
     19 C           0.3240    1.6748   29.3252 C.ar    1  UNL1        0.1675
     20 O           0.0819    1.7224   30.8048 O.3     1  UNL1       -0.5029
     21 C          -0.6229    0.9270   28.4340 C.ar    1  UNL1        0.1676
     22 O          -1.8119    0.2269   29.0223 O.3     1  UNL1       -0.5029
     23 C          -0.3807    0.8795   26.9545 C.ar    1  UNL1        0.0429
     24 H           0.6733    2.1895   31.3616 H       1  UNL1        0.2923
     25 H          -1.9631    0.2566   29.9465 H       1  UNL1        0.2923
     26 O          -0.2232    3.7791   24.6059 O.3     1  UNL1       -0.4441
     27 C          -1.7200    3.7276   24.6889 C.3     1  UNL1        0.3182
     28 O          -2.5324    3.4976   23.4490 O.3     1  UNL1       -0.3160
     29 C          -4.0292    3.4461   23.5319 C.3     1  UNL1        0.1772
     30 C          -4.7136    3.6246   24.8547 C.3     1  UNL1        0.1695
     31 O          -6.2104    3.5731   24.9376 O.3     1  UNL1       -0.3794
     32 C          -3.9013    3.8545   26.0945 C.3     1  UNL1        0.1728
     33 O          -4.5857    4.0330   27.4172 O.3     1  UNL1       -0.3793
     34 C          -2.4044    3.9060   26.0116 C.3     1  UNL1        0.2105
     35 O          -1.5921    4.1360   27.2514 O.3     1  UNL1       -0.3766
     36 H          -6.5781    3.4182   24.0535 H       1  UNL1        0.2105
     37 H          -5.5461    3.9724   27.2951 H       1  UNL1        0.2105
     38 H          -0.6492    4.1409   27.0238 H       1  UNL1        0.2107
     39 C          -4.8415    3.2161   22.2921 C.3     1  UNL1        0.1693
     40 O          -4.2296    2.5195   21.1130 O.3     1  UNL1       -0.3794
     41 H          -3.5220    3.0705   20.7434 H       1  UNL1        0.2105
@<TRIPOS>BOND
     1     1     2    2
     2     2     3   ar
     3     3    26    1
     4    27    26    1
     5    27    28    1
     6    28    29    1
     7    29    39    1
     8    39    40    1
     9    29    30    1
    10    30    31    1
    11    30    32    1
    12    32    33    1
    13    32    34    1
    14    34    35    1
    15     3     4   ar
    16     4    16    1
    17    16    17   ar
    18    17    18   ar
    19    18    19   ar
    20    19    20    1
    21    19    21   ar
    22    21    22    1
    23    21    23   ar
    24     4     5   ar
    25     5     6   ar
    26     6     7   ar
    27     7     8   ar
    28     8     9    1
    29     8    10   ar
    30    10    11   ar
    31    11    12    1
    32    11    13   ar
    33    13     2   ar
    34    34    27    1
    35    23    16   ar
    36    13     6   ar
    37    40    41    1
    38    31    36    1
    39    33    37    1
    40    35    38    1
    41    20    24    1
    42    22    25    1
    43     9    14    1
    44    12    15    1
@<TRIPOS>MOLECULE
*****
 41 44 0 0 0
SMALL
GASTEIGER

@<TRIPOS>ATOM
      1 O           5.9564   -2.0638   26.2158 O.2     1  UNL1       -0.2830
      2 C           6.2289   -2.7476   27.5228 C.ar    1  UNL1        0.2382
      3 C           6.0766   -1.9929   28.8102 C.ar    1  UNL1        0.2144
      4 C           6.3491   -2.6767   30.1171 C.ar    1  UNL1        0.1823
      5 O           6.7739   -4.1151   30.1368 O.2     1  UNL1       -0.4500
      6 C           6.9263   -4.8698   28.8494 C.ar    1  UNL1        0.1545
      7 C           7.3511   -6.3082   28.8691 C.ar    1  UNL1        0.0744
      8 C           7.5035   -7.0629   27.5818 C.ar    1  UNL1        0.1397
      9 O           7.9284   -8.5013   27.6014 O.3     1  UNL1       -0.5053
     10 C           7.2310   -6.3791   26.2748 C.ar    1  UNL1        0.0735
     11 C           6.8061   -4.9407   26.2551 C.ar    1  UNL1        0.1428
     12 O           6.5336   -4.2569   24.9481 O.3     1  UNL1       -0.5052
     13 C           6.6538   -4.1860   27.5425 C.ar    1  UNL1        0.1104
     14 H           8.0986   -8.9285   28.4178 H       1  UNL1        0.2922
     15 H           6.6288   -4.7284   24.1440 H       1  UNL1        0.2922
     16 C           6.1967   -1.9219   31.4045 C.ar    1  UNL1        0.0409
     17 C           7.1704   -0.8369   31.7576 C.ar    1  UNL1        0.0064
     18 C           7.0180   -0.0823   33.0449 C.ar    1  UNL1        0.0399
     19 C           5.8919   -0.4126   33.9791 C.ar    1  UNL1        0.1675
     20 O           5.7396    0.3422   35.2665 O.3     1  UNL1       -0.5029
     21 C           4.9182   -1.4976   33.6261 C.ar    1  UNL1        0.1676
     22 O           3.7922   -1.8279   34.5603 O.3     1  UNL1       -0.5029
     23 C           5.0706   -2.2522   32.3388 C.ar    1  UNL1        0.0429
     24 H           6.3478    1.0199   35.4870 H       1  UNL1        0.2923
     25 H           3.6970   -1.3564   35.3645 H       1  UNL1        0.2923
     26 O           5.6517   -0.5544   28.7905 O.3     1  UNL1       -0.4441
     27 C           4.2766   -0.1722   29.2522 C.3     1  UNL1        0.3182
     28 O           4.0934    0.5187   30.5710 O.3     1  UNL1       -0.3160
     29 C           2.7183    0.9010   31.0327 C.3     1  UNL1        0.1772
     30 C           1.5266    0.5923   30.1756 C.3     1  UNL1        0.1695
     31 O           0.1515    0.9745   30.6373 O.3     1  UNL1       -0.3794
     32 C           1.7099   -0.0986   28.8569 C.3     1  UNL1        0.1728
     33 O           0.5182   -0.4073   27.9999 O.3     1  UNL1       -0.3793
     34 C           3.0849   -0.4808   28.3952 C.3     1  UNL1        0.2105
     35 O           3.2683   -1.1717   27.0765 O.3     1  UNL1       -0.3766
     36 H           0.2101    1.4088   31.5027 H       1  UNL1        0.2105
     37 H          -0.2872   -0.0960   28.4419 H       1  UNL1        0.2105
     38 H           4.2113   -1.3465   26.9314 H       1  UNL1        0.2107
     39 C           2.5350    1.5919   32.3514 C.3     1  UNL1        0.1693
     40 O           1.1673    1.7000   32.9577 O.3     1  UNL1       -0.3794
     41 H           0.6100    2.2648   32.3997 H       1  UNL1        0.2105
@<TRIPOS>BOND
     1     1     2    2
     2     2     3   ar
     3     3    26    1
     4    27    26    1
     5    27    28    1
     6    28    29    1
     7    29    39    1
     8    39    40    1
     9    29    30    1
    10    30    31    1
    11    30    32    1
    12    32    33    1
    13    32    34    1
    14    34    35    1
    15     3     4   ar
    16     4    16    1
    17    16    17   ar
    18    17    18   ar
    19    18    19   ar
    20    19    20    1
    21    19    21   ar
    22    21    22    1
    23    21    23   ar
    24     4     5   ar
    25     5     6   ar
    26     6     7   ar
    27     7     8   ar
    28     8     9    1
    29     8    10   ar
    30    10    11   ar
    31    11    12    1
    32    11    13   ar
    33    13     2   ar
    34    34    27    1
    35    23    16   ar
    36    13     6   ar
    37    40    41    1
    38    31    36    1
    39    33    37    1
    40    35    38    1
    41    20    24    1
    42    22    25    1
    43     9    14    1
    44    12    15    1
@<TRIPOS>MOLECULE
*****
 41 44 0 0 0
SMALL
GASTEIGER

@<TRIPOS>ATOM
      1 O           5.8146   -0.8867   27.7163 O.2     1  UNL1       -0.2830
      2 C           6.0520   -1.7598   28.9126 C.ar    1  UNL1        0.2382
      3 C           5.8981   -1.1968   30.2944 C.ar    1  UNL1        0.2144
      4 C           6.1355   -2.0700   31.4907 C.ar    1  UNL1        0.1823
      5 O           6.5268   -3.5061   31.3053 O.2     1  UNL1       -0.4500
      6 C           6.6807   -4.0691   29.9235 C.ar    1  UNL1        0.1545
      7 C           7.0720   -5.5052   29.7381 C.ar    1  UNL1        0.0744
      8 C           7.2259   -6.0682   28.3564 C.ar    1  UNL1        0.1397
      9 O           7.6172   -7.5044   28.1709 O.3     1  UNL1       -0.5053
     10 C           6.9885   -5.1951   27.1600 C.ar    1  UNL1        0.0735
     11 C           6.5972   -3.7590   27.3454 C.ar    1  UNL1        0.1428
     12 O           6.3598   -2.8858   26.1490 O.3     1  UNL1       -0.5052
     13 C           6.4433   -3.1960   28.7272 C.ar    1  UNL1        0.1104
     14 H           7.7655   -8.0498   28.9182 H       1  UNL1        0.2922
     15 H           6.4559   -3.2375   25.2859 H       1  UNL1        0.2922
     16 C           5.9815   -1.5069   32.8726 C.ar    1  UNL1        0.0409
     17 C           4.6920   -1.6882   33.6170 C.ar    1  UNL1        0.0064
     18 C           4.5381   -1.1251   34.9987 C.ar    1  UNL1        0.0399
     19 C           5.6738   -0.3808   35.6360 C.ar    1  UNL1        0.1675
     20 O           5.5199    0.1823   37.0179 O.3     1  UNL1       -0.5029
     21 C           6.9634   -0.1995   34.8917 C.ar    1  UNL1        0.1676
     22 O           8.0990    0.5448   35.5290 O.3     1  UNL1       -0.5029
     23 C           7.1172   -0.7626   33.5099 C.ar    1  UNL1        0.0429
     24 H           4.7143    0.0690   37.4829 H       1  UNL1        0.2923
     25 H           8.0029    0.8965   36.3922 H       1  UNL1        0.2923
     26 O           5.5067    0.2394   30.4798 O.3     1  UNL1       -0.4441
     27 C           4.0709    0.6003   30.7210 C.3     1  UNL1        0.3182
     28 O           3.0146    0.1644   29.7493 O.3     1  UNL1       -0.3160
     29 C           1.5788    0.5253   29.9904 C.3     1  UNL1        0.1772
     30 C           1.1993    1.3223   31.2033 C.3     1  UNL1        0.1695
     31 O          -0.2365    1.6832   31.4445 O.3     1  UNL1       -0.3794
     32 C           2.2556    1.7582   32.1750 C.3     1  UNL1        0.1728
     33 O           1.8761    2.5550   33.3878 O.3     1  UNL1       -0.3793
     34 C           3.6914    1.3972   31.9338 C.3     1  UNL1        0.2105
     35 O           4.7478    1.8331   32.9054 O.3     1  UNL1       -0.3766
     36 H          -0.7842    1.3271   30.7275 H       1  UNL1        0.2105
     37 H           0.9171    2.7004   33.3920 H       1  UNL1        0.2105
     38 H           5.6144    1.5195   32.6031 H       1  UNL1        0.2107
     39 C           0.5225    0.0894   29.0188 C.3     1  UNL1        0.1693
     40 O          -0.6617   -0.6952   29.5004 O.3     1  UNL1       -0.3794
     41 H          -0.3669   -1.5625   29.8195 H       1  UNL1        0.2105
@<TRIPOS>BOND
     1     1     2    2
     2     2     3   ar
     3     3    26    1
     4    27    26    1
     5    27    28    1
     6    28    29    1
     7    29    39    1
     8    39    40    1
     9    29    30    1
    10    30    31    1
    11    30    32    1
    12    32    33    1
    13    32    34    1
    14    34    35    1
    15     3     4   ar
    16     4    16    1
    17    16    17   ar
    18    17    18   ar
    19    18    19   ar
    20    19    20    1
    21    19    21   ar
    22    21    22    1
    23    21    23   ar
    24     4     5   ar
    25     5     6   ar
    26     6     7   ar
    27     7     8   ar
    28     8     9    1
    29     8    10   ar
    30    10    11   ar
    31    11    12    1
    32    11    13   ar
    33    13     2   ar
    34    34    27    1
    35    23    16   ar
    36    13     6   ar
    37    40    41    1
    38    31    36    1
    39    33    37    1
    40    35    38    1
    41    20    24    1
    42    22    25    1
    43     9    14    1
    44    12    15    1
@<TRIPOS>MOLECULE
*****
 41 44 0 0 0
SMALL
GASTEIGER

@<TRIPOS>ATOM
      1 O          -0.3613    4.1988   22.2345 O.2     1  UNL1       -0.2830
      2 C          -1.1971    3.8058   23.4165 C.ar    1  UNL1        0.2382
      3 C          -0.5364    3.3946   24.6988 C.ar    1  UNL1        0.2144
      4 C          -1.3722    3.0016   25.8807 C.ar    1  UNL1        0.1823
      5 O          -2.8687    3.0198   25.7803 O.2     1  UNL1       -0.4500
      6 C          -3.5294    3.4310   24.4980 C.ar    1  UNL1        0.1545
      7 C          -5.0259    3.4492   24.3976 C.ar    1  UNL1        0.0744
      8 C          -5.6866    3.8603   23.1153 C.ar    1  UNL1        0.1397
      9 O          -7.1832    3.8785   23.0149 O.3     1  UNL1       -0.5053
     10 C          -4.8508    4.2533   21.9334 C.ar    1  UNL1        0.0735
     11 C          -3.3543    4.2351   22.0337 C.ar    1  UNL1        0.1428
     12 O          -2.5185    4.6281   20.8518 O.3     1  UNL1       -0.5052
     13 C          -2.6936    3.8240   23.3160 C.ar    1  UNL1        0.1104
     14 H          -7.7053    3.6331   23.7532 H       1  UNL1        0.2922
     15 H          -2.9313    4.8850   20.0508 H       1  UNL1        0.2922
     16 C          -0.7114    2.5904   27.1631 C.ar    1  UNL1        0.0409
     17 C           0.0424    3.6007   27.9759 C.ar    1  UNL1        0.0064
     18 C           0.7031    3.1895   29.2582 C.ar    1  UNL1        0.0399
     19 C           0.6101    1.7679   29.7276 C.ar    1  UNL1        0.1675
     20 O           1.2708    1.3567   31.0100 O.3     1  UNL1       -0.5029
     21 C          -0.1438    0.7575   28.9147 C.ar    1  UNL1        0.1676
     22 O          -0.2369   -0.6641   29.3841 O.3     1  UNL1       -0.5029
     23 C          -0.8045    1.1687   27.6325 C.ar    1  UNL1        0.0429
     24 H           1.7417    1.9879   31.5178 H       1  UNL1        0.2923
     25 H           0.1759   -0.9210   30.1852 H       1  UNL1        0.2923
     26 O           0.9602    3.3764   24.7992 O.3     1  UNL1       -0.4441
     27 C           1.7025    2.0764   24.7038 C.3     1  UNL1        0.3182
     28 O           2.2250    1.4182   25.9463 O.3     1  UNL1       -0.3160
     29 C           2.9674    0.1182   25.8509 C.3     1  UNL1        0.1772
     30 C           3.1871   -0.5235   24.5129 C.3     1  UNL1        0.1695
     31 O           3.9294   -1.8235   24.4175 O.3     1  UNL1       -0.3794
     32 C           2.6646    0.1347   23.2705 C.3     1  UNL1        0.1728
     33 O           2.8844   -0.5070   21.9327 O.3     1  UNL1       -0.3793
     34 C           1.9223    1.4347   23.3659 C.3     1  UNL1        0.2105
     35 O           1.3998    2.0929   22.1235 O.3     1  UNL1       -0.3766
     36 H           4.1960   -2.1095   25.3052 H       1  UNL1        0.2105
     37 H           3.3770   -1.3346   22.0481 H       1  UNL1        0.2105
     38 H           0.9485    2.9183   22.3602 H       1  UNL1        0.2107
     39 C           3.4899   -0.5400   27.0933 C.3     1  UNL1        0.1693
     40 O           3.3363   -2.0205   27.2790 O.3     1  UNL1       -0.3794
     41 H           2.3951   -2.2400   27.3626 H       1  UNL1        0.2105
@<TRIPOS>BOND
     1     1     2    2
     2     2     3   ar
     3     3    26    1
     4    27    26    1
     5    27    28    1
     6    28    29    1
     7    29    39    1
     8    39    40    1
     9    29    30    1
    10    30    31    1
    11    30    32    1
    12    32    33    1
    13    32    34    1
    14    34    35    1
    15     3     4   ar
    16     4    16    1
    17    16    17   ar
    18    17    18   ar
    19    18    19   ar
    20    19    20    1
    21    19    21   ar
    22    21    22    1
    23    21    23   ar
    24     4     5   ar
    25     5     6   ar
    26     6     7   ar
    27     7     8   ar
    28     8     9    1
    29     8    10   ar
    30    10    11   ar
    31    11    12    1
    32    11    13   ar
    33    13     2   ar
    34    34    27    1
    35    23    16   ar
    36    13     6   ar
    37    40    41    1
    38    31    36    1
    39    33    37    1
    40    35    38    1
    41    20    24    1
    42    22    25    1
    43     9    14    1
    44    12    15    1
