@<TRIPOS>MOLECULE
*****
 40 44 0 0 0
SMALL
GASTEIGER

@<TRIPOS>ATOM
      1 C           9.0964   -7.6714   23.7120 C.3     1  UNL1        0.0437
      2 C           8.6928   -6.5999   24.6811 C.3     1  UNL1        0.1368
      3 C           9.4468   -7.5132   25.6016 C.3     1  UNL1        0.0437
      4 C           8.5510   -5.8457   25.9699 C.3     1  UNL1        0.0643
      5 C           7.7954   -4.5503   26.0016 C.3     1  UNL1        0.1023
      6 C           7.1816   -4.0091   24.7445 C.ar    1  UNL1        0.0488
      7 C           6.4260   -2.7137   24.7762 C.ar    1  UNL1        0.0034
      8 C           5.8121   -2.1726   23.5192 C.ar    1  UNL1        0.0177
      9 C           5.9538   -2.9268   22.2303 C.ar    1  UNL1        0.0851
     10 N           6.7094   -4.2222   22.1986 N.ar    1  UNL1       -0.2119
     11 C           7.3233   -4.7634   23.4558 C.ar    1  UNL1        0.2219
     12 O           8.0789   -6.0588   23.4240 O.3     1  UNL1       -0.4676
     13 C           5.3399   -2.3856   20.9733 C.ar    1  UNL1        0.0284
     14 C           3.9378   -2.7655   20.5995 C.ar    1  UNL1        0.0032
     15 C           3.3239   -2.2243   19.3424 C.ar    1  UNL1        0.0115
     16 C           4.1121   -1.3033   18.4591 C.ar    1  UNL1        0.0585
     17 CL          3.4983   -0.7621   17.2020 Cl      1  UNL1       -0.0822
     18 C           5.5143   -0.9233   18.8328 C.ar    1  UNL1        0.0228
     19 C           6.1281   -1.4645   20.0899 C.ar    1  UNL1        0.0599
     20 CL          7.5303   -1.0846   20.4637 Cl      1  UNL1       -0.0822
     21 C           5.0565   -0.8771   23.5509 C.ar    1  UNL1        0.0015
     22 C           5.7793    0.4184   23.3288 C.ar    1  UNL1        0.0009
     23 C           5.0237    1.7138   23.3606 C.ar    1  UNL1        0.0114
     24 C           3.5453    1.7137   23.6144 C.ar    1  UNL1        0.0577
     25 CL          2.7897    3.0091   23.6461 Cl      1  UNL1       -0.0822
     26 C           2.8225    0.4182   23.8364 C.ar    1  UNL1        0.0114
     27 C           3.5781   -0.8772   23.8047 C.ar    1  UNL1        0.0009
     28 N           7.6537   -3.7960   27.2905 N.am    1  UNL1       -0.2984
     29 C           6.6872   -4.2705   28.3347 C.2     1  UNL1        0.2472
     30 O           5.8623   -5.4992   28.0902 O.2     1  UNL1       -0.2701
     31 H           8.1952   -2.9896   27.4509 H       1  UNL1        0.1500
     32 C           6.5455   -3.5163   29.6236 C.ar    1  UNL1        0.0662
     33 C           6.3339   -2.0314   29.6043 C.ar    1  UNL1        0.0057
     34 C           6.1922   -1.2771   30.8930 C.ar    1  UNL1        0.0002
     35 C           6.2621   -2.0078   32.2012 C.ar    1  UNL1        0.0013
     36 C           6.4737   -3.4927   32.2205 C.ar    1  UNL1        0.0142
     37 C           6.6154   -4.2469   30.9317 C.ar    1  UNL1        0.0459
     38 N           6.8269   -5.7318   30.9511 N.pl3   1  UNL1       -0.3569
     39 H           6.8728   -6.2113   31.8097 H       1  UNL1        0.1424
     40 H           6.9199   -6.2268   30.1052 H       1  UNL1        0.1424
@<TRIPOS>BOND
     1     1     2    1
     2     2     3    1
     3     2     4    1
     4     4     5    1
     5     5    28    1
     6    28    29   am
     7    29    30    2
     8    29    32    1
     9    32    33   ar
    10    33    34   ar
    11    34    35   ar
    12    35    36   ar
    13    36    37   ar
    14    37    38    1
    15     5     6    1
    16     6     7   ar
    17     7     8   ar
    18     8    21    1
    19    21    22   ar
    20    22    23   ar
    21    23    24   ar
    22    24    25    1
    23    24    26   ar
    24    26    27   ar
    25     8     9   ar
    26     9    13    1
    27    13    14   ar
    28    14    15   ar
    29    15    16   ar
    30    16    17    1
    31    16    18   ar
    32    18    19   ar
    33    19    20    1
    34     9    10   ar
    35    10    11   ar
    36    11    12    1
    37    12     2    1
    38    37    32   ar
    39    11     6   ar
    40    27    21   ar
    41    19    13   ar
    42    28    31    1
    43    38    39    1
    44    38    40    1
@<TRIPOS>MOLECULE
*****
 40 44 0 0 0
SMALL
GASTEIGER

@<TRIPOS>ATOM
      1 C           9.1362   -7.6807   23.4987 C.3     1  UNL1        0.0437
      2 C           8.3798   -6.8058   24.4539 C.3     1  UNL1        0.1368
      3 C           8.9217   -7.8271   25.4096 C.3     1  UNL1        0.0437
      4 C           7.8116   -6.2855   25.7409 C.3     1  UNL1        0.0643
      5 C           6.9641   -5.0478   25.7405 C.3     1  UNL1        0.1023
      6 C           6.6849   -4.3304   24.4532 C.ar    1  UNL1        0.0488
      7 C           5.8374   -3.0928   24.4528 C.ar    1  UNL1        0.0034
      8 C           5.5581   -2.3754   23.1655 C.ar    1  UNL1        0.0177
      9 C           6.1264   -2.8956   21.8784 C.ar    1  UNL1        0.0851
     10 N           6.9738   -4.1333   21.8787 N.ar    1  UNL1       -0.2119
     11 C           7.2531   -4.8507   23.1662 C.ar    1  UNL1        0.2219
     12 O           8.1005   -6.0884   23.1665 O.3     1  UNL1       -0.4676
     13 C           5.8471   -2.1783   20.5910 C.ar    1  UNL1        0.0284
     14 C           6.6477   -0.9654   20.2193 C.ar    1  UNL1        0.0032
     15 C           6.3684   -0.2481   18.9319 C.ar    1  UNL1        0.0115
     16 C           5.2885   -0.7435   18.0162 C.ar    1  UNL1        0.0585
     17 CL          5.0093   -0.0261   16.7289 Cl      1  UNL1       -0.0822
     18 C           4.4880   -1.9563   18.3879 C.ar    1  UNL1        0.0228
     19 C           4.7672   -2.6737   19.6753 C.ar    1  UNL1        0.0599
     20 CL          3.9666   -3.8865   20.0470 Cl      1  UNL1       -0.0822
     21 C           4.7107   -1.1377   23.1651 C.ar    1  UNL1        0.0015
     22 C           5.3106    0.1821   23.5502 C.ar    1  UNL1        0.0009
     23 C           4.4631    1.4198   23.5499 C.ar    1  UNL1        0.0114
     24 C           3.0158    1.3376   23.1644 C.ar    1  UNL1        0.0577
     25 CL          2.1683    2.5753   23.1640 Cl      1  UNL1       -0.0822
     26 C           2.4160    0.0179   22.7793 C.ar    1  UNL1        0.0114
     27 C           3.2634   -1.2198   22.7797 C.ar    1  UNL1        0.0009
     28 N           6.3959   -4.5275   27.0276 N.am    1  UNL1       -0.2984
     29 C           7.1130   -3.4471   27.7815 C.2     1  UNL1        0.2472
     30 O           8.3983   -2.8869   27.2484 O.2     1  UNL1       -0.2701
     31 H           5.5523   -4.8952   27.3775 H       1  UNL1        0.1500
     32 C           6.5448   -2.9269   29.0686 C.ar    1  UNL1        0.0662
     33 C           6.6961   -3.7226   30.3311 C.ar    1  UNL1        0.0057
     34 C           6.1279   -3.2024   31.6182 C.ar    1  UNL1        0.0002
     35 C           5.4084   -1.8865   31.6427 C.ar    1  UNL1        0.0013
     36 C           5.2571   -1.0908   30.3802 C.ar    1  UNL1        0.0142
     37 C           5.8253   -1.6110   29.0932 C.ar    1  UNL1        0.0459
     38 N           5.6739   -0.8152   27.8306 N.pl3   1  UNL1       -0.3569
     39 H           5.2017    0.0485   27.8468 H       1  UNL1        0.1424
     40 H           6.0469   -1.1567   26.9859 H       1  UNL1        0.1424
@<TRIPOS>BOND
     1     1     2    1
     2     2     3    1
     3     2     4    1
     4     4     5    1
     5     5    28    1
     6    28    29   am
     7    29    30    2
     8    29    32    1
     9    32    33   ar
    10    33    34   ar
    11    34    35   ar
    12    35    36   ar
    13    36    37   ar
    14    37    38    1
    15     5     6    1
    16     6     7   ar
    17     7     8   ar
    18     8    21    1
    19    21    22   ar
    20    22    23   ar
    21    23    24   ar
    22    24    25    1
    23    24    26   ar
    24    26    27   ar
    25     8     9   ar
    26     9    13    1
    27    13    14   ar
    28    14    15   ar
    29    15    16   ar
    30    16    17    1
    31    16    18   ar
    32    18    19   ar
    33    19    20    1
    34     9    10   ar
    35    10    11   ar
    36    11    12    1
    37    12     2    1
    38    37    32   ar
    39    11     6   ar
    40    27    21   ar
    41    19    13   ar
    42    28    31    1
    43    38    39    1
    44    38    40    1
@<TRIPOS>MOLECULE
*****
 40 44 0 0 0
SMALL
GASTEIGER

@<TRIPOS>ATOM
      1 C          -6.7482    5.4639   26.3015 C.3     1  UNL1        0.0437
      2 C          -5.8689    5.2880   25.0990 C.3     1  UNL1        0.1368
      3 C          -7.0464    5.9664   24.4638 C.3     1  UNL1        0.0437
      4 C          -5.3986    5.3477   23.6760 C.3     1  UNL1        0.0643
      5 C          -4.0562    4.7901   23.3057 C.3     1  UNL1        0.1023
      6 C          -3.1842    4.1727   24.3585 C.ar    1  UNL1        0.0488
      7 C          -1.8418    3.6151   23.9882 C.ar    1  UNL1        0.0034
      8 C          -0.9698    2.9978   25.0410 C.ar    1  UNL1        0.0177
      9 C          -1.4401    2.9380   26.4641 C.ar    1  UNL1        0.0851
     10 N          -2.7825    3.4957   26.8344 N.ar    1  UNL1       -0.2119
     11 C          -3.6545    4.1130   25.7815 C.ar    1  UNL1        0.2219
     12 O          -4.9969    4.6706   26.1518 O.3     1  UNL1       -0.4676
     13 C          -0.5681    2.3207   27.5169 C.ar    1  UNL1        0.0284
     14 C          -0.6917    0.8591   27.8309 C.ar    1  UNL1        0.0032
     15 C           0.1804    0.2418   28.8837 C.ar    1  UNL1        0.0115
     16 C           1.1761    1.0861   29.6226 C.ar    1  UNL1        0.0585
     17 CL          2.0481    0.4687   30.6753 Cl      1  UNL1       -0.0822
     18 C           1.2997    2.5476   29.3086 C.ar    1  UNL1        0.0228
     19 C           0.4276    3.1649   28.2558 C.ar    1  UNL1        0.0599
     20 CL          0.5512    4.6265   27.9419 Cl      1  UNL1       -0.0822
     21 C           0.3726    2.4401   24.6707 C.ar    1  UNL1        0.0015
     22 C           1.5760    3.3353   24.6470 C.ar    1  UNL1        0.0009
     23 C           2.9183    2.7777   24.2768 C.ar    1  UNL1        0.0114
     24 C           3.0573    1.3249   23.9301 C.ar    1  UNL1        0.0577
     25 CL          4.3997    0.7673   23.5598 Cl      1  UNL1       -0.0822
     26 C           1.8539    0.4298   23.9538 C.ar    1  UNL1        0.0114
     27 C           0.5115    0.9874   24.3240 C.ar    1  UNL1        0.0009
     28 N          -3.5859    4.8498   21.8825 N.am    1  UNL1       -0.2984
     29 C          -3.9099    3.7305   20.9379 C.2     1  UNL1        0.2472
     30 O          -4.7042    2.5515   21.4165 O.2     1  UNL1       -0.2701
     31 H          -3.0646    5.6236   21.5684 H       1  UNL1        0.1500
     32 C          -3.4396    3.7903   19.5148 C.ar    1  UNL1        0.0662
     33 C          -1.9859    4.0048   19.2137 C.ar    1  UNL1        0.0057
     34 C          -1.5155    4.0645   17.7906 C.ar    1  UNL1        0.0002
     35 C          -2.4989    3.9097   16.6686 C.ar    1  UNL1        0.0013
     36 C          -3.9527    3.6952   16.9697 C.ar    1  UNL1        0.0142
     37 C          -4.4230    3.6355   18.3928 C.ar    1  UNL1        0.0459
     38 N          -5.8767    3.4209   18.6939 N.pl3   1  UNL1       -0.3569
     39 H          -6.5222    3.3193   17.9574 H       1  UNL1        0.1424
     40 H          -6.1854    3.3817   19.6279 H       1  UNL1        0.1424
@<TRIPOS>BOND
     1     1     2    1
     2     2     3    1
     3     2     4    1
     4     4     5    1
     5     5    28    1
     6    28    29   am
     7    29    30    2
     8    29    32    1
     9    32    33   ar
    10    33    34   ar
    11    34    35   ar
    12    35    36   ar
    13    36    37   ar
    14    37    38    1
    15     5     6    1
    16     6     7   ar
    17     7     8   ar
    18     8    21    1
    19    21    22   ar
    20    22    23   ar
    21    23    24   ar
    22    24    25    1
    23    24    26   ar
    24    26    27   ar
    25     8     9   ar
    26     9    13    1
    27    13    14   ar
    28    14    15   ar
    29    15    16   ar
    30    16    17    1
    31    16    18   ar
    32    18    19   ar
    33    19    20    1
    34     9    10   ar
    35    10    11   ar
    36    11    12    1
    37    12     2    1
    38    37    32   ar
    39    11     6   ar
    40    27    21   ar
    41    19    13   ar
    42    28    31    1
    43    38    39    1
    44    38    40    1
@<TRIPOS>MOLECULE
*****
 40 44 0 0 0
SMALL
GASTEIGER

@<TRIPOS>ATOM
      1 C           9.4224   -7.1202   30.5324 C.3     1  UNL1        0.0437
      2 C           8.5449   -6.4189   29.5384 C.3     1  UNL1        0.1368
      3 C           9.0561   -7.5431   28.6870 C.3     1  UNL1        0.0437
      4 C           7.8449   -6.1080   28.2487 C.3     1  UNL1        0.0643
      5 C           6.9386   -4.9164   28.1556 C.3     1  UNL1        0.1023
      6 C           6.7322   -4.0357   29.3521 C.ar    1  UNL1        0.0488
      7 C           5.8258   -2.8442   29.2589 C.ar    1  UNL1        0.0034
      8 C           5.6194   -1.9635   30.4555 C.ar    1  UNL1        0.0177
      9 C           6.3194   -2.2743   31.7453 C.ar    1  UNL1        0.0851
     10 N           7.2258   -3.4659   31.8384 N.ar    1  UNL1       -0.2119
     11 C           7.4321   -4.3466   30.6418 C.ar    1  UNL1        0.2219
     12 O           8.3385   -5.5382   30.7349 O.3     1  UNL1       -0.4676
     13 C           6.1130   -1.3937   32.9418 C.ar    1  UNL1        0.0284
     14 C           7.0544   -0.2564   33.2073 C.ar    1  UNL1        0.0032
     15 C           6.8479    0.6243   34.4039 C.ar    1  UNL1        0.0115
     16 C           5.7002    0.3677   35.3350 C.ar    1  UNL1        0.0585
     17 CL          5.4938    1.2484   36.5315 Cl      1  UNL1       -0.0822
     18 C           4.7589   -0.7695   35.0694 C.ar    1  UNL1        0.0228
     19 C           4.9652   -1.6502   33.8729 C.ar    1  UNL1        0.0599
     20 CL          4.0239   -2.7875   33.6074 Cl      1  UNL1       -0.0822
     21 C           4.7130   -0.7719   30.3623 C.ar    1  UNL1        0.0015
     22 C           5.2658    0.5605   29.9508 C.ar    1  UNL1        0.0009
     23 C           4.3594    1.7520   29.8576 C.ar    1  UNL1        0.0114
     24 C           2.9003    1.6112   30.1761 C.ar    1  UNL1        0.0577
     25 CL          1.9939    2.8028   30.0829 Cl      1  UNL1       -0.0822
     26 C           2.3477    0.2789   30.5876 C.ar    1  UNL1        0.0114
     27 C           3.2540   -0.9127   30.6807 C.ar    1  UNL1        0.0009
     28 N           6.2386   -4.6056   26.8658 N.am    1  UNL1       -0.2984
     29 C           6.8614   -3.6581   25.8838 C.2     1  UNL1        0.2472
     30 O           8.1843   -3.0215   26.1915 O.2     1  UNL1       -0.2701
     31 H           5.3703   -5.0234   26.6638 H       1  UNL1        0.1500
     32 C           6.1614   -3.3473   24.5940 C.ar    1  UNL1        0.0662
     33 C           6.6357   -3.9698   23.3143 C.ar    1  UNL1        0.0057
     34 C           5.9358   -3.6589   22.0246 C.ar    1  UNL1        0.0002
     35 C           4.7616   -2.7257   22.0146 C.ar    1  UNL1        0.0013
     36 C           4.2873   -2.1032   23.2942 C.ar    1  UNL1        0.0142
     37 C           4.9872   -2.4140   24.5840 C.ar    1  UNL1        0.0459
     38 N           4.5129   -1.7915   25.8636 N.pl3   1  UNL1       -0.3569
     39 H           3.7423   -1.1789   25.8570 H       1  UNL1        0.1424
     40 H           4.9724   -1.9955   26.7101 H       1  UNL1        0.1424
@<TRIPOS>BOND
     1     1     2    1
     2     2     3    1
     3     2     4    1
     4     4     5    1
     5     5    28    1
     6    28    29   am
     7    29    30    2
     8    29    32    1
     9    32    33   ar
    10    33    34   ar
    11    34    35   ar
    12    35    36   ar
    13    36    37   ar
    14    37    38    1
    15     5     6    1
    16     6     7   ar
    17     7     8   ar
    18     8    21    1
    19    21    22   ar
    20    22    23   ar
    21    23    24   ar
    22    24    25    1
    23    24    26   ar
    24    26    27   ar
    25     8     9   ar
    26     9    13    1
    27    13    14   ar
    28    14    15   ar
    29    15    16   ar
    30    16    17    1
    31    16    18   ar
    32    18    19   ar
    33    19    20    1
    34     9    10   ar
    35    10    11   ar
    36    11    12    1
    37    12     2    1
    38    37    32   ar
    39    11     6   ar
    40    27    21   ar
    41    19    13   ar
    42    28    31    1
    43    38    39    1
    44    38    40    1
@<TRIPOS>MOLECULE
*****
 40 44 0 0 0
SMALL
GASTEIGER

@<TRIPOS>ATOM
      1 C          -3.0236    4.4340   15.9976 C.3     1  UNL1        0.0437
      2 C          -2.9059    4.4364   17.4930 C.3     1  UNL1        0.1368
      3 C          -4.2130    5.1548   17.3335 C.3     1  UNL1        0.0437
      4 C          -3.2420    4.6883   18.9330 C.3     1  UNL1        0.0643
      5 C          -2.3120    4.2211   20.0131 C.3     1  UNL1        0.1023
      6 C          -1.0458    3.5019   19.6533 C.ar    1  UNL1        0.0488
      7 C          -0.1158    3.0347   20.7335 C.ar    1  UNL1        0.0034
      8 C           1.1504    2.3155   20.3737 C.ar    1  UNL1        0.0177
      9 C           1.4867    2.0636   18.9336 C.ar    1  UNL1        0.0851
     10 N           0.5566    2.5308   17.8535 N.ar    1  UNL1       -0.2119
     11 C          -0.7096    3.2500   18.2134 C.ar    1  UNL1        0.2219
     12 O          -1.6397    3.7173   17.1332 O.3     1  UNL1       -0.4676
     13 C           2.7529    1.3444   18.5738 C.ar    1  UNL1        0.0284
     14 C           2.7586   -0.1510   18.4563 C.ar    1  UNL1        0.0032
     15 C           4.0249   -0.8701   18.0964 C.ar    1  UNL1        0.0115
     16 C           5.2854   -0.0939   17.8542 C.ar    1  UNL1        0.0585
     17 CL          6.5515   -0.8131   17.4944 Cl      1  UNL1       -0.0822
     18 C           5.2796    1.4015   17.9718 C.ar    1  UNL1        0.0228
     19 C           4.0134    2.1206   18.3316 C.ar    1  UNL1        0.0599
     20 CL          4.0077    3.6160   18.4492 Cl      1  UNL1       -0.0822
     21 C           2.0805    1.8483   21.4538 C.ar    1  UNL1        0.0015
     22 C           1.9175    0.4785   22.0431 C.ar    1  UNL1        0.0009
     23 C           2.8476    0.0112   23.1232 C.ar    1  UNL1        0.0114
     24 C           3.9406    0.9138   23.6141 C.ar    1  UNL1        0.0577
     25 CL          4.8706    0.4465   24.6942 Cl      1  UNL1       -0.0822
     26 C           4.1035    2.2835   23.0248 C.ar    1  UNL1        0.0114
     27 C           3.1734    2.7507   21.9447 C.ar    1  UNL1        0.0009
     28 N          -2.6482    4.4730   21.4531 N.am    1  UNL1       -0.2984
     29 C          -3.6463    3.5999   22.1541 C.2     1  UNL1        0.2472
     30 O          -4.3082    2.4748   21.4152 O.2     1  UNL1       -0.2701
     31 H          -2.2138    5.2115   21.9381 H       1  UNL1        0.1500
     32 C          -3.9825    3.8519   23.5941 C.ar    1  UNL1        0.0662
     33 C          -2.8876    3.9398   24.6156 C.ar    1  UNL1        0.0057
     34 C          -3.2238    4.1917   26.0556 C.ar    1  UNL1        0.0002
     35 C          -4.6548    4.3557   26.4740 C.ar    1  UNL1        0.0013
     36 C          -5.7497    4.2678   25.4525 C.ar    1  UNL1        0.0142
     37 C          -5.4136    4.0159   24.0126 C.ar    1  UNL1        0.0459
     38 N          -6.5085    3.9279   22.9911 N.pl3   1  UNL1       -0.3569
     39 H          -7.4477    4.0356   23.2657 H       1  UNL1        0.1424
     40 H          -6.2878    3.7626   22.0460 H       1  UNL1        0.1424
@<TRIPOS>BOND
     1     1     2    1
     2     2     3    1
     3     2     4    1
     4     4     5    1
     5     5    28    1
     6    28    29   am
     7    29    30    2
     8    29    32    1
     9    32    33   ar
    10    33    34   ar
    11    34    35   ar
    12    35    36   ar
    13    36    37   ar
    14    37    38    1
    15     5     6    1
    16     6     7   ar
    17     7     8   ar
    18     8    21    1
    19    21    22   ar
    20    22    23   ar
    21    23    24   ar
    22    24    25    1
    23    24    26   ar
    24    26    27   ar
    25     8     9   ar
    26     9    13    1
    27    13    14   ar
    28    14    15   ar
    29    15    16   ar
    30    16    17    1
    31    16    18   ar
    32    18    19   ar
    33    19    20    1
    34     9    10   ar
    35    10    11   ar
    36    11    12    1
    37    12     2    1
    38    37    32   ar
    39    11     6   ar
    40    27    21   ar
    41    19    13   ar
    42    28    31    1
    43    38    39    1
    44    38    40    1
@<TRIPOS>MOLECULE
*****
 40 44 0 0 0
SMALL
GASTEIGER

@<TRIPOS>ATOM
      1 C           3.9802   -1.6364   22.5577 C.3     1  UNL1        0.0437
      2 C           2.8173   -0.8042   22.1048 C.3     1  UNL1        0.1368
      3 C           3.1925   -1.4558   20.8068 C.3     1  UNL1        0.0437
      4 C           1.7848   -0.1983   21.2011 C.3     1  UNL1        0.0643
      5 C           0.7809    0.7702   21.7527 C.3     1  UNL1        0.1023
      6 C           0.8095    1.1328   23.2079 C.ar    1  UNL1        0.0488
      7 C          -0.1943    2.1014   23.7594 C.ar    1  UNL1        0.0034
      8 C          -0.1657    2.4639   25.2146 C.ar    1  UNL1        0.0177
      9 C           0.8669    1.8580   26.1184 C.ar    1  UNL1        0.0851
     10 N           1.8708    0.8895   25.5668 N.ar    1  UNL1       -0.2119
     11 C           1.8421    0.5269   24.1115 C.ar    1  UNL1        0.2219
     12 O           2.8460   -0.4416   23.5600 O.3     1  UNL1       -0.4676
     13 C           0.8956    2.2206   27.5736 C.ar    1  UNL1        0.0284
     14 C           1.6872    3.4081   28.0352 C.ar    1  UNL1        0.0032
     15 C           1.7159    3.7707   29.4904 C.ar    1  UNL1        0.0115
     16 C           0.9529    2.9458   30.4840 C.ar    1  UNL1        0.0585
     17 CL          0.9815    3.3084   31.9392 Cl      1  UNL1       -0.0822
     18 C           0.1612    1.7583   30.0224 C.ar    1  UNL1        0.0228
     19 C           0.1326    1.3957   28.5672 C.ar    1  UNL1        0.0599
     20 CL         -0.6591    0.2081   28.1056 Cl      1  UNL1       -0.0822
     21 C          -1.1696    3.4325   25.7661 C.ar    1  UNL1        0.0015
     22 C          -0.8634    4.9008   25.7846 C.ar    1  UNL1        0.0009
     23 C          -1.8673    5.8693   26.3361 C.ar    1  UNL1        0.0114
     24 C          -3.1773    5.3695   26.8692 C.ar    1  UNL1        0.0577
     25 CL         -4.1812    6.3380   27.4208 Cl      1  UNL1       -0.0822
     26 C          -3.4834    3.9012   26.8507 C.ar    1  UNL1        0.0114
     27 C          -2.4795    2.9327   26.2992 C.ar    1  UNL1        0.0009
     28 N          -0.2517    1.3762   20.8489 N.am    1  UNL1       -0.2984
     29 C          -0.0315    2.7413   20.2677 C.2     1  UNL1        0.2472
     30 O           1.2213    3.5006   20.5902 O.2     1  UNL1       -0.2701
     31 H          -1.0740    0.8778   20.6372 H       1  UNL1        0.1500
     32 C          -1.0641    3.3472   19.3640 C.ar    1  UNL1        0.0662
     33 C          -0.7037    3.7176   17.9558 C.ar    1  UNL1        0.0057
     34 C          -1.7362    4.3235   17.0521 C.ar    1  UNL1        0.0002
     35 C          -3.1291    4.5590   17.5565 C.ar    1  UNL1        0.0013
     36 C          -3.4894    4.1886   18.9647 C.ar    1  UNL1        0.0142
     37 C          -2.4569    3.5827   19.8684 C.ar    1  UNL1        0.0459
     38 N          -2.8172    3.2123   21.2766 N.pl3   1  UNL1       -0.3569
     39 H          -3.7314    3.3669   21.6077 H       1  UNL1        0.1424
     40 H          -2.1396    2.8147   21.8698 H       1  UNL1        0.1424
@<TRIPOS>BOND
     1     1     2    1
     2     2     3    1
     3     2     4    1
     4     4     5    1
     5     5    28    1
     6    28    29   am
     7    29    30    2
     8    29    32    1
     9    32    33   ar
    10    33    34   ar
    11    34    35   ar
    12    35    36   ar
    13    36    37   ar
    14    37    38    1
    15     5     6    1
    16     6     7   ar
    17     7     8   ar
    18     8    21    1
    19    21    22   ar
    20    22    23   ar
    21    23    24   ar
    22    24    25    1
    23    24    26   ar
    24    26    27   ar
    25     8     9   ar
    26     9    13    1
    27    13    14   ar
    28    14    15   ar
    29    15    16   ar
    30    16    17    1
    31    16    18   ar
    32    18    19   ar
    33    19    20    1
    34     9    10   ar
    35    10    11   ar
    36    11    12    1
    37    12     2    1
    38    37    32   ar
    39    11     6   ar
    40    27    21   ar
    41    19    13   ar
    42    28    31    1
    43    38    39    1
    44    38    40    1
@<TRIPOS>MOLECULE
*****
 40 44 0 0 0
SMALL
GASTEIGER

@<TRIPOS>ATOM
      1 C           3.2653   -0.1794   19.7035 C.3     1  UNL1        0.0437
      2 C           3.7282   -1.0999   20.7938 C.3     1  UNL1        0.1368
      3 C           4.1086   -1.9099   19.5900 C.3     1  UNL1        0.0437
      4 C           4.3231   -2.3016   21.4659 C.3     1  UNL1        0.0643
      5 C           4.3769   -2.3737   22.9632 C.3     1  UNL1        0.1023
      6 C           3.8358   -1.2440   23.7884 C.ar    1  UNL1        0.0488
      7 C           3.8896   -1.3161   25.2857 C.ar    1  UNL1        0.0034
      8 C           3.3484   -0.1864   26.1108 C.ar    1  UNL1        0.0177
      9 C           2.7534    1.0154   25.4387 C.ar    1  UNL1        0.0851
     10 N           2.6996    1.0875   23.9414 N.ar    1  UNL1       -0.2119
     11 C           3.2408   -0.0423   23.1162 C.ar    1  UNL1        0.2219
     12 O           3.1870    0.0298   21.6189 O.3     1  UNL1       -0.4676
     13 C           2.2123    2.1451   26.2639 C.ar    1  UNL1        0.0284
     14 C           3.1441    3.1795   26.8222 C.ar    1  UNL1        0.0032
     15 C           2.6028    4.3092   27.6474 C.ar    1  UNL1        0.0115
     16 C           1.1299    4.4045   27.9143 C.ar    1  UNL1        0.0585
     17 CL          0.5887    5.5342   28.7394 Cl      1  UNL1       -0.0822
     18 C           0.1981    3.3701   27.3560 C.ar    1  UNL1        0.0228
     19 C           0.7392    2.2404   26.5308 C.ar    1  UNL1        0.0599
     20 CL         -0.1926    1.2060   25.9725 Cl      1  UNL1       -0.0822
     21 C           3.4022   -0.2585   27.6081 C.ar    1  UNL1        0.0015
     22 C           2.1486   -0.5105   28.3924 C.ar    1  UNL1        0.0009
     23 C           2.2024   -0.5826   29.8897 C.ar    1  UNL1        0.0114
     24 C           3.5098   -0.4026   30.6028 C.ar    1  UNL1        0.0577
     25 CL          3.5636   -0.4746   32.1001 Cl      1  UNL1       -0.0822
     26 C           4.7633   -0.1505   29.8185 C.ar    1  UNL1        0.0114
     27 C           4.7095   -0.0785   28.3212 C.ar    1  UNL1        0.0009
     28 N           4.9719   -3.5755   23.6353 N.am    1  UNL1       -0.2984
     29 C           6.4408   -3.6160   23.9365 C.2     1  UNL1        0.2472
     30 O           7.3147   -2.4547   23.5656 O.2     1  UNL1       -0.2701
     31 H           4.3983   -4.3377   23.8788 H       1  UNL1        0.1500
     32 C           7.0358   -4.8178   24.6086 C.ar    1  UNL1        0.0662
     33 C           7.7880   -5.8334   23.8006 C.ar    1  UNL1        0.0057
     34 C           8.3829   -7.0351   24.4727 C.ar    1  UNL1        0.0002
     35 C           8.2258   -7.2213   25.9527 C.ar    1  UNL1        0.0013
     36 C           7.4736   -6.2058   26.7607 C.ar    1  UNL1        0.0142
     37 C           6.8786   -5.0040   26.0887 C.ar    1  UNL1        0.0459
     38 N           6.1264   -3.9884   26.8967 N.pl3   1  UNL1       -0.3569
     39 H           6.0233   -4.1106   27.8681 H       1  UNL1        0.1424
     40 H           5.7359   -3.1996   26.4556 H       1  UNL1        0.1424
@<TRIPOS>BOND
     1     1     2    1
     2     2     3    1
     3     2     4    1
     4     4     5    1
     5     5    28    1
     6    28    29   am
     7    29    30    2
     8    29    32    1
     9    32    33   ar
    10    33    34   ar
    11    34    35   ar
    12    35    36   ar
    13    36    37   ar
    14    37    38    1
    15     5     6    1
    16     6     7   ar
    17     7     8   ar
    18     8    21    1
    19    21    22   ar
    20    22    23   ar
    21    23    24   ar
    22    24    25    1
    23    24    26   ar
    24    26    27   ar
    25     8     9   ar
    26     9    13    1
    27    13    14   ar
    28    14    15   ar
    29    15    16   ar
    30    16    17    1
    31    16    18   ar
    32    18    19   ar
    33    19    20    1
    34     9    10   ar
    35    10    11   ar
    36    11    12    1
    37    12     2    1
    38    37    32   ar
    39    11     6   ar
    40    27    21   ar
    41    19    13   ar
    42    28    31    1
    43    38    39    1
    44    38    40    1
@<TRIPOS>MOLECULE
*****
 40 44 0 0 0
SMALL
GASTEIGER

@<TRIPOS>ATOM
      1 C          -2.0043    4.8510   17.8411 C.3     1  UNL1        0.0437
      2 C          -1.0527    3.9846   18.6117 C.3     1  UNL1        0.1368
      3 C          -0.6169    3.6689   17.2115 C.3     1  UNL1        0.0437
      4 C           0.0503    3.0086   18.8960 C.3     1  UNL1        0.0643
      5 C           0.3869    2.6492   20.3129 C.3     1  UNL1        0.1023
      6 C          -0.3793    3.2658   21.4454 C.ar    1  UNL1        0.0488
      7 C          -0.0427    2.9064   22.8623 C.ar    1  UNL1        0.0034
      8 C          -0.8089    3.5230   23.9947 C.ar    1  UNL1        0.0177
      9 C          -1.9119    4.4991   23.7104 C.ar    1  UNL1        0.0851
     10 N          -2.2486    4.8585   22.2936 N.ar    1  UNL1       -0.2119
     11 C          -1.4823    4.2418   21.1610 C.ar    1  UNL1        0.2219
     12 O          -1.8189    4.6012   19.7442 O.3     1  UNL1       -0.4676
     13 C          -2.6782    5.1157   24.8429 C.ar    1  UNL1        0.0284
     14 C          -2.1492    6.3414   25.5269 C.ar    1  UNL1        0.0032
     15 C          -2.9155    6.9580   26.6594 C.ar    1  UNL1        0.0115
     16 C          -4.2108    6.3489   27.1080 C.ar    1  UNL1        0.0585
     17 CL         -4.9770    6.9655   28.2405 Cl      1  UNL1       -0.0822
     18 C          -4.7398    5.1232   26.4240 C.ar    1  UNL1        0.0228
     19 C          -3.9735    4.5066   25.2915 C.ar    1  UNL1        0.0599
     20 CL         -4.5025    3.2809   24.6076 Cl      1  UNL1       -0.0822
     21 C          -0.4723    3.1636   25.4116 C.ar    1  UNL1        0.0015
     22 C          -1.2381    2.0811   26.1130 C.ar    1  UNL1        0.0009
     23 C          -0.9014    1.7217   27.5298 C.ar    1  UNL1        0.0114
     24 C           0.2011    2.4448   28.2453 C.ar    1  UNL1        0.0577
     25 CL          0.5377    2.0853   29.6622 Cl      1  UNL1       -0.0822
     26 C           0.9668    3.5272   27.5439 C.ar    1  UNL1        0.0114
     27 C           0.6301    3.8866   26.1271 C.ar    1  UNL1        0.0009
     28 N           1.4899    1.6731   20.5972 N.am    1  UNL1       -0.2984
     29 C           1.1897    0.2060   20.6821 C.2     1  UNL1        0.2472
     30 O          -0.2135   -0.2852   20.4827 O.2     1  UNL1       -0.2701
     31 H           2.4109    1.9955   20.7281 H       1  UNL1        0.1500
     32 C           2.2927   -0.7701   20.9664 C.ar    1  UNL1        0.0662
     33 C           2.8116   -1.6550   19.8721 C.ar    1  UNL1        0.0057
     34 C           3.9145   -2.6311   20.1564 C.ar    1  UNL1        0.0002
     35 C           4.4985   -2.7222   21.5350 C.ar    1  UNL1        0.0013
     36 C           3.9796   -1.8373   22.6293 C.ar    1  UNL1        0.0142
     37 C           2.8766   -0.8612   22.3451 C.ar    1  UNL1        0.0459
     38 N           2.3577    0.0237   23.4394 N.pl3   1  UNL1       -0.3569
     39 H           2.7410   -0.0361   24.3442 H       1  UNL1        0.1424
     40 H           1.6338    0.6643   23.2528 H       1  UNL1        0.1424
@<TRIPOS>BOND
     1     1     2    1
     2     2     3    1
     3     2     4    1
     4     4     5    1
     5     5    28    1
     6    28    29   am
     7    29    30    2
     8    29    32    1
     9    32    33   ar
    10    33    34   ar
    11    34    35   ar
    12    35    36   ar
    13    36    37   ar
    14    37    38    1
    15     5     6    1
    16     6     7   ar
    17     7     8   ar
    18     8    21    1
    19    21    22   ar
    20    22    23   ar
    21    23    24   ar
    22    24    25    1
    23    24    26   ar
    24    26    27   ar
    25     8     9   ar
    26     9    13    1
    27    13    14   ar
    28    14    15   ar
    29    15    16   ar
    30    16    17    1
    31    16    18   ar
    32    18    19   ar
    33    19    20    1
    34     9    10   ar
    35    10    11   ar
    36    11    12    1
    37    12     2    1
    38    37    32   ar
    39    11     6   ar
    40    27    21   ar
    41    19    13   ar
    42    28    31    1
    43    38    39    1
    44    38    40    1
@<TRIPOS>MOLECULE
*****
 40 44 0 0 0
SMALL
GASTEIGER

@<TRIPOS>ATOM
      1 C           1.2243    1.4347   28.9620 C.3     1  UNL1        0.0437
      2 C           2.1523    0.3877   28.4211 C.3     1  UNL1        0.1368
      3 C           2.2627    0.1003   29.8892 C.3     1  UNL1        0.0437
      4 C           3.1187   -0.7591   28.3901 C.3     1  UNL1        0.0643
      5 C           3.6524   -1.2549   27.0789 C.3     1  UNL1        0.1023
      6 C           3.2197   -0.6040   25.7987 C.ar    1  UNL1        0.0488
      7 C           3.7534   -1.0998   24.4874 C.ar    1  UNL1        0.0034
      8 C           3.3207   -0.4489   23.2072 C.ar    1  UNL1        0.0177
      9 C           2.3543    0.6980   23.2382 C.ar    1  UNL1        0.0851
     10 N           1.8206    1.1938   24.5494 N.ar    1  UNL1       -0.2119
     11 C           2.2533    0.5428   25.8297 C.ar    1  UNL1        0.2219
     12 O           1.7196    1.0386   27.1409 O.3     1  UNL1       -0.4676
     13 C           1.9216    1.3489   21.9579 C.ar    1  UNL1        0.0284
     14 C           0.6740    0.8861   21.2655 C.ar    1  UNL1        0.0032
     15 C           0.2414    1.5371   19.9852 C.ar    1  UNL1        0.0115
     16 C           1.0562    2.6508   19.3974 C.ar    1  UNL1        0.0585
     17 CL          0.6236    3.3018   18.1172 Cl      1  UNL1       -0.0822
     18 C           2.3038    3.1136   20.0898 C.ar    1  UNL1        0.0228
     19 C           2.7365    2.4627   21.3700 C.ar    1  UNL1        0.0599
     20 CL          3.9841    2.9254   22.0624 Cl      1  UNL1       -0.0822
     21 C           3.8544   -0.9447   21.8960 C.ar    1  UNL1        0.0015
     22 C           5.1938   -0.4788   21.4070 C.ar    1  UNL1        0.0009
     23 C           5.7275   -0.9746   20.0957 C.ar    1  UNL1        0.0114
     24 C           4.9218   -1.9364   19.2735 C.ar    1  UNL1        0.0577
     25 CL          5.4554   -2.4322   17.9623 Cl      1  UNL1       -0.0822
     26 C           3.5824   -2.4022   19.7625 C.ar    1  UNL1        0.0114
     27 C           3.0488   -1.9064   21.0737 C.ar    1  UNL1        0.0009
     28 N           4.6188   -2.4017   27.0479 N.am    1  UNL1       -0.2984
     29 C           6.0946   -2.1378   27.0020 C.2     1  UNL1        0.2472
     30 O           6.6042   -0.7271   26.9869 O.2     1  UNL1       -0.2701
     31 H           4.2844   -3.3277   27.0578 H       1  UNL1        0.1500
     32 C           7.0611   -3.2847   26.9710 C.ar    1  UNL1        0.0662
     33 C           6.9684   -4.3144   25.8842 C.ar    1  UNL1        0.0057
     34 C           7.9347   -5.4612   25.8532 C.ar    1  UNL1        0.0002
     35 C           8.9938   -5.5782   26.9090 C.ar    1  UNL1        0.0013
     36 C           9.0865   -4.5485   27.9957 C.ar    1  UNL1        0.0142
     37 C           8.1201   -3.4017   28.0267 C.ar    1  UNL1        0.0459
     38 N           8.2128   -2.3719   29.1135 N.pl3   1  UNL1       -0.3569
     39 H           8.9080   -2.4488   29.8064 H       1  UNL1        0.1424
     40 H           7.5786   -1.6192   29.1338 H       1  UNL1        0.1424
@<TRIPOS>BOND
     1     1     2    1
     2     2     3    1
     3     2     4    1
     4     4     5    1
     5     5    28    1
     6    28    29   am
     7    29    30    2
     8    29    32    1
     9    32    33   ar
    10    33    34   ar
    11    34    35   ar
    12    35    36   ar
    13    36    37   ar
    14    37    38    1
    15     5     6    1
    16     6     7   ar
    17     7     8   ar
    18     8    21    1
    19    21    22   ar
    20    22    23   ar
    21    23    24   ar
    22    24    25    1
    23    24    26   ar
    24    26    27   ar
    25     8     9   ar
    26     9    13    1
    27    13    14   ar
    28    14    15   ar
    29    15    16   ar
    30    16    17    1
    31    16    18   ar
    32    18    19   ar
    33    19    20    1
    34     9    10   ar
    35    10    11   ar
    36    11    12    1
    37    12     2    1
    38    37    32   ar
    39    11     6   ar
    40    27    21   ar
    41    19    13   ar
    42    28    31    1
    43    38    39    1
    44    38    40    1
