@<TRIPOS>MOLECULE
*****
 28 32 0 0 0
SMALL
GASTEIGER

@<TRIPOS>ATOM
      1 C           1.0483    5.2330   36.6911 C.3     1  UNL1        0.0902
      2 N           1.7729    4.0842   36.0545 N.3     1  UNL1       -0.2612
      3 C           1.4917    3.8642   34.5977 C.3     1  UNL1        0.1010
      4 C           2.0510    2.8130   33.6854 C.ar    1  UNL1        0.0109
      5 C           1.5052    2.9475   32.2947 C.ar    1  UNL1        0.0099
      6 C           1.9382    1.9911   31.2234 C.ar    1  UNL1        0.0575
      7 CL          1.3924    2.1255   29.8327 Cl      1  UNL1       -0.0823
      8 C           2.9169    0.9002   31.5428 C.ar    1  UNL1        0.0129
      9 C           3.4626    0.7657   32.9335 C.ar    1  UNL1        0.0182
     10 C           3.0297    1.7221   34.0048 C.ar    1  UNL1        0.0636
     11 N           3.6908    1.4130   35.3153 N.ar    1  UNL1       -0.2799
     12 C           3.5365    2.1184   36.6301 C.ar    1  UNL1        0.1632
     13 N           4.4101    1.4253   37.6332 N.ar    1  UNL1       -0.1319
     14 N           5.1042    0.2915   36.9385 N.ar    1  UNL1       -0.1333
     15 C           4.6597    0.2839   35.5059 C.ar    1  UNL1        0.1465
     16 C           2.6830    3.3072   36.9590 C.3     1  UNL1        0.1396
     17 C           5.1058   -0.6830   34.4495 C.3     1  UNL1        0.0625
     18 C           4.2400   -1.8543   34.0910 C.3     1  UNL1        0.0291
     19 C           4.6861   -2.8212   33.0346 C.3     1  UNL1        0.0926
     20 N           5.9980   -2.6169   32.3366 N.pl3   1  UNL1       -0.2932
     21 C           6.8638   -1.4456   32.6951 C.3     1  UNL1        0.0926
     22 C           6.4177   -0.4787   33.7515 C.3     1  UNL1        0.0291
     23 C           6.4441   -3.5838   31.2801 C.ar    1  UNL1        0.1317
     24 C           6.9258   -4.9500   31.6692 C.ar    1  UNL1        0.0343
     25 C           7.3719   -5.9170   30.6127 C.ar    1  UNL1        0.0045
     26 C           7.3363   -5.5176   29.1673 C.ar    1  UNL1        0.0208
     27 C           6.8546   -4.1513   28.7783 C.ar    1  UNL1        0.1003
     28 N           6.4085   -3.1844   29.8347 N.ar    1  UNL1       -0.2292
@<TRIPOS>BOND
     1     1     2    1
     2     2     3    1
     3     3     4    1
     4     4     5   ar
     5     5     6   ar
     6     6     7    1
     7     6     8   ar
     8     8     9   ar
     9     9    10   ar
    10    10    11    1
    11    11    12   ar
    12    12    13   ar
    13    13    14   ar
    14    14    15   ar
    15    15    17    1
    16    17    18    1
    17    18    19    1
    18    19    20    1
    19    20    23    1
    20    23    24   ar
    21    24    25   ar
    22    25    26   ar
    23    26    27   ar
    24    27    28   ar
    25    20    21    1
    26    21    22    1
    27    12    16    1
    28    16     2    1
    29    10     4   ar
    30    15    11   ar
    31    22    17    1
    32    28    23   ar
@<TRIPOS>MOLECULE
*****
 28 32 0 0 0
SMALL
GASTEIGER

@<TRIPOS>ATOM
      1 C           1.8068   -0.2583   29.4506 C.3     1  UNL1        0.0902
      2 N           2.2533    0.1679   30.8177 N.3     1  UNL1       -0.2612
      3 C           1.6458    1.4384   31.3342 C.3     1  UNL1        0.1010
      4 C           1.8832    2.1222   32.6480 C.ar    1  UNL1        0.0109
      5 C           1.0704    3.3771   32.7675 C.ar    1  UNL1        0.0099
      6 C           1.1612    4.2141   34.0090 C.ar    1  UNL1        0.0575
      7 CL          0.3483    5.4691   34.1285 Cl      1  UNL1       -0.0823
      8 C           2.0648    3.7960   35.1309 C.ar    1  UNL1        0.0129
      9 C           2.8776    2.5411   35.0114 C.ar    1  UNL1        0.0182
     10 C           2.7868    1.7041   33.7700 C.ar    1  UNL1        0.0636
     11 N           3.6761    0.4992   33.8551 N.ar    1  UNL1       -0.2799
     12 C           3.8815   -0.5854   32.8394 C.ar    1  UNL1        0.1632
     13 N           4.8710   -1.5637   33.3995 N.ar    1  UNL1       -0.1319
     14 N           5.2771   -1.0838   34.7614 N.ar    1  UNL1       -0.1333
     15 C           4.5387    0.1911   35.0430 C.ar    1  UNL1        0.1465
     16 C           3.2483   -0.7327   31.4876 C.3     1  UNL1        0.1396
     17 C           4.6443    1.0135   36.2930 C.3     1  UNL1        0.0625
     18 C           3.7367    0.7335   37.4540 C.3     1  UNL1        0.0291
     19 C           3.8422    1.5559   38.7039 C.3     1  UNL1        0.0926
     20 N           4.8554    2.6583   38.7930 N.pl3   1  UNL1       -0.2932
     21 C           5.7630    2.9384   37.6321 C.3     1  UNL1        0.0926
     22 C           5.6575    2.1160   36.3820 C.3     1  UNL1        0.0291
     23 C           4.9610    3.4808   40.0430 C.ar    1  UNL1        0.1317
     24 C           4.0479    4.6529   40.2489 C.ar    1  UNL1        0.0343
     25 C           4.1535    5.4754   41.4989 C.ar    1  UNL1        0.0045
     26 C           5.1721    5.1257   42.5429 C.ar    1  UNL1        0.0208
     27 C           6.0853    3.9536   42.3370 C.ar    1  UNL1        0.1003
     28 N           5.9797    3.1311   41.0870 N.ar    1  UNL1       -0.2292
@<TRIPOS>BOND
     1     1     2    1
     2     2     3    1
     3     3     4    1
     4     4     5   ar
     5     5     6   ar
     6     6     7    1
     7     6     8   ar
     8     8     9   ar
     9     9    10   ar
    10    10    11    1
    11    11    12   ar
    12    12    13   ar
    13    13    14   ar
    14    14    15   ar
    15    15    17    1
    16    17    18    1
    17    18    19    1
    18    19    20    1
    19    20    23    1
    20    23    24   ar
    21    24    25   ar
    22    25    26   ar
    23    26    27   ar
    24    27    28   ar
    25    20    21    1
    26    21    22    1
    27    12    16    1
    28    16     2    1
    29    10     4   ar
    30    15    11   ar
    31    22    17    1
    32    28    23   ar
@<TRIPOS>MOLECULE
*****
 28 32 0 0 0
SMALL
GASTEIGER

@<TRIPOS>ATOM
      1 C           8.0855   -4.7741   21.0536 C.3     1  UNL1        0.0902
      2 N           6.9581   -3.7869   20.9876 N.3     1  UNL1       -0.2612
      3 C           6.3758   -3.3746   22.3070 C.3     1  UNL1        0.1010
      4 C           5.2537   -2.4162   22.5757 C.ar    1  UNL1        0.0109
      5 C           4.9836   -2.2867   24.0454 C.ar    1  UNL1        0.0099
      6 C           3.8964   -1.3743   24.5306 C.ar    1  UNL1        0.0575
      7 CL          3.6262   -1.2447   26.0004 Cl      1  UNL1       -0.0823
      8 C           3.0793   -0.5914   23.5460 C.ar    1  UNL1        0.0129
      9 C           3.3494   -0.7209   22.0763 C.ar    1  UNL1        0.0182
     10 C           4.4366   -1.6333   21.5911 C.ar    1  UNL1        0.0636
     11 N           4.5399   -1.6155   20.0947 N.ar    1  UNL1       -0.2799
     12 C           5.4857   -2.3761   19.2133 C.ar    1  UNL1        0.1632
     13 N           5.1862   -2.0126   17.7893 N.ar    1  UNL1       -0.1319
     14 N           4.0552   -1.0273   17.7905 N.ar    1  UNL1       -0.1333
     15 C           3.6557   -0.7818   19.2153 C.ar    1  UNL1        0.1465
     16 C           6.5619   -3.3425   19.6107 C.3     1  UNL1        0.1396
     17 C           2.5640    0.1361   19.6792 C.3     1  UNL1        0.0625
     18 C           2.8559    1.5877   19.9194 C.3     1  UNL1        0.0291
     19 C           1.7642    2.5056   20.3833 C.3     1  UNL1        0.0926
     20 N           0.3803    1.9721   20.6071 N.pl3   1  UNL1       -0.2932
     21 C           0.0882    0.5205   20.3670 C.3     1  UNL1        0.0926
     22 C           1.1800   -0.3975   19.9030 C.3     1  UNL1        0.0291
     23 C          -0.7116    2.8900   21.0711 C.ar    1  UNL1        0.1317
     24 C          -0.3774    4.0925   21.9032 C.ar    1  UNL1        0.0343
     25 C          -1.4693    5.0105   22.3672 C.ar    1  UNL1        0.0045
     26 C          -2.8953    4.7259   21.9990 C.ar    1  UNL1        0.0208
     27 C          -3.2295    3.5234   21.1670 C.ar    1  UNL1        0.1003
     28 N          -2.1376    2.6054   20.7030 N.ar    1  UNL1       -0.2292
@<TRIPOS>BOND
     1     1     2    1
     2     2     3    1
     3     3     4    1
     4     4     5   ar
     5     5     6   ar
     6     6     7    1
     7     6     8   ar
     8     8     9   ar
     9     9    10   ar
    10    10    11    1
    11    11    12   ar
    12    12    13   ar
    13    13    14   ar
    14    14    15   ar
    15    15    17    1
    16    17    18    1
    17    18    19    1
    18    19    20    1
    19    20    23    1
    20    23    24   ar
    21    24    25   ar
    22    25    26   ar
    23    26    27   ar
    24    27    28   ar
    25    20    21    1
    26    21    22    1
    27    12    16    1
    28    16     2    1
    29    10     4   ar
    30    15    11   ar
    31    22    17    1
    32    28    23   ar
@<TRIPOS>MOLECULE
*****
 28 32 0 0 0
SMALL
GASTEIGER

@<TRIPOS>ATOM
      1 C           4.6177    0.8132   36.0350 C.3     1  UNL1        0.0902
      2 N           3.8332    1.0270   34.7746 N.3     1  UNL1       -0.2612
      3 C           2.9213    2.2179   34.7697 C.3     1  UNL1        0.1010
      4 C           2.0152    2.6977   33.6748 C.ar    1  UNL1        0.0109
      5 C           1.2710    3.9348   34.0819 C.ar    1  UNL1        0.0099
      6 C           0.3090    4.5792   33.1284 C.ar    1  UNL1        0.0575
      7 CL         -0.4353    5.8163   33.5354 Cl      1  UNL1       -0.0823
      8 C           0.0911    3.9864   31.7678 C.ar    1  UNL1        0.0129
      9 C           0.8353    2.7494   31.3607 C.ar    1  UNL1        0.0182
     10 C           1.7973    2.1050   32.3142 C.ar    1  UNL1        0.0636
     11 N           2.4317    0.8861   31.7126 N.ar    1  UNL1       -0.2799
     12 C           3.4406   -0.0411   32.3228 C.ar    1  UNL1        0.1632
     13 N           3.7588   -1.1070   31.3167 N.ar    1  UNL1       -0.1319
     14 N           2.9466   -0.8387   30.0845 N.ar    1  UNL1       -0.1333
     15 C           2.1264    0.3932   30.3291 C.ar    1  UNL1        0.1465
     16 C           4.0643    0.0217   33.6856 C.3     1  UNL1        0.1396
     17 C           1.1690    1.0216   29.3605 C.3     1  UNL1        0.0625
     18 C          -0.2156    0.4656   29.2068 C.3     1  UNL1        0.0291
     19 C          -1.1730    1.0941   28.2382 C.3     1  UNL1        0.0926
     20 N          -0.7458    2.2787   27.4232 N.pl3   1  UNL1       -0.2932
     21 C           0.6388    2.8348   27.5768 C.3     1  UNL1        0.0926
     22 C           1.5962    2.2063   28.5455 C.3     1  UNL1        0.0291
     23 C          -1.7033    2.9072   26.4544 C.ar    1  UNL1        0.1317
     24 C          -1.3302    3.0349   25.0072 C.ar    1  UNL1        0.0343
     25 C          -2.2876    3.6634   24.0385 C.ar    1  UNL1        0.0045
     26 C          -3.6180    4.1643   24.5171 C.ar    1  UNL1        0.0208
     27 C          -3.9911    4.0367   25.9643 C.ar    1  UNL1        0.1003
     28 N          -3.0337    3.4081   26.9330 N.ar    1  UNL1       -0.2292
@<TRIPOS>BOND
     1     1     2    1
     2     2     3    1
     3     3     4    1
     4     4     5   ar
     5     5     6   ar
     6     6     7    1
     7     6     8   ar
     8     8     9   ar
     9     9    10   ar
    10    10    11    1
    11    11    12   ar
    12    12    13   ar
    13    13    14   ar
    14    14    15   ar
    15    15    17    1
    16    17    18    1
    17    18    19    1
    18    19    20    1
    19    20    23    1
    20    23    24   ar
    21    24    25   ar
    22    25    26   ar
    23    26    27   ar
    24    27    28   ar
    25    20    21    1
    26    21    22    1
    27    12    16    1
    28    16     2    1
    29    10     4   ar
    30    15    11   ar
    31    22    17    1
    32    28    23   ar
@<TRIPOS>MOLECULE
*****
 28 32 0 0 0
SMALL
GASTEIGER

@<TRIPOS>ATOM
      1 C          -1.9974    3.5887   21.6160 C.3     1  UNL1        0.0902
      2 N          -0.8310    2.6522   21.5057 N.3     1  UNL1       -0.2612
      3 C          -0.1901    2.2552   22.8025 C.3     1  UNL1        0.1010
      4 C           0.9804    1.3445   23.0271 C.ar    1  UNL1        0.0109
      5 C           1.3021    1.2152   24.4865 C.ar    1  UNL1        0.0099
      6 C           2.4425    0.3472   24.9291 C.ar    1  UNL1        0.0575
      7 CL          2.7642    0.2179   26.3885 Cl      1  UNL1       -0.0823
      8 C           3.2613   -0.3915   23.9123 C.ar    1  UNL1        0.0129
      9 C           2.9397   -0.2622   22.4529 C.ar    1  UNL1        0.0182
     10 C           1.7992    0.6057   22.0103 C.ar    1  UNL1        0.0636
     11 N           1.6497    0.5954   20.5178 N.ar    1  UNL1       -0.2799
     12 C           0.6445    1.3210   19.6734 C.ar    1  UNL1        0.1632
     13 N           0.9144    0.9822   18.2374 N.ar    1  UNL1       -0.1319
     14 N           2.0865    0.0471   18.1942 N.ar    1  UNL1       -0.1333
     15 C           2.5409   -0.1920   19.6036 C.ar    1  UNL1        0.1465
     16 C          -0.4595    2.2364   20.1131 C.3     1  UNL1        0.1396
     17 C           3.6855   -1.0651   20.0247 C.3     1  UNL1        0.0625
     18 C           3.4561   -2.5218   20.3000 C.3     1  UNL1        0.0291
     19 C           4.6006   -3.3949   20.7211 C.3     1  UNL1        0.0926
     20 N           5.9748   -2.8115   20.8671 N.pl3   1  UNL1       -0.2932
     21 C           6.2043   -1.3550   20.5918 C.3     1  UNL1        0.0926
     22 C           5.0597   -0.4818   20.1707 C.3     1  UNL1        0.0291
     23 C           7.1195   -3.6847   21.2882 C.ar    1  UNL1        0.1317
     24 C           8.3913   -3.6894   20.4929 C.ar    1  UNL1        0.0343
     25 C           9.5360   -4.5626   20.9141 C.ar    1  UNL1        0.0045
     26 C           9.4088   -5.4309   22.1305 C.ar    1  UNL1        0.0208
     27 C           8.1370   -5.4262   22.9259 C.ar    1  UNL1        0.1003
     28 N           6.9923   -4.5530   22.5047 N.ar    1  UNL1       -0.2292
@<TRIPOS>BOND
     1     1     2    1
     2     2     3    1
     3     3     4    1
     4     4     5   ar
     5     5     6   ar
     6     6     7    1
     7     6     8   ar
     8     8     9   ar
     9     9    10   ar
    10    10    11    1
    11    11    12   ar
    12    12    13   ar
    13    13    14   ar
    14    14    15   ar
    15    15    17    1
    16    17    18    1
    17    18    19    1
    18    19    20    1
    19    20    23    1
    20    23    24   ar
    21    24    25   ar
    22    25    26   ar
    23    26    27   ar
    24    27    28   ar
    25    20    21    1
    26    21    22    1
    27    12    16    1
    28    16     2    1
    29    10     4   ar
    30    15    11   ar
    31    22    17    1
    32    28    23   ar
@<TRIPOS>MOLECULE
*****
 28 32 0 0 0
SMALL
GASTEIGER

@<TRIPOS>ATOM
      1 C          -2.3825    3.5112   20.1773 C.3     1  UNL1        0.0902
      2 N          -1.8814    3.1950   21.5553 N.3     1  UNL1       -0.2612
      3 C          -0.5824    2.4478   21.6200 C.3     1  UNL1        0.1010
      4 C           0.1732    1.9888   22.8317 C.ar    1  UNL1        0.0109
      5 C           1.4350    1.2722   22.4519 C.ar    1  UNL1        0.0099
      6 C           2.3400    0.7305   23.5184 C.ar    1  UNL1        0.0575
      7 CL          3.6018    0.0138   23.1385 Cl      1  UNL1       -0.0823
      8 C           1.9832    0.9054   24.9648 C.ar    1  UNL1        0.0129
      9 C           0.7214    1.6220   25.3447 C.ar    1  UNL1        0.0182
     10 C          -0.1835    2.1637   24.2782 C.ar    1  UNL1        0.0636
     11 N          -1.3841    2.8408   24.8700 N.ar    1  UNL1       -0.2799
     12 C          -2.5244    3.5102   24.1617 C.ar    1  UNL1        0.1632
     13 N          -3.4722    4.0329   25.2000 N.ar    1  UNL1       -0.1319
     14 N          -2.9179    3.6867   26.5500 N.ar    1  UNL1       -0.1333
     15 C          -1.6273    2.9499   26.3461 C.ar    1  UNL1        0.1465
     16 C          -2.7457    3.6678   22.6865 C.3     1  UNL1        0.1396
     17 C          -0.7364    2.4159   27.4283 C.3     1  UNL1        0.0625
     18 C           0.3448    3.2812   28.0048 C.3     1  UNL1        0.0291
     19 C           1.2357    2.7472   29.0869 C.3     1  UNL1        0.0926
     20 N           1.0455    1.3480   29.5927 N.pl3   1  UNL1       -0.2932
     21 C          -0.0357    0.4827   29.0163 C.3     1  UNL1        0.0926
     22 C          -0.9267    1.0166   27.9341 C.3     1  UNL1        0.0291
     23 C           1.9364    0.8140   30.6749 C.ar    1  UNL1        0.1317
     24 C           2.1374    1.5998   31.9367 C.ar    1  UNL1        0.0343
     25 C           3.0284    1.0658   33.0189 C.ar    1  UNL1        0.0045
     26 C           3.7182   -0.2540   32.8393 C.ar    1  UNL1        0.0208
     27 C           3.5171   -1.0398   31.5775 C.ar    1  UNL1        0.1003
     28 N           2.6262   -0.5058   30.4953 N.ar    1  UNL1       -0.2292
@<TRIPOS>BOND
     1     1     2    1
     2     2     3    1
     3     3     4    1
     4     4     5   ar
     5     5     6   ar
     6     6     7    1
     7     6     8   ar
     8     8     9   ar
     9     9    10   ar
    10    10    11    1
    11    11    12   ar
    12    12    13   ar
    13    13    14   ar
    14    14    15   ar
    15    15    17    1
    16    17    18    1
    17    18    19    1
    18    19    20    1
    19    20    23    1
    20    23    24   ar
    21    24    25   ar
    22    25    26   ar
    23    26    27   ar
    24    27    28   ar
    25    20    21    1
    26    21    22    1
    27    12    16    1
    28    16     2    1
    29    10     4   ar
    30    15    11   ar
    31    22    17    1
    32    28    23   ar
@<TRIPOS>MOLECULE
*****
 28 32 0 0 0
SMALL
GASTEIGER

@<TRIPOS>ATOM
      1 C          -0.6002    3.3840   18.8242 C.3     1  UNL1        0.0902
      2 N           0.3643    2.3799   19.3822 N.3     1  UNL1       -0.2612
      3 C           0.3778    2.2511   20.8766 C.3     1  UNL1        0.1010
      4 C           1.2181    1.3480   21.7300 C.ar    1  UNL1        0.0109
      5 C           0.9174    1.5352   23.1875 C.ar    1  UNL1        0.0099
      6 C           1.6510    0.7249   24.2148 C.ar    1  UNL1        0.0575
      7 CL          1.3502    0.9121   25.6724 Cl      1  UNL1       -0.0823
      8 C           2.6854   -0.2725   23.7845 C.ar    1  UNL1        0.0129
      9 C           2.9862   -0.4596   22.3269 C.ar    1  UNL1        0.0182
     10 C           2.2526    0.3506   21.2997 C.ar    1  UNL1        0.0636
     11 N           2.7021    0.0100   19.9097 N.ar    1  UNL1       -0.2799
     12 C           2.2283    0.5826   18.6068 C.ar    1  UNL1        0.1632
     13 N           2.9881   -0.0891   17.5017 N.ar    1  UNL1       -0.1319
     14 N           3.9315   -1.0769   18.1215 N.ar    1  UNL1       -0.1333
     15 C           3.7548   -1.0157   19.6098 C.ar    1  UNL1        0.1465
     16 C           1.1879    1.6373   18.3721 C.3     1  UNL1        0.1396
     17 C           4.4998   -1.8360   20.6206 C.3     1  UNL1        0.0625
     18 C           5.8303   -1.3689   21.1321 C.3     1  UNL1        0.0291
     19 C           6.5754   -2.1892   22.1429 C.3     1  UNL1        0.0926
     20 N           5.9900   -3.4768   22.6424 N.pl3   1  UNL1       -0.2932
     21 C           4.6595   -3.9440   22.1310 C.3     1  UNL1        0.0926
     22 C           3.9144   -3.1236   21.1201 C.3     1  UNL1        0.0291
     23 C           6.7351   -4.2972   23.6533 C.ar    1  UNL1        0.1317
     24 C           6.5972   -3.9920   25.1154 C.ar    1  UNL1        0.0343
     25 C           7.3423   -4.8125   26.1263 C.ar    1  UNL1        0.0045
     26 C           8.2252   -5.9380   25.6750 C.ar    1  UNL1        0.0208
     27 C           8.3630   -6.2432   24.2128 C.ar    1  UNL1        0.1003
     28 N           7.6180   -5.4227   23.2019 N.ar    1  UNL1       -0.2292
@<TRIPOS>BOND
     1     1     2    1
     2     2     3    1
     3     3     4    1
     4     4     5   ar
     5     5     6   ar
     6     6     7    1
     7     6     8   ar
     8     8     9   ar
     9     9    10   ar
    10    10    11    1
    11    11    12   ar
    12    12    13   ar
    13    13    14   ar
    14    14    15   ar
    15    15    17    1
    16    17    18    1
    17    18    19    1
    18    19    20    1
    19    20    23    1
    20    23    24   ar
    21    24    25   ar
    22    25    26   ar
    23    26    27   ar
    24    27    28   ar
    25    20    21    1
    26    21    22    1
    27    12    16    1
    28    16     2    1
    29    10     4   ar
    30    15    11   ar
    31    22    17    1
    32    28    23   ar
@<TRIPOS>MOLECULE
*****
 28 32 0 0 0
SMALL
GASTEIGER

@<TRIPOS>ATOM
      1 C           0.0539    5.4696   34.0261 C.3     1  UNL1        0.0902
      2 N           0.9235    4.2936   33.6937 N.3     1  UNL1       -0.2612
      3 C           0.5874    3.5746   32.4209 C.3     1  UNL1        0.1010
      4 C           1.2591    2.3765   31.8180 C.ar    1  UNL1        0.0109
      5 C           0.6056    1.9722   30.5298 C.ar    1  UNL1        0.0099
      6 C           1.1258    0.7929   29.7628 C.ar    1  UNL1        0.0575
      7 CL          0.4723    0.3886   28.4745 Cl      1  UNL1       -0.0823
      8 C           2.2995    0.0178   30.2839 C.ar    1  UNL1        0.0129
      9 C           2.9530    0.4220   31.5721 C.ar    1  UNL1        0.0182
     10 C           2.4328    1.6014   32.3392 C.ar    1  UNL1        0.0636
     11 N           3.2247    1.8330   33.5919 N.ar    1  UNL1       -0.2799
     12 C           3.0386    2.8968   34.6328 C.ar    1  UNL1        0.1632
     13 N           4.0856    2.7004   35.6887 N.ar    1  UNL1       -0.1319
     14 N           4.9188    1.5151   35.3005 N.ar    1  UNL1       -0.1333
     15 C           4.3868    0.9790   34.0045 C.ar    1  UNL1        0.1465
     16 C           2.0144    3.9919   34.6781 C.3     1  UNL1        0.1396
     17 C           4.9227   -0.2034   33.2532 C.3     1  UNL1        0.0625
     18 C           5.9399   -0.0048   32.1687 C.3     1  UNL1        0.0291
     19 C           6.4758   -1.1872   31.4174 C.3     1  UNL1        0.0926
     20 N           5.9947   -2.5683   31.7504 N.pl3   1  UNL1       -0.2932
     21 C           4.9776   -2.7670   32.8349 C.3     1  UNL1        0.0926
     22 C           4.4416   -1.5846   33.5862 C.3     1  UNL1        0.0291
     23 C           6.5306   -3.7508   30.9990 C.ar    1  UNL1        0.1317
     24 C           7.0813   -4.9283   31.7476 C.ar    1  UNL1        0.0343
     25 C           7.6172   -6.1108   30.9963 C.ar    1  UNL1        0.0045
     26 C           7.6025   -6.1158   29.4964 C.ar    1  UNL1        0.0208
     27 C           7.0518   -4.9383   28.7478 C.ar    1  UNL1        0.1003
     28 N           6.5159   -3.7558   29.4991 N.ar    1  UNL1       -0.2292
@<TRIPOS>BOND
     1     1     2    1
     2     2     3    1
     3     3     4    1
     4     4     5   ar
     5     5     6   ar
     6     6     7    1
     7     6     8   ar
     8     8     9   ar
     9     9    10   ar
    10    10    11    1
    11    11    12   ar
    12    12    13   ar
    13    13    14   ar
    14    14    15   ar
    15    15    17    1
    16    17    18    1
    17    18    19    1
    18    19    20    1
    19    20    23    1
    20    23    24   ar
    21    24    25   ar
    22    25    26   ar
    23    26    27   ar
    24    27    28   ar
    25    20    21    1
    26    21    22    1
    27    12    16    1
    28    16     2    1
    29    10     4   ar
    30    15    11   ar
    31    22    17    1
    32    28    23   ar
@<TRIPOS>MOLECULE
*****
 28 32 0 0 0
SMALL
GASTEIGER

@<TRIPOS>ATOM
      1 C           7.2820   -5.1948   25.3506 C.3     1  UNL1        0.0902
      2 N           6.9918   -4.5401   26.6686 N.3     1  UNL1       -0.2612
      3 C           6.4903   -3.1282   26.5975 C.3     1  UNL1        0.1010
      4 C           6.1146   -2.2113   27.7237 C.ar    1  UNL1        0.0109
      5 C           5.6592   -0.8759   27.2144 C.ar    1  UNL1        0.0099
      6 C           5.2368    0.1909   28.1806 C.ar    1  UNL1        0.0575
      7 CL          4.7814    1.5263   27.6714 Cl      1  UNL1       -0.0823
      8 C           5.2698   -0.0777   29.6560 C.ar    1  UNL1        0.0129
      9 C           5.7252   -1.4131   30.1652 C.ar    1  UNL1        0.0182
     10 C           6.1476   -2.4799   29.1990 C.ar    1  UNL1        0.0636
     11 N           6.5644   -3.7317   29.9126 N.ar    1  UNL1       -0.2799
     12 C           7.0512   -5.0241   29.3272 C.ar    1  UNL1        0.1632
     13 N           7.3394   -5.9660   30.4584 N.ar    1  UNL1       -0.1319
     14 N           7.0308   -5.2558   31.7430 N.ar    1  UNL1       -0.1333
     15 C           6.5518   -3.8749   31.4058 C.ar    1  UNL1        0.1465
     16 C           7.2414   -5.3839   27.8834 C.3     1  UNL1        0.1396
     17 C           6.1336   -2.8221   32.3889 C.3     1  UNL1        0.0625
     18 C           7.1127   -1.7735   32.8268 C.3     1  UNL1        0.0291
     19 C           6.6946   -0.7207   33.8100 C.3     1  UNL1        0.0926
     20 N           5.2973   -0.7164   34.3553 N.pl3   1  UNL1       -0.2932
     21 C           4.3181   -1.7649   33.9175 C.3     1  UNL1        0.0926
     22 C           4.7362   -2.8178   32.9343 C.3     1  UNL1        0.0291
     23 C           4.8791    0.3365   35.3385 C.ar    1  UNL1        0.1317
     24 C           5.2743    0.2154   36.7805 C.ar    1  UNL1        0.0343
     25 C           4.8561    1.2683   37.7637 C.ar    1  UNL1        0.0045
     26 C           4.0427    2.4421   37.3049 C.ar    1  UNL1        0.0208
     27 C           3.6474    2.5631   35.8630 C.ar    1  UNL1        0.1003
     28 N           4.0657    1.5103   34.8798 N.ar    1  UNL1       -0.2292
@<TRIPOS>BOND
     1     1     2    1
     2     2     3    1
     3     3     4    1
     4     4     5   ar
     5     5     6   ar
     6     6     7    1
     7     6     8   ar
     8     8     9   ar
     9     9    10   ar
    10    10    11    1
    11    11    12   ar
    12    12    13   ar
    13    13    14   ar
    14    14    15   ar
    15    15    17    1
    16    17    18    1
    17    18    19    1
    18    19    20    1
    19    20    23    1
    20    23    24   ar
    21    24    25   ar
    22    25    26   ar
    23    26    27   ar
    24    27    28   ar
    25    20    21    1
    26    21    22    1
    27    12    16    1
    28    16     2    1
    29    10     4   ar
    30    15    11   ar
    31    22    17    1
    32    28    23   ar
