@<TRIPOS>MOLECULE
*****
 31 33 0 0 0
SMALL
GASTEIGER

@<TRIPOS>ATOM
      1 C           7.4897   -3.9179   21.1601 C.ar    1  UNL1        0.1334
      2 N           8.0665   -5.2774   20.8975 N.ar    1  UNL1       -0.1408
      3 N           8.1817   -5.9935   22.2105 N.ar    1  UNL1       -0.1408
      4 C           7.6760   -5.0765   23.2846 C.ar    1  UNL1        0.1337
      5 S           7.2483   -3.7937   22.6353 S.2     1  UNL1       -0.0455
      6 C           5.8728   -2.8352   19.4386 C.ar    1  UNL1       -0.0241
      7 C           5.5874   -1.7843   18.4071 C.ar    1  UNL1       -0.0261
      8 C           6.6336   -0.7651   18.0654 C.ar    1  UNL1       -0.0046
      9 C           7.9651   -0.7968   18.7553 C.ar    1  UNL1       -0.0003
     10 C           8.2505   -1.8477   19.7868 C.ar    1  UNL1        0.0017
     11 C           7.2043   -2.8669   20.1285 C.ar    1  UNL1        0.0214
     12 C           4.6303   -5.0522   18.8989 C.3     1  UNL1        0.0050
     13 C           4.8266   -3.8544   19.7803 C.3     1  UNL1        0.0261
     14 C           4.2558   -1.7525   17.7171 C.3     1  UNL1        0.0264
     15 C           3.5845   -0.4396   17.4427 C.3     1  UNL1        0.0106
     16 C           3.0118    0.3611   18.5746 C.3     1  UNL1        0.0421
     17 C           1.5482    0.2724   18.8908 C.2     1  UNL1        0.0503
     18 O           1.0621   -0.6976   19.9265 O.co2   1  UNL1       -0.5492
     19 O           0.5708    1.1537   18.1712 O.co2   1  UNL1       -0.5492
     20 C           7.6097   -5.3878   24.7504 C.ar    1  UNL1        0.0265
     21 C           7.3586   -4.2887   25.7398 C.ar    1  UNL1        0.0052
     22 C           7.2923   -4.5999   27.2057 C.ar    1  UNL1        0.0377
     23 C           7.4770   -6.0102   27.6821 C.ar    1  UNL1        0.1479
     24 C           7.7280   -7.1093   26.6926 C.ar    1  UNL1        0.1023
     25 C           7.7943   -6.7981   25.2268 C.ar    1  UNL1        0.0154
     26 C           7.9127   -8.5196   27.1690 C.1     1  UNL1        0.1035
     27 N           8.0973   -9.9299   27.6454 N.1     1  UNL1       -0.1907
     28 O           7.4106   -6.3215   29.1479 O.3     1  UNL1       -0.4785
     29 C           7.8773   -5.3090   30.1515 C.3     1  UNL1        0.1662
     30 C           9.3453   -5.0913   30.3703 C.3     1  UNL1        0.0472
     31 C           6.8761   -4.5141   30.9362 C.3     1  UNL1        0.0472
@<TRIPOS>UNITY_ATOM_ATTR
18 1
charge -1
@<TRIPOS>BOND
     1    12    13    1
     2    13     6    1
     3     6     7   ar
     4     7    14    1
     5    14    15    1
     6    15    16    1
     7    16    17    1
     8    17    18   ar
     9    17    19   ar
    10     7     8   ar
    11     8     9   ar
    12     9    10   ar
    13    10    11   ar
    14    11     1    1
    15     1     2   ar
    16     2     3   ar
    17     3     4   ar
    18     4    20    1
    19    20    21   ar
    20    21    22   ar
    21    22    23   ar
    22    23    28    1
    23    28    29    1
    24    29    30    1
    25    29    31    1
    26    23    24   ar
    27    24    26    1
    28    26    27    3
    29    24    25   ar
    30     4     5   ar
    31    11     6   ar
    32     5     1   ar
    33    25    20   ar
@<TRIPOS>MOLECULE
*****
 31 33 0 0 0
SMALL
GASTEIGER

@<TRIPOS>ATOM
      1 C           7.3206   -3.7131   21.2534 C.ar    1  UNL1        0.1334
      2 N           7.9065   -5.0854   21.1001 N.ar    1  UNL1       -0.1408
      3 N           7.9317   -5.7325   22.4531 N.ar    1  UNL1       -0.1408
      4 C           7.3612   -4.7601   23.4427 C.ar    1  UNL1        0.1337
      5 S           6.9836   -3.5121   22.7012 S.2     1  UNL1       -0.0455
      6 C           5.8110   -2.6943   19.4006 C.ar    1  UNL1       -0.0241
      7 C           5.5992   -1.6979   18.2995 C.ar    1  UNL1       -0.0261
      8 C           6.6853   -0.7241   17.9501 C.ar    1  UNL1       -0.0046
      9 C           7.9832   -0.7466   18.7018 C.ar    1  UNL1       -0.0003
     10 C           8.1949   -1.7430   19.8029 C.ar    1  UNL1        0.0017
     11 C           7.1088   -2.7168   20.1523 C.ar    1  UNL1        0.0214
     12 C           4.5707   -4.9345   18.9611 C.3     1  UNL1        0.0050
     13 C           4.7249   -3.6681   19.7500 C.3     1  UNL1        0.0261
     14 C           4.3014   -1.6754   17.5477 C.3     1  UNL1        0.0264
     15 C           3.4958   -0.4119   17.4798 C.3     1  UNL1        0.0106
     16 C           2.9623    0.2060   18.7383 C.3     1  UNL1        0.0421
     17 C           1.4859    0.2129   19.0029 C.2     1  UNL1        0.0503
     18 O           0.5827    1.0945   18.1922 O.co2   1  UNL1       -0.5492
     19 O           0.9126   -0.6617   20.0782 O.co2   1  UNL1       -0.5492
     20 C           7.1973   -4.9946   24.9151 C.ar    1  UNL1        0.0265
     21 C           7.4305   -6.3614   25.4874 C.ar    1  UNL1        0.0052
     22 C           7.2665   -6.5959   26.9599 C.ar    1  UNL1        0.0377
     23 C           6.8693   -5.4636   27.8600 C.ar    1  UNL1        0.1479
     24 C           6.6361   -4.0968   27.2877 C.ar    1  UNL1        0.1023
     25 C           6.8001   -3.8623   25.8153 C.ar    1  UNL1        0.0154
     26 C           6.2389   -2.9645   28.1878 C.1     1  UNL1        0.1035
     27 N           5.8417   -1.8324   29.0879 N.1     1  UNL1       -0.1907
     28 O           6.7054   -5.6981   29.3325 O.3     1  UNL1       -0.4785
     29 C           7.8898   -5.5867   30.2461 C.3     1  UNL1        0.1662
     30 C           7.9971   -4.4319   31.1975 C.3     1  UNL1        0.0472
     31 C           8.9670   -6.6299   30.2084 C.3     1  UNL1        0.0472
@<TRIPOS>UNITY_ATOM_ATTR
18 1
charge -1
@<TRIPOS>BOND
     1    12    13    1
     2    13     6    1
     3     6     7   ar
     4     7    14    1
     5    14    15    1
     6    15    16    1
     7    16    17    1
     8    17    18   ar
     9    17    19   ar
    10     7     8   ar
    11     8     9   ar
    12     9    10   ar
    13    10    11   ar
    14    11     1    1
    15     1     2   ar
    16     2     3   ar
    17     3     4   ar
    18     4    20    1
    19    20    21   ar
    20    21    22   ar
    21    22    23   ar
    22    23    28    1
    23    28    29    1
    24    29    30    1
    25    29    31    1
    26    23    24   ar
    27    24    26    1
    28    26    27    3
    29    24    25   ar
    30     4     5   ar
    31    11     6   ar
    32     5     1   ar
    33    25    20   ar
@<TRIPOS>MOLECULE
*****
 31 33 0 0 0
SMALL
GASTEIGER

@<TRIPOS>ATOM
      1 C          -8.0688  -19.0531   21.3848 C.ar    1  UNL1        0.1334
      2 N          -7.7380  -20.1294   22.3758 N.ar    1  UNL1       -0.1408
      3 N          -6.2529  -20.3392   22.3537 N.ar    1  UNL1       -0.1408
      4 C          -5.6659  -19.3925   21.3491 C.ar    1  UNL1        0.1337
      5 S          -6.7882  -18.5977   20.7503 S.2     1  UNL1       -0.0455
      6 C         -10.1317  -17.6270   22.0638 C.ar    1  UNL1       -0.0241
      7 C         -11.5024  -17.0989   21.7605 C.ar    1  UNL1       -0.0261
      8 C         -12.1812  -17.4686   20.4750 C.ar    1  UNL1       -0.0046
      9 C         -11.4892  -18.3665   19.4927 C.ar    1  UNL1       -0.0003
     10 C         -10.1184  -18.8946   19.7960 C.ar    1  UNL1        0.0017
     11 C          -9.4397  -18.5249   21.0815 C.ar    1  UNL1        0.0214
     12 C          -9.7124  -18.0570   24.5915 C.3     1  UNL1        0.0050
     13 C          -9.4529  -17.2573   23.3493 C.3     1  UNL1        0.0261
     14 C         -12.1945  -16.2009   22.7428 C.3     1  UNL1        0.0264
     15 C         -13.3973  -16.6938   23.4912 C.3     1  UNL1        0.0106
     16 C         -13.4630  -18.1208   23.9491 C.3     1  UNL1        0.0421
     17 C         -14.5771  -18.5697   24.8476 C.2     1  UNL1        0.0503
     18 O         -14.3503  -18.6789   26.3263 O.co2   1  UNL1       -0.5492
     19 O         -15.9179  -18.9094   24.2673 O.co2   1  UNL1       -0.5492
     20 C          -4.2119  -19.2634   21.0039 C.ar    1  UNL1        0.0265
     21 C          -3.1657  -19.6299   22.0144 C.ar    1  UNL1        0.0052
     22 C          -1.7117  -19.5008   21.6693 C.ar    1  UNL1        0.0377
     23 C          -1.3039  -19.0051   20.3135 C.ar    1  UNL1        0.1479
     24 C          -2.3500  -18.6385   19.3030 C.ar    1  UNL1        0.1023
     25 C          -3.8040  -18.7676   19.6482 C.ar    1  UNL1        0.0154
     26 C          -1.9421  -18.1428   17.9473 C.1     1  UNL1        0.1035
     27 N          -1.5343  -17.6471   16.5917 N.1     1  UNL1       -0.1907
     28 O           0.1501  -18.8759   19.9684 O.3     1  UNL1       -0.4785
     29 C           0.8924  -17.6173   20.3071 C.3     1  UNL1        0.1662
     30 C           0.2511  -16.2818   20.0714 C.3     1  UNL1        0.0472
     31 C           2.2760  -17.6938   20.8814 C.3     1  UNL1        0.0472
@<TRIPOS>UNITY_ATOM_ATTR
18 1
charge -1
@<TRIPOS>BOND
     1    12    13    1
     2    13     6    1
     3     6     7   ar
     4     7    14    1
     5    14    15    1
     6    15    16    1
     7    16    17    1
     8    17    18   ar
     9    17    19   ar
    10     7     8   ar
    11     8     9   ar
    12     9    10   ar
    13    10    11   ar
    14    11     1    1
    15     1     2   ar
    16     2     3   ar
    17     3     4   ar
    18     4    20    1
    19    20    21   ar
    20    21    22   ar
    21    22    23   ar
    22    23    28    1
    23    28    29    1
    24    29    30    1
    25    29    31    1
    26    23    24   ar
    27    24    26    1
    28    26    27    3
    29    24    25   ar
    30     4     5   ar
    31    11     6   ar
    32     5     1   ar
    33    25    20   ar
@<TRIPOS>MOLECULE
*****
 31 33 0 0 0
SMALL
GASTEIGER

@<TRIPOS>ATOM
      1 C           5.5378   -3.1704   22.9411 C.ar    1  UNL1        0.1334
      2 N           4.8857   -2.1487   23.8247 N.ar    1  UNL1       -0.1408
      3 N           5.4101   -2.3377   25.2172 N.ar    1  UNL1       -0.1408
      4 C           6.3863   -3.4764   25.1943 C.ar    1  UNL1        0.1337
      5 S           6.4652   -3.9910   23.7876 S.2     1  UNL1       -0.0455
      6 C           6.1575   -2.6015   20.4830 C.ar    1  UNL1       -0.0241
      7 C           5.9232   -2.7727   19.0113 C.ar    1  UNL1       -0.0261
      8 C           4.8351   -3.6840   18.5261 C.ar    1  UNL1       -0.0046
      9 C           3.9813   -4.4242   19.5124 C.ar    1  UNL1       -0.0003
     10 C           4.2155   -4.2530   20.9841 C.ar    1  UNL1        0.0017
     11 C           5.3036   -3.3416   21.4693 C.ar    1  UNL1        0.0214
     12 C           6.9254   -0.2738   21.3445 C.3     1  UNL1        0.0050
     13 C           7.2456   -1.6901   20.9682 C.3     1  UNL1        0.0261
     14 C           6.7771   -2.0325   18.0248 C.3     1  UNL1        0.0264
     15 C           6.3912   -0.6507   17.5871 C.3     1  UNL1        0.0106
     16 C           5.1263   -0.0277   18.0989 C.3     1  UNL1        0.0421
     17 C           3.8279   -0.2755   17.3898 C.2     1  UNL1        0.0503
     18 O           2.5584    0.3237   17.9184 O.co2   1  UNL1       -0.5492
     19 O           3.7990   -1.1225   16.1522 O.co2   1  UNL1       -0.5492
     20 C           7.1496   -4.0072   26.3714 C.ar    1  UNL1        0.0265
     21 C           7.6524   -3.0659   27.4255 C.ar    1  UNL1        0.0052
     22 C           8.4157   -3.5967   28.6026 C.ar    1  UNL1        0.0377
     23 C           8.6761   -5.0688   28.7257 C.ar    1  UNL1        0.1479
     24 C           8.1733   -6.0101   27.6716 C.ar    1  UNL1        0.1023
     25 C           7.4100   -5.4793   26.4945 C.ar    1  UNL1        0.0154
     26 C           8.4337   -7.4822   27.7946 C.1     1  UNL1        0.1035
     27 N           8.6942   -8.9542   27.9177 N.1     1  UNL1       -0.1907
     28 O           9.4394   -5.5996   29.9028 O.3     1  UNL1       -0.4785
     29 C           8.7063   -6.2300   31.0496 C.3     1  UNL1        0.1662
     30 C           9.3823   -7.2728   31.8896 C.3     1  UNL1        0.0472
     31 C           7.2971   -5.8176   31.3566 C.3     1  UNL1        0.0472
@<TRIPOS>UNITY_ATOM_ATTR
18 1
charge -1
@<TRIPOS>BOND
     1    12    13    1
     2    13     6    1
     3     6     7   ar
     4     7    14    1
     5    14    15    1
     6    15    16    1
     7    16    17    1
     8    17    18   ar
     9    17    19   ar
    10     7     8   ar
    11     8     9   ar
    12     9    10   ar
    13    10    11   ar
    14    11     1    1
    15     1     2   ar
    16     2     3   ar
    17     3     4   ar
    18     4    20    1
    19    20    21   ar
    20    21    22   ar
    21    22    23   ar
    22    23    28    1
    23    28    29    1
    24    29    30    1
    25    29    31    1
    26    23    24   ar
    27    24    26    1
    28    26    27    3
    29    24    25   ar
    30     4     5   ar
    31    11     6   ar
    32     5     1   ar
    33    25    20   ar
@<TRIPOS>MOLECULE
*****
 31 33 0 0 0
SMALL
GASTEIGER

@<TRIPOS>ATOM
      1 C           2.2911    1.1365   23.7255 C.ar    1  UNL1        0.1334
      2 N           3.4719    2.0080   24.0355 N.ar    1  UNL1       -0.1408
      3 N           3.4729    2.2798   25.5107 N.ar    1  UNL1       -0.1408
      4 C           2.2926    1.5762   26.1124 C.ar    1  UNL1        0.1337
      5 S           1.5623    0.8696   25.0090 S.2     1  UNL1       -0.0455
      6 C           2.6321   -0.5502   21.7790 C.ar    1  UNL1       -0.0241
      7 C           2.2476   -1.0645   20.4234 C.ar    1  UNL1       -0.0261
      8 C           1.1376   -0.4063   19.6587 C.ar    1  UNL1       -0.0046
      9 C           0.4122    0.7661   20.2495 C.ar    1  UNL1       -0.0003
     10 C           0.7967    1.2804   21.6050 C.ar    1  UNL1        0.0017
     11 C           1.9066    0.6222   22.3698 C.ar    1  UNL1        0.0214
     12 C           5.1616   -0.7746   22.3277 C.3     1  UNL1        0.0050
     13 C           3.7420   -1.2084   22.5437 C.3     1  UNL1        0.0261
     14 C           2.9730   -2.2370   19.8325 C.3     1  UNL1        0.0264
     15 C           4.0817   -2.0139   18.8471 C.3     1  UNL1        0.0106
     16 C           5.1599   -3.0441   18.6853 C.3     1  UNL1        0.0421
     17 C           5.1717   -4.2615   19.5616 C.2     1  UNL1        0.0503
     18 O           4.5527   -5.5395   19.0784 O.co2   1  UNL1       -0.5492
     19 O           5.8025   -4.2008   20.9211 O.co2   1  UNL1       -0.5492
     20 C           1.9099    1.5787   27.5627 C.ar    1  UNL1        0.0265
     21 C           0.9041    2.5685   28.0712 C.ar    1  UNL1        0.0052
     22 C           0.5214    2.5710   29.5216 C.ar    1  UNL1        0.0377
     23 C           1.1445    1.5837   30.4634 C.ar    1  UNL1        0.1479
     24 C           2.1503    0.5939   29.9549 C.ar    1  UNL1        0.1023
     25 C           2.5330    0.5914   28.5045 C.ar    1  UNL1        0.0154
     26 C           2.7734   -0.3934   30.8967 C.1     1  UNL1        0.1035
     27 N           3.3965   -1.3807   31.8384 N.1     1  UNL1       -0.1907
     28 O           0.7618    1.5862   31.9137 O.3     1  UNL1       -0.4785
     29 C           1.4399    2.5254   32.8667 C.3     1  UNL1        0.1662
     30 C           0.9915    3.9540   32.9585 C.3     1  UNL1        0.0472
     31 C           2.5665    2.0363   33.7279 C.3     1  UNL1        0.0472
@<TRIPOS>UNITY_ATOM_ATTR
18 1
charge -1
@<TRIPOS>BOND
     1    12    13    1
     2    13     6    1
     3     6     7   ar
     4     7    14    1
     5    14    15    1
     6    15    16    1
     7    16    17    1
     8    17    18   ar
     9    17    19   ar
    10     7     8   ar
    11     8     9   ar
    12     9    10   ar
    13    10    11   ar
    14    11     1    1
    15     1     2   ar
    16     2     3   ar
    17     3     4   ar
    18     4    20    1
    19    20    21   ar
    20    21    22   ar
    21    22    23   ar
    22    23    28    1
    23    28    29    1
    24    29    30    1
    25    29    31    1
    26    23    24   ar
    27    24    26    1
    28    26    27    3
    29    24    25   ar
    30     4     5   ar
    31    11     6   ar
    32     5     1   ar
    33    25    20   ar
@<TRIPOS>MOLECULE
*****
 31 33 0 0 0
SMALL
GASTEIGER

@<TRIPOS>ATOM
      1 C          -7.9697  -19.4806   21.7911 C.ar    1  UNL1        0.1334
      2 N          -8.0430  -20.2793   20.5236 N.ar    1  UNL1       -0.1408
      3 N          -6.6648  -20.3417   19.9346 N.ar    1  UNL1       -0.1408
      4 C          -5.7397  -19.5814   20.8382 C.ar    1  UNL1        0.1337
      5 S          -6.5462  -19.0493   21.9855 S.2     1  UNL1       -0.0455
      6 C          -9.7595  -17.8126   22.6654 C.ar    1  UNL1       -0.0241
      7 C         -10.9080  -17.5001   23.5782 C.ar    1  UNL1       -0.0261
      8 C         -11.4151  -18.5429   24.5297 C.ar    1  UNL1       -0.0046
      9 C         -10.7737  -19.8983   24.5683 C.ar    1  UNL1       -0.0003
     10 C          -9.6253  -20.2109   23.6554 C.ar    1  UNL1        0.0017
     11 C          -9.1182  -19.1680   22.7040 C.ar    1  UNL1        0.0214
     12 C          -8.2914  -15.7220   22.1921 C.3     1  UNL1        0.0050
     13 C          -9.2524  -16.7697   21.7139 C.3     1  UNL1        0.0261
     14 C         -11.5494  -16.1446   23.5396 C.3     1  UNL1        0.0264
     15 C         -12.5621  -15.8240   22.4807 C.3     1  UNL1        0.0106
     16 C         -12.8883  -16.8370   21.4235 C.3     1  UNL1        0.0421
     17 C         -12.2389  -16.7485   20.0742 C.2     1  UNL1        0.0503
     18 O         -11.5320  -17.9415   19.5024 O.co2   1  UNL1       -0.5492
     19 O         -12.2965  -15.4669   19.2969 O.co2   1  UNL1       -0.5492
     20 C          -4.2669  -19.3874   20.6307 C.ar    1  UNL1        0.0265
     21 C          -3.3059  -19.6993   21.7395 C.ar    1  UNL1        0.0052
     22 C          -1.8331  -19.5053   21.5321 C.ar    1  UNL1        0.0377
     23 C          -1.3212  -18.9995   20.2159 C.ar    1  UNL1        0.1479
     24 C          -2.2822  -18.6877   19.1072 C.ar    1  UNL1        0.1023
     25 C          -3.7550  -18.8816   19.3146 C.ar    1  UNL1        0.0154
     26 C          -1.7703  -18.1819   17.7911 C.1     1  UNL1        0.1035
     27 N          -1.2585  -17.6761   16.4750 N.1     1  UNL1       -0.1907
     28 O           0.1517  -18.8055   20.0085 O.3     1  UNL1       -0.4785
     29 C           0.7988  -17.5082   20.3935 C.3     1  UNL1        0.1662
     30 C           2.2484  -17.4782   20.7783 C.3     1  UNL1        0.0472
     31 C          -0.0035  -16.2408   20.3938 C.3     1  UNL1        0.0472
@<TRIPOS>UNITY_ATOM_ATTR
18 1
charge -1
@<TRIPOS>BOND
     1    12    13    1
     2    13     6    1
     3     6     7   ar
     4     7    14    1
     5    14    15    1
     6    15    16    1
     7    16    17    1
     8    17    18   ar
     9    17    19   ar
    10     7     8   ar
    11     8     9   ar
    12     9    10   ar
    13    10    11   ar
    14    11     1    1
    15     1     2   ar
    16     2     3   ar
    17     3     4   ar
    18     4    20    1
    19    20    21   ar
    20    21    22   ar
    21    22    23   ar
    22    23    28    1
    23    28    29    1
    24    29    30    1
    25    29    31    1
    26    23    24   ar
    27    24    26    1
    28    26    27    3
    29    24    25   ar
    30     4     5   ar
    31    11     6   ar
    32     5     1   ar
    33    25    20   ar
@<TRIPOS>MOLECULE
*****
 31 33 0 0 0
SMALL
GASTEIGER

@<TRIPOS>ATOM
      1 C           4.4884   -0.9722   24.2322 C.ar    1  UNL1        0.1334
      2 N           5.8621   -0.4551   24.5415 N.ar    1  UNL1       -0.1408
      3 N           6.0049   -0.3820   26.0329 N.ar    1  UNL1       -0.1408
      4 C           4.7195   -0.8540   26.6454 C.ar    1  UNL1        0.1337
      5 S           3.7823   -1.2187   25.5325 S.2     1  UNL1       -0.0455
      6 C           4.2475   -2.4622   22.1175 C.ar    1  UNL1       -0.0241
      7 C           3.6797   -2.6924   20.7484 C.ar    1  UNL1       -0.0261
      8 C           2.7847   -1.6627   20.1248 C.ar    1  UNL1       -0.0046
      9 C           2.4577   -0.4028   20.8704 C.ar    1  UNL1       -0.0003
     10 C           3.0256   -0.1727   22.2395 C.ar    1  UNL1        0.0017
     11 C           3.9205   -1.2024   22.8631 C.ar    1  UNL1        0.0214
     12 C           6.6164   -3.4713   22.4639 C.3     1  UNL1        0.0050
     13 C           5.1425   -3.4919   22.7411 C.3     1  UNL1        0.0261
     14 C           4.0067   -3.9522   20.0028 C.3     1  UNL1        0.0264
     15 C           4.8755   -3.8968   18.7814 C.3     1  UNL1        0.0106
     16 C           5.8936   -2.8051   18.6340 C.3     1  UNL1        0.0421
     17 C           5.6871   -1.7188   17.6205 C.2     1  UNL1        0.0503
     18 O           6.8423   -0.8633   17.1920 O.co2   1  UNL1       -0.5492
     19 O           4.3253   -1.4880   17.0354 O.co2   1  UNL1       -0.5492
     20 C           4.4234   -0.9451   28.1130 C.ar    1  UNL1        0.0265
     21 C           3.0778   -0.5346   28.6335 C.ar    1  UNL1        0.0052
     22 C           2.7817   -0.6257   30.1012 C.ar    1  UNL1        0.0377
     23 C           3.8311   -1.1274   31.0483 C.ar    1  UNL1        0.1479
     24 C           5.1767   -1.5380   30.5278 C.ar    1  UNL1        0.1023
     25 C           5.4728   -1.4468   29.0602 C.ar    1  UNL1        0.0154
     26 C           6.2261   -2.0397   31.4749 C.1     1  UNL1        0.1035
     27 N           7.2755   -2.5413   32.4220 N.1     1  UNL1       -0.1907
     28 O           3.5350   -1.2186   32.5159 O.3     1  UNL1       -0.4785
     29 C           4.0135   -0.1432   33.4458 C.3     1  UNL1        0.1662
     30 C           4.7246   -0.5105   34.7145 C.3     1  UNL1        0.0472
     31 C           3.7810    1.2994   33.1070 C.3     1  UNL1        0.0472
@<TRIPOS>UNITY_ATOM_ATTR
18 1
charge -1
@<TRIPOS>BOND
     1    12    13    1
     2    13     6    1
     3     6     7   ar
     4     7    14    1
     5    14    15    1
     6    15    16    1
     7    16    17    1
     8    17    18   ar
     9    17    19   ar
    10     7     8   ar
    11     8     9   ar
    12     9    10   ar
    13    10    11   ar
    14    11     1    1
    15     1     2   ar
    16     2     3   ar
    17     3     4   ar
    18     4    20    1
    19    20    21   ar
    20    21    22   ar
    21    22    23   ar
    22    23    28    1
    23    28    29    1
    24    29    30    1
    25    29    31    1
    26    23    24   ar
    27    24    26    1
    28    26    27    3
    29    24    25   ar
    30     4     5   ar
    31    11     6   ar
    32     5     1   ar
    33    25    20   ar
@<TRIPOS>MOLECULE
*****
 31 33 0 0 0
SMALL
GASTEIGER

@<TRIPOS>ATOM
      1 C           4.8477   -1.7076   23.7106 C.ar    1  UNL1        0.1334
      2 N           6.2039   -1.2462   24.1551 N.ar    1  UNL1       -0.1408
      3 N           6.1247   -0.9135   25.6156 N.ar    1  UNL1       -0.1408
      4 C           4.7194   -1.1693   26.0738 C.ar    1  UNL1        0.1337
      5 S           3.9302   -1.6601   24.8964 S.2     1  UNL1       -0.0455
      6 C           3.8999   -1.1477   21.3572 C.ar    1  UNL1       -0.0241
      7 C           3.5267   -1.5806   19.9705 C.ar    1  UNL1       -0.0261
      8 C           3.7278   -3.0065   19.5502 C.ar    1  UNL1       -0.0046
      9 C           4.3022   -3.9993   20.5168 C.ar    1  UNL1       -0.0003
     10 C           4.6755   -3.5664   21.9035 C.ar    1  UNL1        0.0017
     11 C           4.4743   -2.1405   22.3238 C.ar    1  UNL1        0.0214
     12 C           4.8195    1.2657   21.6401 C.3     1  UNL1        0.0050
     13 C           3.6988    0.2781   21.7774 C.3     1  UNL1        0.0261
     14 C           2.9522   -0.5878   19.0038 C.3     1  UNL1        0.0264
     15 C           3.7808   -0.0935   17.8553 C.3     1  UNL1        0.0106
     16 C           5.2016    0.3302   18.0831 C.3     1  UNL1        0.0421
     17 C           6.3033   -0.2651   17.2574 C.2     1  UNL1        0.0503
     18 O           7.1456    0.6162   16.3834 O.co2   1  UNL1       -0.5492
     19 O           6.5627   -1.7417   17.3057 O.co2   1  UNL1       -0.5492
     20 C           4.1954   -0.9694   27.4650 C.ar    1  UNL1        0.0265
     21 C           5.1284   -1.0510   28.6367 C.ar    1  UNL1        0.0052
     22 C           4.6044   -0.8512   30.0279 C.ar    1  UNL1        0.0377
     23 C           3.1474   -0.5697   30.2474 C.ar    1  UNL1        0.1479
     24 C           2.2145   -0.4881   29.0756 C.ar    1  UNL1        0.1023
     25 C           2.7385   -0.6880   27.6844 C.ar    1  UNL1        0.0154
     26 C           0.7575   -0.2067   29.2951 C.1     1  UNL1        0.1035
     27 N          -0.6993    0.0747   29.5146 N.1     1  UNL1       -0.1907
     28 O           2.6235   -0.3698   31.6386 O.3     1  UNL1       -0.4785
     29 C           2.7456    0.9706   32.3006 C.3     1  UNL1        0.1662
     30 C           3.9501    1.2872   33.1367 C.3     1  UNL1        0.0472
     31 C           1.6633    1.9945   32.1266 C.3     1  UNL1        0.0472
@<TRIPOS>UNITY_ATOM_ATTR
18 1
charge -1
@<TRIPOS>BOND
     1    12    13    1
     2    13     6    1
     3     6     7   ar
     4     7    14    1
     5    14    15    1
     6    15    16    1
     7    16    17    1
     8    17    18   ar
     9    17    19   ar
    10     7     8   ar
    11     8     9   ar
    12     9    10   ar
    13    10    11   ar
    14    11     1    1
    15     1     2   ar
    16     2     3   ar
    17     3     4   ar
    18     4    20    1
    19    20    21   ar
    20    21    22   ar
    21    22    23   ar
    22    23    28    1
    23    28    29    1
    24    29    30    1
    25    29    31    1
    26    23    24   ar
    27    24    26    1
    28    26    27    3
    29    24    25   ar
    30     4     5   ar
    31    11     6   ar
    32     5     1   ar
    33    25    20   ar
@<TRIPOS>MOLECULE
*****
 31 33 0 0 0
SMALL
GASTEIGER

@<TRIPOS>ATOM
      1 C           4.1887   -1.1114   23.9760 C.ar    1  UNL1        0.1334
      2 N           5.5309   -0.8597   24.5966 N.ar    1  UNL1       -0.1408
      3 N           5.3107   -0.4043   26.0087 N.ar    1  UNL1       -0.1408
      4 C           3.8323   -0.3746   26.2609 C.ar    1  UNL1        0.1337
      5 S           3.1389   -0.8115   25.0047 S.2     1  UNL1       -0.0455
      6 C           3.1963   -0.7036   21.6098 C.ar    1  UNL1       -0.0241
      7 C           2.9475   -1.1728   20.2070 C.ar    1  UNL1       -0.0261
      8 C           3.4424   -2.5189   19.7675 C.ar    1  UNL1       -0.0046
      9 C           4.1859   -3.3958   20.7308 C.ar    1  UNL1       -0.0003
     10 C           4.4347   -2.9266   22.1336 C.ar    1  UNL1        0.0017
     11 C           3.9399   -1.5805   22.5731 C.ar    1  UNL1        0.0214
     12 C           3.5948    1.8424   21.9398 C.3     1  UNL1        0.0050
     13 C           2.7015    0.6425   22.0493 C.3     1  UNL1        0.0261
     14 C           2.2039   -0.2958   19.2436 C.3     1  UNL1        0.0264
     15 C           2.9499    0.7022   18.4085 C.3     1  UNL1        0.0106
     16 C           4.4257    0.5445   18.1911 C.3     1  UNL1        0.0421
     17 C           4.9315   -0.3500   17.0985 C.2     1  UNL1        0.0503
     18 O           6.4073   -0.5225   16.8933 O.co2   1  UNL1       -0.5492
     19 O           3.9614   -1.0720   16.2110 O.co2   1  UNL1       -0.5492
     20 C           3.1646    0.0225   27.5441 C.ar    1  UNL1        0.0265
     21 C           2.0793    1.0579   27.5357 C.ar    1  UNL1        0.0052
     22 C           1.4116    1.4549   28.8189 C.ar    1  UNL1        0.0377
     23 C           1.8292    0.8165   30.1104 C.ar    1  UNL1        0.1479
     24 C           2.9145   -0.2189   30.1188 C.ar    1  UNL1        0.1023
     25 C           3.5822   -0.6159   28.8357 C.ar    1  UNL1        0.0154
     26 C           3.3321   -0.8573   31.4104 C.1     1  UNL1        0.1035
     27 N           3.7496   -1.4956   32.7019 N.1     1  UNL1       -0.1907
     28 O           1.1615    1.2135   31.3936 O.3     1  UNL1       -0.4785
     29 C           1.5163    2.5134   32.0527 C.3     1  UNL1        0.1662
     30 C           0.4801    3.5883   32.1975 C.3     1  UNL1        0.0472
     31 C           2.9073    2.7385   32.5671 C.3     1  UNL1        0.0472
@<TRIPOS>UNITY_ATOM_ATTR
18 1
charge -1
@<TRIPOS>BOND
     1    12    13    1
     2    13     6    1
     3     6     7   ar
     4     7    14    1
     5    14    15    1
     6    15    16    1
     7    16    17    1
     8    17    18   ar
     9    17    19   ar
    10     7     8   ar
    11     8     9   ar
    12     9    10   ar
    13    10    11   ar
    14    11     1    1
    15     1     2   ar
    16     2     3   ar
    17     3     4   ar
    18     4    20    1
    19    20    21   ar
    20    21    22   ar
    21    22    23   ar
    22    23    28    1
    23    28    29    1
    24    29    30    1
    25    29    31    1
    26    23    24   ar
    27    24    26    1
    28    26    27    3
    29    24    25   ar
    30     4     5   ar
    31    11     6   ar
    32     5     1   ar
    33    25    20   ar
