@<TRIPOS>MOLECULE
*****
 34 37 0 0 0
SMALL
GASTEIGER

@<TRIPOS>ATOM
      1 N           0.4473    0.5860   26.7465 N.am    1  UNL1       -0.2691
      2 C           1.0722    1.3799   25.6378 C.2     1  UNL1        0.2316
      3 O           2.2336    2.2846   25.9256 O.2     1  UNL1       -0.2744
      4 H          -0.3149   -0.0078   26.5576 H       1  UNL1        0.1563
      5 C           2.0563    0.9185   30.9358 C.ar    1  UNL1        0.0675
      6 C           1.1666    1.9939   30.3866 C.ar    1  UNL1        0.0190
      7 C           0.6302    1.8831   28.9901 C.ar    1  UNL1        0.0358
      8 C           0.9836    0.6968   28.1429 C.ar    1  UNL1        0.1343
      9 N           1.8734   -0.3786   28.6922 N.ar    1  UNL1       -0.2277
     10 C           2.4097   -0.2678   30.0886 C.ar    1  UNL1        0.1147
     11 C           5.2658    0.4158   36.9936 C.3     1  UNL1        0.0948
     12 C           4.2017    1.3618   36.5216 C.2     1  UNL1        0.2262
     13 O           3.6739    2.4185   37.4460 O.2     1  UNL1       -0.2749
     14 N           3.6653    1.2509   35.1251 N.am    1  UNL1       -0.2760
     15 C           4.1931    0.1942   34.2007 C.3     1  UNL1        0.1148
     16 C           3.6568    0.0834   32.8042 C.3     1  UNL1        0.1124
     17 N           2.5927    1.0293   32.3322 N.pl3   1  UNL1       -0.3028
     18 C           2.0649    2.0860   33.2567 C.3     1  UNL1        0.1124
     19 C           2.6012    2.1969   34.6532 C.3     1  UNL1        0.1148
     20 C           0.5359    1.2690   24.2414 C.3     1  UNL1        0.1132
     21 C           1.3486    0.5927   23.1773 C.ar    1  UNL1        0.0058
     22 C           2.5922   -0.1596   23.5480 C.ar    1  UNL1        0.0950
     23 N           3.4049   -0.8360   22.4839 N.ar    1  UNL1       -0.2445
     24 C           2.9739   -0.7600   21.0492 C.ar    1  UNL1        0.0775
     25 C           1.7302   -0.0077   20.6785 C.ar    1  UNL1       -0.0045
     26 C           1.2992    0.0683   19.2438 C.3     1  UNL1        0.0326
     27 C           0.9176    0.6687   21.7426 C.ar    1  UNL1       -0.0050
     28 C           3.7865   -1.4363   19.9852 C.ar    1  UNL1        0.0227
     29 C           4.7629   -0.6424   19.1690 C.ar    1  UNL1        0.0223
     30 C           5.5756   -1.3187   18.1049 C.ar    1  UNL1        0.1013
     31 N           5.4117   -2.7890   17.8570 N.ar    1  UNL1       -0.2165
     32 C           4.4352   -3.5829   18.6732 C.ar    1  UNL1        0.2224
     33 F           4.2713   -5.0532   18.4253 F       1  UNL1       -0.1832
     34 C           3.6226   -2.9066   19.7372 C.ar    1  UNL1        0.0512
@<TRIPOS>BOND
     1    11    12    1
     2    12    13    2
     3    12    14   am
     4    14    15    1
     5    15    16    1
     6    16    17    1
     7    17     5    1
     8     5     6   ar
     9     6     7   ar
    10     7     8   ar
    11     8     1    1
    12     1     2   am
    13     2     3    2
    14     2    20    1
    15    20    21    1
    16    21    22   ar
    17    22    23   ar
    18    23    24   ar
    19    24    28    1
    20    28    29   ar
    21    29    30   ar
    22    30    31   ar
    23    31    32   ar
    24    32    33    1
    25    32    34   ar
    26    24    25   ar
    27    25    26    1
    28    25    27   ar
    29     8     9   ar
    30     9    10   ar
    31    17    18    1
    32    18    19    1
    33    19    14    1
    34    10     5   ar
    35    27    21   ar
    36    34    28   ar
    37     1     4    1
@<TRIPOS>MOLECULE
*****
 34 37 0 0 0
SMALL
GASTEIGER

@<TRIPOS>ATOM
      1 N          -1.7276    2.5657   20.5020 N.am    1  UNL1       -0.2691
      2 C          -0.5961    3.2796   19.8238 C.2     1  UNL1        0.2316
      3 O          -0.1986    4.6539   20.2748 O.2     1  UNL1       -0.2744
      4 H          -1.9885    1.6637   20.2060 H       1  UNL1        0.1563
      5 C          -3.9299    4.5468   23.8895 C.ar    1  UNL1        0.0675
      6 C          -4.6320    4.2845   22.5902 C.ar    1  UNL1        0.0190
      7 C          -3.8979    3.6241   21.4610 C.ar    1  UNL1        0.0358
      8 C          -2.4617    3.2261   21.6312 C.ar    1  UNL1        0.1343
      9 N          -1.7597    3.4883   22.9305 N.ar    1  UNL1       -0.2277
     10 C          -2.4938    4.1487   24.0597 C.ar    1  UNL1        0.1147
     11 C          -6.1078    7.7108   29.5900 C.3     1  UNL1        0.0948
     12 C          -6.8664    7.1882   28.4062 C.2     1  UNL1        0.2262
     13 O          -8.3590    7.3260   28.3515 O.2     1  UNL1       -0.2749
     14 N          -6.1322    6.5278   27.2770 N.am    1  UNL1       -0.2760
     15 C          -4.6396    6.3900   27.3317 C.3     1  UNL1        0.1148
     16 C          -3.9055    5.7297   26.2025 C.3     1  UNL1        0.1124
     17 N          -4.6640    5.2071   25.0187 N.pl3   1  UNL1       -0.3028
     18 C          -6.1567    5.3449   24.9640 C.3     1  UNL1        0.1124
     19 C          -6.8908    6.0053   26.0932 C.3     1  UNL1        0.1148
     20 C           0.1380    2.6192   18.6947 C.3     1  UNL1        0.1132
     21 C           1.0563    1.4655   18.9701 C.ar    1  UNL1        0.0058
     22 C           0.5828    0.3129   19.8051 C.ar    1  UNL1        0.0950
     23 N           1.5011   -0.8408   20.0805 N.ar    1  UNL1       -0.2445
     24 C           2.8928   -0.8419   19.5208 C.ar    1  UNL1        0.0775
     25 C           3.3662    0.3108   18.6857 C.ar    1  UNL1       -0.0045
     26 C           4.7578    0.3097   18.1260 C.3     1  UNL1        0.0326
     27 C           2.4479    1.4644   18.4104 C.ar    1  UNL1       -0.0050
     28 C           3.8110   -1.9955   19.7962 C.ar    1  UNL1        0.0227
     29 C           4.7516   -1.9434   20.9634 C.ar    1  UNL1        0.0223
     30 C           5.6699   -3.0971   21.2388 C.ar    1  UNL1        0.1013
     31 N           5.6476   -4.3029   20.3470 N.ar    1  UNL1       -0.2165
     32 C           4.7069   -4.3550   19.1797 C.ar    1  UNL1        0.2224
     33 F           4.6845   -5.5609   18.2878 F       1  UNL1       -0.1832
     34 C           3.7887   -3.2014   18.9043 C.ar    1  UNL1        0.0512
@<TRIPOS>BOND
     1    11    12    1
     2    12    13    2
     3    12    14   am
     4    14    15    1
     5    15    16    1
     6    16    17    1
     7    17     5    1
     8     5     6   ar
     9     6     7   ar
    10     7     8   ar
    11     8     1    1
    12     1     2   am
    13     2     3    2
    14     2    20    1
    15    20    21    1
    16    21    22   ar
    17    22    23   ar
    18    23    24   ar
    19    24    28    1
    20    28    29   ar
    21    29    30   ar
    22    30    31   ar
    23    31    32   ar
    24    32    33    1
    25    32    34   ar
    26    24    25   ar
    27    25    26    1
    28    25    27   ar
    29     8     9   ar
    30     9    10   ar
    31    17    18    1
    32    18    19    1
    33    19    14    1
    34    10     5   ar
    35    27    21   ar
    36    34    28   ar
    37     1     4    1
@<TRIPOS>MOLECULE
*****
 34 37 0 0 0
SMALL
GASTEIGER

@<TRIPOS>ATOM
      1 N           6.8651   -4.7145   28.2209 N.am    1  UNL1       -0.2691
      2 C           8.0226   -4.4009   27.3199 C.2     1  UNL1        0.2316
      3 O           8.9760   -3.2999   27.6791 O.2     1  UNL1       -0.2744
      4 H           6.2395   -5.4371   27.9851 H       1  UNL1        0.1563
      5 C           6.2524   -2.3521   32.0016 C.ar    1  UNL1        0.0675
      6 C           6.7252   -3.7738   32.0739 C.ar    1  UNL1        0.0190
      7 C           6.9295   -4.5612   30.8136 C.ar    1  UNL1        0.0358
      8 C           6.6609   -3.9270   29.4811 C.ar    1  UNL1        0.1343
      9 N           6.1881   -2.5053   29.4089 N.ar    1  UNL1       -0.2277
     10 C           5.9839   -1.7179   30.6691 C.ar    1  UNL1        0.1147
     11 C           6.5390    1.6646   37.5724 C.3     1  UNL1        0.0948
     12 C           5.4355    0.7977   37.0426 C.2     1  UNL1        0.2262
     13 O           4.1278    0.7182   37.7731 O.2     1  UNL1       -0.2749
     14 N           5.6398    0.0102   35.7824 N.am    1  UNL1       -0.2760
     15 C           6.9474    0.0897   35.0519 C.3     1  UNL1        0.1148
     16 C           7.1517   -0.6977   33.7917 C.3     1  UNL1        0.1124
     17 N           6.0482   -1.5647   33.2619 N.pl3   1  UNL1       -0.3028
     18 C           4.7405   -1.6442   33.9923 C.3     1  UNL1        0.1124
     19 C           4.5363   -0.8567   35.2526 C.3     1  UNL1        0.1148
     20 C           8.2269   -5.1884   26.0596 C.3     1  UNL1        0.1132
     21 C           7.5451   -4.7654   24.7922 C.ar    1  UNL1        0.0058
     22 C           7.9950   -5.3258   23.4756 C.ar    1  UNL1        0.0950
     23 N           7.3133   -4.9027   22.2081 N.ar    1  UNL1       -0.2445
     24 C           6.1817   -3.9193   22.2573 C.ar    1  UNL1        0.0775
     25 C           5.7319   -3.3589   23.5740 C.ar    1  UNL1       -0.0045
     26 C           4.6003   -2.3755   23.6233 C.3     1  UNL1        0.0326
     27 C           6.4136   -3.7819   24.8414 C.ar    1  UNL1       -0.0050
     28 C           5.5000   -3.4963   20.9899 C.ar    1  UNL1        0.0227
     29 C           5.9974   -2.2999   20.2341 C.ar    1  UNL1        0.0223
     30 C           5.3157   -1.8769   18.9667 C.ar    1  UNL1        0.1013
     31 N           4.1366   -2.6502   18.4551 N.ar    1  UNL1       -0.2165
     32 C           3.6392   -3.8466   19.2110 C.ar    1  UNL1        0.2224
     33 F           2.4602   -4.6200   18.6994 F       1  UNL1       -0.1832
     34 C           4.3210   -4.2697   20.4784 C.ar    1  UNL1        0.0512
@<TRIPOS>BOND
     1    11    12    1
     2    12    13    2
     3    12    14   am
     4    14    15    1
     5    15    16    1
     6    16    17    1
     7    17     5    1
     8     5     6   ar
     9     6     7   ar
    10     7     8   ar
    11     8     1    1
    12     1     2   am
    13     2     3    2
    14     2    20    1
    15    20    21    1
    16    21    22   ar
    17    22    23   ar
    18    23    24   ar
    19    24    28    1
    20    28    29   ar
    21    29    30   ar
    22    30    31   ar
    23    31    32   ar
    24    32    33    1
    25    32    34   ar
    26    24    25   ar
    27    25    26    1
    28    25    27   ar
    29     8     9   ar
    30     9    10   ar
    31    17    18    1
    32    18    19    1
    33    19    14    1
    34    10     5   ar
    35    27    21   ar
    36    34    28   ar
    37     1     4    1
@<TRIPOS>MOLECULE
*****
 34 37 0 0 0
SMALL
GASTEIGER

@<TRIPOS>ATOM
      1 N           0.1878    2.5052   19.6323 N.am    1  UNL1       -0.2691
      2 C           0.6188    1.0712   19.7197 C.2     1  UNL1        0.2316
      3 O          -0.1625    0.1029   20.5577 O.2     1  UNL1       -0.2744
      4 H           0.7006    3.1407   19.0823 H       1  UNL1        0.1563
      5 C          -3.4491    3.9029   21.8839 C.ar    1  UNL1        0.0675
      6 C          -2.1549    3.6856   22.6103 C.ar    1  UNL1        0.0190
      7 C          -0.9426    3.2197   21.8598 C.ar    1  UNL1        0.0358
      8 C          -1.0245    2.9711   20.3828 C.ar    1  UNL1        0.1343
      9 N          -2.3187    3.1884   19.6564 N.ar    1  UNL1       -0.2277
     10 C          -3.5310    3.6543   20.4070 C.ar    1  UNL1        0.1147
     11 C          -8.1437    6.6682   26.0748 C.3     1  UNL1        0.0948
     12 C          -8.2982    5.7665   24.8861 C.2     1  UNL1        0.2262
     13 O          -9.6650    5.3308   24.4479 O.2     1  UNL1       -0.2749
     14 N          -7.0859    5.3006   24.1355 N.am    1  UNL1       -0.2760
     15 C          -5.7192    5.7364   24.5737 C.3     1  UNL1        0.1148
     16 C          -4.5069    5.2705   23.8232 C.3     1  UNL1        0.1124
     17 N          -4.6613    4.3688   22.6345 N.pl3   1  UNL1       -0.3028
     18 C          -6.0281    3.9331   22.1963 C.3     1  UNL1        0.1124
     19 C          -7.2404    4.3990   22.9468 C.3     1  UNL1        0.1148
     20 C           1.8311    0.6053   18.9692 C.3     1  UNL1        0.1132
     21 C           2.8139   -0.3157   19.6295 C.ar    1  UNL1        0.0058
     22 C           3.8258    0.2324   20.5916 C.ar    1  UNL1        0.0950
     23 N           4.8086   -0.6886   21.2519 N.ar    1  UNL1       -0.2445
     24 C           4.7796   -2.1576   20.9500 C.ar    1  UNL1        0.0775
     25 C           3.7677   -2.7057   19.9878 C.ar    1  UNL1       -0.0045
     26 C           3.7386   -4.1747   19.6859 C.3     1  UNL1        0.0326
     27 C           2.7849   -1.7847   19.3276 C.ar    1  UNL1       -0.0050
     28 C           5.7623   -3.0785   21.6103 C.ar    1  UNL1        0.0227
     29 C           6.9459   -3.5876   20.8422 C.ar    1  UNL1        0.0223
     30 C           7.9288   -4.5086   21.5024 C.ar    1  UNL1        0.1013
     31 N           7.7280   -4.9205   22.9307 N.ar    1  UNL1       -0.2165
     32 C           6.5444   -4.4113   23.6988 C.ar    1  UNL1        0.2224
     33 F           6.3436   -4.8232   25.1271 F       1  UNL1       -0.1832
     34 C           5.5616   -3.4904   23.0386 C.ar    1  UNL1        0.0512
@<TRIPOS>BOND
     1    11    12    1
     2    12    13    2
     3    12    14   am
     4    14    15    1
     5    15    16    1
     6    16    17    1
     7    17     5    1
     8     5     6   ar
     9     6     7   ar
    10     7     8   ar
    11     8     1    1
    12     1     2   am
    13     2     3    2
    14     2    20    1
    15    20    21    1
    16    21    22   ar
    17    22    23   ar
    18    23    24   ar
    19    24    28    1
    20    28    29   ar
    21    29    30   ar
    22    30    31   ar
    23    31    32   ar
    24    32    33    1
    25    32    34   ar
    26    24    25   ar
    27    25    26    1
    28    25    27   ar
    29     8     9   ar
    30     9    10   ar
    31    17    18    1
    32    18    19    1
    33    19    14    1
    34    10     5   ar
    35    27    21   ar
    36    34    28   ar
    37     1     4    1
@<TRIPOS>MOLECULE
*****
 34 37 0 0 0
SMALL
GASTEIGER

@<TRIPOS>ATOM
      1 N           0.2646    2.2175   20.0390 N.am    1  UNL1       -0.2691
      2 C           0.5828    0.7516   20.0387 C.2     1  UNL1        0.2316
      3 O          -0.1155   -0.1677   20.9965 O.2     1  UNL1       -0.2744
      4 H           0.7229    2.8208   19.4104 H       1  UNL1        0.1563
      5 C          -2.7852    3.8572   22.9130 C.ar    1  UNL1        0.0675
      6 C          -1.3502    3.7337   23.3319 C.ar    1  UNL1        0.0190
      7 C          -0.3336    3.1872   22.3739 C.ar    1  UNL1        0.0358
      8 C          -0.7520    2.7640   20.9970 C.ar    1  UNL1        0.1343
      9 N          -2.1870    2.8875   20.5781 N.ar    1  UNL1       -0.2277
     10 C          -3.2036    3.4341   21.5362 C.ar    1  UNL1        0.1147
     11 C          -8.0429    6.7934   26.2274 C.3     1  UNL1        0.0948
     12 C          -6.8515    6.0435   26.7451 C.2     1  UNL1        0.2262
     13 O          -6.6767    5.8402   28.2209 O.2     1  UNL1       -0.2749
     14 N          -5.8349    5.4969   25.7871 N.am    1  UNL1       -0.2760
     15 C          -6.0097    5.7003   24.3113 C.3     1  UNL1        0.1148
     16 C          -4.9932    5.1537   23.3533 C.3     1  UNL1        0.1124
     17 N          -3.8017    4.4038   23.8711 N.pl3   1  UNL1       -0.3028
     18 C          -3.6269    4.2005   25.3469 C.3     1  UNL1        0.1124
     19 C          -4.6435    4.7470   26.3049 C.3     1  UNL1        0.1148
     20 C           1.5994    0.2051   19.0807 C.3     1  UNL1        0.1132
     21 C           2.7469   -0.6149   19.5918 C.ar    1  UNL1        0.0058
     22 C           3.9004    0.0549   20.2777 C.ar    1  UNL1        0.0950
     23 N           5.0479   -0.7650   20.7888 N.ar    1  UNL1       -0.2445
     24 C           5.0417   -2.2547   20.6139 C.ar    1  UNL1        0.0775
     25 C           3.8880   -2.9246   19.9279 C.ar    1  UNL1       -0.0045
     26 C           3.8818   -4.4143   19.7530 C.3     1  UNL1        0.0326
     27 C           2.7407   -2.1046   19.4169 C.ar    1  UNL1       -0.0050
     28 C           6.1891   -3.0747   21.1249 C.ar    1  UNL1        0.0227
     29 C           7.4237   -3.2398   20.2893 C.ar    1  UNL1        0.0223
     30 C           8.5711   -4.0598   20.8003 C.ar    1  UNL1        0.1013
     31 N           8.4839   -4.7146   22.1470 N.ar    1  UNL1       -0.2165
     32 C           7.2492   -4.5494   22.9827 C.ar    1  UNL1        0.2224
     33 F           7.1619   -5.2042   24.3294 F       1  UNL1       -0.1832
     34 C           6.1018   -3.7295   22.4716 C.ar    1  UNL1        0.0512
@<TRIPOS>BOND
     1    11    12    1
     2    12    13    2
     3    12    14   am
     4    14    15    1
     5    15    16    1
     6    16    17    1
     7    17     5    1
     8     5     6   ar
     9     6     7   ar
    10     7     8   ar
    11     8     1    1
    12     1     2   am
    13     2     3    2
    14     2    20    1
    15    20    21    1
    16    21    22   ar
    17    22    23   ar
    18    23    24   ar
    19    24    28    1
    20    28    29   ar
    21    29    30   ar
    22    30    31   ar
    23    31    32   ar
    24    32    33    1
    25    32    34   ar
    26    24    25   ar
    27    25    26    1
    28    25    27   ar
    29     8     9   ar
    30     9    10   ar
    31    17    18    1
    32    18    19    1
    33    19    14    1
    34    10     5   ar
    35    27    21   ar
    36    34    28   ar
    37     1     4    1
@<TRIPOS>MOLECULE
*****
 34 37 0 0 0
SMALL
GASTEIGER

@<TRIPOS>ATOM
      1 N           7.7066   -3.0062   28.2870 N.am    1  UNL1       -0.2691
      2 C           7.1485   -4.2947   27.7597 C.2     1  UNL1        0.2316
      3 O           5.9794   -4.9409   28.4422 O.2     1  UNL1       -0.2744
      4 H           8.4739   -2.5821   27.8391 H       1  UNL1        0.1563
      5 C           5.8735   -1.0787   31.9167 C.ar    1  UNL1        0.0675
      6 C           6.8605   -2.1965   32.0789 C.ar    1  UNL1        0.0190
      7 C           7.4715   -2.8390   30.8690 C.ar    1  UNL1        0.0358
      8 C           7.0955   -2.3637   29.4969 C.ar    1  UNL1        0.1343
      9 N           6.1085   -1.2459   29.3347 N.ar    1  UNL1       -0.2277
     10 C           5.4975   -0.6034   30.5446 C.ar    1  UNL1        0.1147
     11 C           3.9527    1.1652   38.1236 C.3     1  UNL1        0.0948
     12 C           3.4293    1.4913   36.7563 C.2     1  UNL1        0.2262
     13 O           2.2949    2.4599   36.5989 O.2     1  UNL1       -0.2749
     14 N           4.0404    0.8488   35.5464 N.am    1  UNL1       -0.2760
     15 C           5.1748   -0.1198   35.7038 C.3     1  UNL1        0.1148
     16 C           5.7858   -0.7623   34.4940 C.3     1  UNL1        0.1124
     17 N           5.2624   -0.4362   33.1266 N.pl3   1  UNL1       -0.3028
     18 C           4.1280    0.5324   32.9692 C.3     1  UNL1        0.1124
     19 C           3.5170    1.1749   34.1791 C.3     1  UNL1        0.1148
     20 C           7.7596   -4.9372   26.5498 C.3     1  UNL1        0.1132
     21 C           7.2350   -4.6124   25.1825 C.ar    1  UNL1        0.0058
     22 C           7.7626   -5.3432   23.9836 C.ar    1  UNL1        0.0950
     23 N           7.2380   -5.0184   22.6163 N.ar    1  UNL1       -0.2445
     24 C           6.1858   -3.9627   22.4480 C.ar    1  UNL1        0.0775
     25 C           5.6581   -3.2319   23.6471 C.ar    1  UNL1       -0.0045
     26 C           4.6058   -2.1762   23.4788 C.3     1  UNL1        0.0326
     27 C           6.1827   -3.5567   25.0142 C.ar    1  UNL1       -0.0050
     28 C           5.6612   -3.6378   21.0809 C.ar    1  UNL1        0.0227
     29 C           6.4059   -2.6789   20.2002 C.ar    1  UNL1        0.0223
     30 C           5.8813   -2.3540   18.8329 C.ar    1  UNL1        0.1013
     31 N           4.6120   -2.9881   18.3464 N.ar    1  UNL1       -0.2165
     32 C           3.8672   -3.9471   19.2272 C.ar    1  UNL1        0.2224
     33 F           2.5979   -4.5812   18.7407 F       1  UNL1       -0.1832
     34 C           4.3918   -4.2719   20.5944 C.ar    1  UNL1        0.0512
@<TRIPOS>BOND
     1    11    12    1
     2    12    13    2
     3    12    14   am
     4    14    15    1
     5    15    16    1
     6    16    17    1
     7    17     5    1
     8     5     6   ar
     9     6     7   ar
    10     7     8   ar
    11     8     1    1
    12     1     2   am
    13     2     3    2
    14     2    20    1
    15    20    21    1
    16    21    22   ar
    17    22    23   ar
    18    23    24   ar
    19    24    28    1
    20    28    29   ar
    21    29    30   ar
    22    30    31   ar
    23    31    32   ar
    24    32    33    1
    25    32    34   ar
    26    24    25   ar
    27    25    26    1
    28    25    27   ar
    29     8     9   ar
    30     9    10   ar
    31    17    18    1
    32    18    19    1
    33    19    14    1
    34    10     5   ar
    35    27    21   ar
    36    34    28   ar
    37     1     4    1
@<TRIPOS>MOLECULE
*****
 34 37 0 0 0
SMALL
GASTEIGER

@<TRIPOS>ATOM
      1 N          -0.3429    4.6313   20.7999 N.am    1  UNL1       -0.2691
      2 C           0.0820    3.2956   20.2655 C.2     1  UNL1        0.2316
      3 O          -0.8661    2.1340   20.3098 O.2     1  UNL1       -0.2744
      4 H           0.2794    5.3936   20.7708 H       1  UNL1        0.1563
      5 C          -4.4615    5.1536   22.5358 C.ar    1  UNL1        0.0675
      6 C          -3.3501    4.6189   23.3895 C.ar    1  UNL1        0.0190
      7 C          -1.9772    4.4448   22.8108 C.ar    1  UNL1        0.0358
      8 C          -1.7158    4.8054   21.3785 C.ar    1  UNL1        0.1343
      9 N          -2.8272    5.3401   20.5249 N.ar    1  UNL1       -0.2277
     10 C          -4.2001    5.5142   21.1035 C.ar    1  UNL1        0.1147
     11 C         -10.9155    4.6996   24.8574 C.3     1  UNL1        0.0948
     12 C          -9.9531    5.8501   24.8505 C.2     1  UNL1        0.2262
     13 O         -10.3636    7.1747   25.4222 O.2     1  UNL1       -0.2749
     14 N          -8.5802    5.6760   24.2718 N.am    1  UNL1       -0.2760
     15 C          -8.1697    4.3514   23.7001 C.3     1  UNL1        0.1148
     16 C          -6.7969    4.1773   23.1214 C.3     1  UNL1        0.1124
     17 N          -5.8344    5.3278   23.1145 N.pl3   1  UNL1       -0.3028
     18 C          -6.2449    6.6524   23.6862 C.3     1  UNL1        0.1124
     19 C          -7.6178    6.8265   24.2648 C.3     1  UNL1        0.1148
     20 C           1.4549    3.1215   19.6869 C.3     1  UNL1        0.1132
     21 C           2.1007    1.7676   19.6824 C.ar    1  UNL1        0.0058
     22 C           2.2564    1.0067   20.9656 C.ar    1  UNL1        0.0950
     23 N           2.9023   -0.3472   20.9611 N.ar    1  UNL1       -0.2445
     24 C           3.3923   -0.9401   19.6733 C.ar    1  UNL1        0.0775
     25 C           3.2365   -0.1791   18.3901 C.ar    1  UNL1       -0.0045
     26 C           3.7266   -0.7720   17.1023 C.3     1  UNL1        0.0326
     27 C           2.5907    1.1747   18.3946 C.ar    1  UNL1       -0.0050
     28 C           4.0381   -2.2939   19.6688 C.ar    1  UNL1        0.0227
     29 C           3.2473   -3.5007   19.2588 C.ar    1  UNL1        0.0223
     30 C           3.8931   -4.8546   19.2542 C.ar    1  UNL1        0.1013
     31 N           5.3297   -5.0017   19.6597 N.ar    1  UNL1       -0.2165
     32 C           6.1206   -3.7948   20.0697 C.ar    1  UNL1        0.2224
     33 F           7.5572   -3.9418   20.4752 F       1  UNL1       -0.1832
     34 C           5.4748   -2.4409   20.0743 C.ar    1  UNL1        0.0512
@<TRIPOS>BOND
     1    11    12    1
     2    12    13    2
     3    12    14   am
     4    14    15    1
     5    15    16    1
     6    16    17    1
     7    17     5    1
     8     5     6   ar
     9     6     7   ar
    10     7     8   ar
    11     8     1    1
    12     1     2   am
    13     2     3    2
    14     2    20    1
    15    20    21    1
    16    21    22   ar
    17    22    23   ar
    18    23    24   ar
    19    24    28    1
    20    28    29   ar
    21    29    30   ar
    22    30    31   ar
    23    31    32   ar
    24    32    33    1
    25    32    34   ar
    26    24    25   ar
    27    25    26    1
    28    25    27   ar
    29     8     9   ar
    30     9    10   ar
    31    17    18    1
    32    18    19    1
    33    19    14    1
    34    10     5   ar
    35    27    21   ar
    36    34    28   ar
    37     1     4    1
@<TRIPOS>MOLECULE
*****
 34 37 0 0 0
SMALL
GASTEIGER

@<TRIPOS>ATOM
      1 N           7.7480   -3.2462   31.6306 N.am    1  UNL1       -0.2691
      2 C           7.3274   -3.3875   30.1978 C.2     1  UNL1        0.2316
      3 O           6.1281   -2.6424   29.6912 O.2     1  UNL1       -0.2744
      4 H           8.5352   -3.7353   31.9631 H       1  UNL1        0.1563
      5 C           5.4122   -0.5871   34.4096 C.ar    1  UNL1        0.0675
      6 C           6.8472   -0.2758   34.1034 C.ar    1  UNL1        0.0190
      7 C           7.6258   -1.1622   33.1771 C.ar    1  UNL1        0.0358
      8 C           6.9694   -2.3599   32.5570 C.ar    1  UNL1        0.1343
      9 N           5.5344   -2.6712   32.8631 N.ar    1  UNL1       -0.2277
     10 C           4.7558   -1.7848   33.7895 C.ar    1  UNL1        0.1147
     11 C           1.3664    3.9931   37.5565 C.3     1  UNL1        0.0948
     12 C           2.2978    2.9584   38.1149 C.2     1  UNL1        0.2262
     13 O           2.4505    2.8101   39.5997 O.2     1  UNL1       -0.2749
     14 N           3.0764    2.0721   37.1886 N.am    1  UNL1       -0.2760
     15 C           2.9236    2.2204   35.7038 C.3     1  UNL1        0.1148
     16 C           3.7022    1.3340   34.7775 C.3     1  UNL1        0.1124
     17 N           4.6336    0.2993   35.3359 N.pl3   1  UNL1       -0.3028
     18 C           4.7864    0.1510   36.8207 C.3     1  UNL1        0.1124
     19 C           4.0077    1.0374   37.7470 C.3     1  UNL1        0.1148
     20 C           8.1060   -4.2739   29.2715 C.3     1  UNL1        0.1132
     21 C           7.8224   -4.2531   27.7986 C.ar    1  UNL1        0.0058
     22 C           7.1457   -5.4233   27.1485 C.ar    1  UNL1        0.0950
     23 N           6.8620   -5.4025   25.6757 N.ar    1  UNL1       -0.2445
     24 C           7.2550   -4.2114   24.8530 C.ar    1  UNL1        0.0775
     25 C           7.9317   -3.0411   25.5032 C.ar    1  UNL1       -0.0045
     26 C           8.3248   -1.8500   24.6805 C.3     1  UNL1        0.0326
     27 C           8.2154   -3.0620   26.9759 C.ar    1  UNL1       -0.0050
     28 C           6.9714   -4.1905   23.3803 C.ar    1  UNL1        0.0227
     29 C           8.0258   -4.6279   22.4072 C.ar    1  UNL1        0.0223
     30 C           7.7422   -4.6070   20.9343 C.ar    1  UNL1        0.1013
     31 N           6.4042   -4.1488   20.4347 N.ar    1  UNL1       -0.2165
     32 C           5.3497   -3.7114   21.4078 C.ar    1  UNL1        0.2224
     33 F           4.0117   -3.2531   20.9081 F       1  UNL1       -0.1832
     34 C           5.6334   -3.7323   22.8806 C.ar    1  UNL1        0.0512
@<TRIPOS>BOND
     1    11    12    1
     2    12    13    2
     3    12    14   am
     4    14    15    1
     5    15    16    1
     6    16    17    1
     7    17     5    1
     8     5     6   ar
     9     6     7   ar
    10     7     8   ar
    11     8     1    1
    12     1     2   am
    13     2     3    2
    14     2    20    1
    15    20    21    1
    16    21    22   ar
    17    22    23   ar
    18    23    24   ar
    19    24    28    1
    20    28    29   ar
    21    29    30   ar
    22    30    31   ar
    23    31    32   ar
    24    32    33    1
    25    32    34   ar
    26    24    25   ar
    27    25    26    1
    28    25    27   ar
    29     8     9   ar
    30     9    10   ar
    31    17    18    1
    32    18    19    1
    33    19    14    1
    34    10     5   ar
    35    27    21   ar
    36    34    28   ar
    37     1     4    1
@<TRIPOS>MOLECULE
*****
 34 37 0 0 0
SMALL
GASTEIGER

@<TRIPOS>ATOM
      1 N           1.9151    2.4121   28.9549 N.am    1  UNL1       -0.2691
      2 C           1.7593    1.6180   30.2178 C.2     1  UNL1        0.2316
      3 O           0.4057    1.1171   30.6267 O.2     1  UNL1       -0.2744
      4 H           2.8034    2.7409   28.6866 H       1  UNL1        0.1563
      5 C          -1.6779    3.2915   26.3922 C.ar    1  UNL1        0.0675
      6 C          -0.9573    1.9837   26.2500 C.ar    1  UNL1        0.0190
      7 C           0.2404    1.6906   27.1042 C.ar    1  UNL1        0.0358
      8 C           0.7174    2.7052   28.1007 C.ar    1  UNL1        0.1343
      9 N          -0.0033    4.0130   28.2429 N.ar    1  UNL1       -0.2277
     10 C          -1.2009    4.3061   27.3886 C.ar    1  UNL1        0.1147
     11 C          -7.7719    4.8409   23.6151 C.3     1  UNL1        0.0948
     12 C          -6.4686    4.4640   22.9754 C.2     1  UNL1        0.2262
     13 O          -6.3629    4.3803   21.4815 O.2     1  UNL1       -0.2749
     14 N          -5.2709    4.1709   23.8296 N.am    1  UNL1       -0.2760
     15 C          -5.3766    4.2546   25.3235 C.3     1  UNL1        0.1148
     16 C          -4.1789    3.9615   26.1777 C.3     1  UNL1        0.1124
     17 N          -2.8756    3.5846   25.5380 N.pl3   1  UNL1       -0.3028
     18 C          -2.7699    3.5009   24.0441 C.3     1  UNL1        0.1124
     19 C          -3.9676    3.7940   23.1899 C.3     1  UNL1        0.1148
     20 C           2.9569    1.3249   31.0721 C.3     1  UNL1        0.1132
     21 C           2.9273    1.6393   32.5385 C.ar    1  UNL1        0.0058
     22 C           2.0171    2.7128   33.0571 C.ar    1  UNL1        0.0950
     23 N           1.9875    3.0272   34.5236 N.ar    1  UNL1       -0.2445
     24 C           2.8680    2.2679   35.4713 C.ar    1  UNL1        0.0775
     25 C           3.7782    1.1943   34.9526 C.ar    1  UNL1       -0.0045
     26 C           4.6587    0.4350   35.9003 C.3     1  UNL1        0.0326
     27 C           3.8078    0.8800   33.4862 C.ar    1  UNL1       -0.0050
     28 C           2.8384    2.5822   36.9377 C.ar    1  UNL1        0.0227
     29 C           3.7574    3.6261   37.4996 C.ar    1  UNL1        0.0223
     30 C           3.7278    3.9404   38.9661 C.ar    1  UNL1        0.1013
     31 N           2.7792    3.2109   39.8705 N.ar    1  UNL1       -0.2165
     32 C           1.8602    2.1670   39.3085 C.ar    1  UNL1        0.2224
     33 F           0.9116    1.4375   40.2129 F       1  UNL1       -0.1832
     34 C           1.8898    1.8527   37.8421 C.ar    1  UNL1        0.0512
@<TRIPOS>BOND
     1    11    12    1
     2    12    13    2
     3    12    14   am
     4    14    15    1
     5    15    16    1
     6    16    17    1
     7    17     5    1
     8     5     6   ar
     9     6     7   ar
    10     7     8   ar
    11     8     1    1
    12     1     2   am
    13     2     3    2
    14     2    20    1
    15    20    21    1
    16    21    22   ar
    17    22    23   ar
    18    23    24   ar
    19    24    28    1
    20    28    29   ar
    21    29    30   ar
    22    30    31   ar
    23    31    32   ar
    24    32    33    1
    25    32    34   ar
    26    24    25   ar
    27    25    26    1
    28    25    27   ar
    29     8     9   ar
    30     9    10   ar
    31    17    18    1
    32    18    19    1
    33    19    14    1
    34    10     5   ar
    35    27    21   ar
    36    34    28   ar
    37     1     4    1
