@<TRIPOS>MOLECULE
*****
 41 44 0 0 0
SMALL
GASTEIGER

@<TRIPOS>ATOM
      1 C           1.7677    4.2817   18.7321 C.2     1  UNL1        0.2683
      2 O           2.1969    5.6882   18.4363 O.2     1  UNL1       -0.2682
      3 N           2.7383    3.1504   18.5643 N.am    1  UNL1       -0.2740
      4 C           4.1631    3.2710   18.1110 C.3     1  UNL1        0.1032
      5 C           4.7599    1.8950   18.0869 C.3     1  UNL1        0.1021
      6 C           3.7039    0.9240   18.5254 C.3     1  UNL1        0.0521
      7 C           2.4545    1.6999   18.8204 C.3     1  UNL1        0.0986
      8 C           3.8684   -0.5619   18.6473 C.ar    1  UNL1       -0.0241
      9 C           4.8564   -1.2810   17.7774 C.ar    1  UNL1       -0.0022
     10 C           5.0210   -2.7669   17.8993 C.ar    1  UNL1        0.0293
     11 C           4.1975   -3.5338   18.8912 C.ar    1  UNL1        0.1398
     12 F           4.3620   -5.0198   19.0132 F       1  UNL1       -0.2042
     13 C           3.2095   -2.8147   19.7612 C.ar    1  UNL1        0.0251
     14 C           3.0450   -1.3287   19.6392 C.ar    1  UNL1       -0.0235
     15 C           2.0570   -0.6097   20.5091 C.3     1  UNL1        0.0308
     16 C          -3.8314    3.1808   20.5863 C.3     1  UNL1        0.0538
     17 C          -2.4316    3.4560   20.1227 C.ar    1  UNL1        0.0785
     18 C          -1.2799    3.2761   21.0667 C.ar    1  UNL1        0.1137
     19 N           0.1198    3.5513   20.6032 N.ar    1  UNL1       -0.2364
     20 C           0.3679    4.0065   19.1956 C.ar    1  UNL1        0.1537
     21 C          -0.7838    4.1864   18.2516 C.ar    1  UNL1        0.1221
     22 N          -2.1836    3.9112   18.7152 N.ar    1  UNL1       -0.2448
     23 C           6.1658    1.5505   17.6935 C.2     1  UNL1        0.2275
     24 O           6.5354    1.4494   16.2434 O.2     1  UNL1       -0.2748
     25 N           7.2020    1.3071   18.7504 N.am    1  UNL1       -0.2736
     26 C           8.6079    0.9625   18.3570 C.3     1  UNL1        0.1152
     27 C           6.8324    1.4082   20.2006 C.3     1  UNL1        0.1202
     28 C           6.4062    0.1826   20.9532 C.ar    1  UNL1       -0.0024
     29 C           7.0332   -1.1442   20.6425 C.ar    1  UNL1        0.0012
     30 C           6.6069   -2.3697   21.3952 C.ar    1  UNL1        0.0711
     31 C           5.5538   -2.2684   22.4584 C.ar    1  UNL1        0.0077
     32 C           4.9268   -0.9417   22.7691 C.ar    1  UNL1        0.0711
     33 C           5.3531    0.2839   22.0165 C.ar    1  UNL1        0.0012
     34 C           7.2339   -3.6965   21.0845 C.3     1  UNL1        0.4186
     35 F           7.8609   -5.0233   20.7738 F       1  UNL1       -0.1659
     36 F           6.7358   -4.2380   22.3916 F       1  UNL1       -0.1659
     37 F           7.7321   -3.1550   19.7773 F       1  UNL1       -0.1659
     38 C           3.8736   -0.8404   23.8324 C.3     1  UNL1        0.4186
     39 F           2.8205   -0.7391   24.8957 F       1  UNL1       -0.1659
     40 F           4.1916   -2.2363   24.2803 F       1  UNL1       -0.1659
     41 F           3.5556    0.5554   23.3845 F       1  UNL1       -0.1659
@<TRIPOS>BOND
     1    16    17    1
     2    17    18   ar
     3    18    19   ar
     4    19    20   ar
     5    20     1    1
     6     1     2    2
     7     1     3   am
     8     3     4    1
     9     4     5    1
    10     5    23    1
    11    23    24    2
    12    23    25   am
    13    25    26    1
    14    25    27    1
    15    27    28    1
    16    28    29   ar
    17    29    30   ar
    18    30    34    1
    19    34    35    1
    20    34    36    1
    21    34    37    1
    22    30    31   ar
    23    31    32   ar
    24    32    38    1
    25    38    39    1
    26    38    40    1
    27    38    41    1
    28    32    33   ar
    29     5     6    1
    30     6     8    1
    31     8     9   ar
    32     9    10   ar
    33    10    11   ar
    34    11    12    1
    35    11    13   ar
    36    13    14   ar
    37    14    15    1
    38     6     7    1
    39    20    21   ar
    40    21    22   ar
    41    22    17   ar
    42     7     3    1
    43    33    28   ar
    44    14     8   ar
@<TRIPOS>MOLECULE
*****
 41 44 0 0 0
SMALL
GASTEIGER

@<TRIPOS>ATOM
      1 C           1.7565    4.3019   18.7916 C.2     1  UNL1        0.2683
      2 O           2.1855    5.7119   18.5126 O.2     1  UNL1       -0.2682
      3 N           2.7289    3.1734   18.6159 N.am    1  UNL1       -0.2740
      4 C           4.1555    3.3002   18.1699 C.3     1  UNL1        0.1032
      5 C           4.7538    1.9251   18.1337 C.3     1  UNL1        0.1021
      6 C           3.6970    0.9485   18.5573 C.3     1  UNL1        0.0521
      7 C           2.4456    1.7200   18.8553 C.3     1  UNL1        0.0986
      8 C           3.8626   -0.5384   18.6642 C.ar    1  UNL1       -0.0241
      9 C           4.8616   -1.2460   17.7974 C.ar    1  UNL1       -0.0022
     10 C           5.0272   -2.7331   17.9042 C.ar    1  UNL1        0.0293
     11 C           4.1937   -3.5125   18.8779 C.ar    1  UNL1        0.1398
     12 F           4.3593   -4.9995   18.9847 F       1  UNL1       -0.2042
     13 C           3.1947   -2.8048   19.7446 C.ar    1  UNL1        0.0251
     14 C           3.0291   -1.3178   19.6377 C.ar    1  UNL1       -0.0235
     15 C           2.0301   -0.6103   20.5045 C.3     1  UNL1        0.0308
     16 C          -3.8491    3.1757   20.6106 C.3     1  UNL1        0.0538
     17 C          -2.4477    3.4573   20.1558 C.ar    1  UNL1        0.0785
     18 C          -1.3042    3.3115   21.1156 C.ar    1  UNL1        0.1137
     19 N           0.0972    3.5930   20.6608 N.ar    1  UNL1       -0.2364
     20 C           0.3551    4.0203   19.2463 C.ar    1  UNL1        0.1537
     21 C          -0.7884    4.1661   18.2866 C.ar    1  UNL1        0.1221
     22 N          -2.1898    3.8846   18.7413 N.ar    1  UNL1       -0.2448
     23 C           6.1617    1.5862   17.7425 C.2     1  UNL1        0.2275
     24 O           6.5377    1.5019   16.2929 O.2     1  UNL1       -0.2748
     25 N           7.1936    1.3316   18.8010 N.am    1  UNL1       -0.2736
     26 C           8.6014    0.9927   18.4098 C.3     1  UNL1        0.1152
     27 C           6.8175    1.4159   20.2507 C.3     1  UNL1        0.1202
     28 C           6.3915    0.1811   20.9880 C.ar    1  UNL1       -0.0024
     29 C           5.3394    0.2693   22.0536 C.ar    1  UNL1        0.0012
     30 C           4.9134   -0.9656   22.7909 C.ar    1  UNL1        0.0711
     31 C           5.5394   -2.2886   22.4627 C.ar    1  UNL1        0.0077
     32 C           6.5914   -2.3768   21.3972 C.ar    1  UNL1        0.0711
     33 C           7.0175   -1.1419   20.6598 C.ar    1  UNL1        0.0012
     34 C           3.8613   -0.8773   23.8565 C.3     1  UNL1        0.4186
     35 F           2.8093   -0.7891   24.9220 F       1  UNL1       -0.1659
     36 F           3.4394    0.4619   23.3290 F       1  UNL1       -0.1659
     37 F           4.2833   -2.2167   24.3840 F       1  UNL1       -0.1659
     38 C           7.2175   -3.6998   21.0690 C.3     1  UNL1        0.4186
     39 F           7.8435   -5.0228   20.7408 F       1  UNL1       -0.1659
     40 F           6.6716   -4.2740   22.3427 F       1  UNL1       -0.1659
     41 F           7.7633   -3.1256   19.7953 F       1  UNL1       -0.1659
@<TRIPOS>BOND
     1    16    17    1
     2    17    18   ar
     3    18    19   ar
     4    19    20   ar
     5    20     1    1
     6     1     2    2
     7     1     3   am
     8     3     4    1
     9     4     5    1
    10     5    23    1
    11    23    24    2
    12    23    25   am
    13    25    26    1
    14    25    27    1
    15    27    28    1
    16    28    29   ar
    17    29    30   ar
    18    30    34    1
    19    34    35    1
    20    34    36    1
    21    34    37    1
    22    30    31   ar
    23    31    32   ar
    24    32    38    1
    25    38    39    1
    26    38    40    1
    27    38    41    1
    28    32    33   ar
    29     5     6    1
    30     6     8    1
    31     8     9   ar
    32     9    10   ar
    33    10    11   ar
    34    11    12    1
    35    11    13   ar
    36    13    14   ar
    37    14    15    1
    38     6     7    1
    39    20    21   ar
    40    21    22   ar
    41    22    17   ar
    42     7     3    1
    43    33    28   ar
    44    14     8   ar
@<TRIPOS>MOLECULE
*****
 41 44 0 0 0
SMALL
GASTEIGER

@<TRIPOS>ATOM
      1 C          -0.7975    3.6851   21.2272 C.2     1  UNL1        0.2683
      2 O          -0.0647    3.8727   19.9319 O.2     1  UNL1       -0.2682
      3 N          -0.0496    3.2666   22.4582 N.am    1  UNL1       -0.2740
      4 C           1.4240    3.0003   22.5467 C.3     1  UNL1        0.1032
      5 C           1.7404    2.6100   23.9602 C.3     1  UNL1        0.1021
      6 C           0.4623    2.6350   24.7451 C.3     1  UNL1        0.0521
      7 C          -0.6439    3.0407   23.8169 C.3     1  UNL1        0.0986
      8 C           0.3162    2.3111   26.2023 C.ar    1  UNL1       -0.0241
      9 C          -0.1908    0.9639   26.6240 C.ar    1  UNL1       -0.0022
     10 C          -0.3369    0.6399   28.0813 C.ar    1  UNL1        0.0293
     11 C           0.0240    1.6633   29.1170 C.ar    1  UNL1        0.1398
     12 F          -0.1221    1.3393   30.5743 F       1  UNL1       -0.2042
     13 C           0.5310    3.0105   28.6953 C.ar    1  UNL1        0.0251
     14 C           0.6772    3.3344   27.2379 C.ar    1  UNL1       -0.0235
     15 C           1.1842    4.6816   26.8163 C.3     1  UNL1        0.0308
     16 C          -6.7204    4.6087   21.4842 C.3     1  UNL1        0.0538
     17 C          -5.2397    4.3778   21.4200 C.ar    1  UNL1        0.0785
     18 C          -4.7059    3.0664   20.9246 C.ar    1  UNL1        0.1137
     19 N          -3.2252    2.8355   20.8603 N.ar    1  UNL1       -0.2364
     20 C          -2.2783    3.9160   21.2915 C.ar    1  UNL1        0.1537
     21 C          -2.8120    5.2273   21.7869 C.ar    1  UNL1        0.1221
     22 N          -4.2928    5.4582   21.8511 N.ar    1  UNL1       -0.2448
     23 C           3.0966    2.2567   24.4947 C.2     1  UNL1        0.2275
     24 O           3.9932    3.3312   25.0345 O.2     1  UNL1       -0.2748
     25 N           3.5563    0.8289   24.4894 N.am    1  UNL1       -0.2736
     26 C           4.9125    0.4756   25.0239 C.3     1  UNL1        0.1152
     27 C           2.6596   -0.2457   23.9495 C.3     1  UNL1        0.1202
     28 C           2.7946   -0.6884   22.5227 C.ar    1  UNL1       -0.0024
     29 C           2.0113    0.0021   21.4459 C.ar    1  UNL1        0.0012
     30 C           2.1463   -0.4407   20.0191 C.ar    1  UNL1        0.0711
     31 C           3.0645   -1.5740   19.6692 C.ar    1  UNL1        0.0077
     32 C           3.8478   -2.2645   20.7460 C.ar    1  UNL1        0.0711
     33 C           3.7128   -1.8217   22.1728 C.ar    1  UNL1        0.0012
     34 C           1.3630    0.2498   18.9422 C.3     1  UNL1        0.4186
     35 F           0.5797    0.9404   17.8654 F       1  UNL1       -0.1659
     36 F           2.5625    0.2078   18.0427 F       1  UNL1       -0.1659
     37 F           0.1634    0.2919   19.8418 F       1  UNL1       -0.1659
     38 C           4.7660   -3.3978   20.3961 C.3     1  UNL1        0.4186
     39 F           5.6843   -4.5312   20.0463 F       1  UNL1       -0.1659
     40 F           4.3389   -4.1265   21.6358 F       1  UNL1       -0.1659
     41 F           5.1931   -2.6692   19.1565 F       1  UNL1       -0.1659
@<TRIPOS>BOND
     1    16    17    1
     2    17    18   ar
     3    18    19   ar
     4    19    20   ar
     5    20     1    1
     6     1     2    2
     7     1     3   am
     8     3     4    1
     9     4     5    1
    10     5    23    1
    11    23    24    2
    12    23    25   am
    13    25    26    1
    14    25    27    1
    15    27    28    1
    16    28    29   ar
    17    29    30   ar
    18    30    34    1
    19    34    35    1
    20    34    36    1
    21    34    37    1
    22    30    31   ar
    23    31    32   ar
    24    32    38    1
    25    38    39    1
    26    38    40    1
    27    38    41    1
    28    32    33   ar
    29     5     6    1
    30     6     8    1
    31     8     9   ar
    32     9    10   ar
    33    10    11   ar
    34    11    12    1
    35    11    13   ar
    36    13    14   ar
    37    14    15    1
    38     6     7    1
    39    20    21   ar
    40    21    22   ar
    41    22    17   ar
    42     7     3    1
    43    33    28   ar
    44    14     8   ar
@<TRIPOS>MOLECULE
*****
 41 44 0 0 0
SMALL
GASTEIGER

@<TRIPOS>ATOM
      1 C          -2.7062    3.6861   19.4522 C.2     1  UNL1        0.2683
      2 O          -3.2463    3.6143   18.0547 O.2     1  UNL1       -0.2682
      3 N          -1.2453    3.4577   19.7043 N.am    1  UNL1       -0.2740
      4 C          -0.2088    3.1496   18.6648 C.3     1  UNL1        0.1032
      5 C           1.1128    2.9987   19.3583 C.3     1  UNL1        0.1021
      6 C           0.8930    3.2136   20.8265 C.3     1  UNL1        0.0521
      7 C          -0.5643    3.4972   21.0404 C.3     1  UNL1        0.0986
      8 C           1.9456    3.1551   21.8934 C.ar    1  UNL1       -0.0241
      9 C           3.0878    4.1272   21.8742 C.ar    1  UNL1       -0.0022
     10 C           4.1405    4.0688   22.9411 C.ar    1  UNL1        0.0293
     11 C           4.0510    3.0380   24.0273 C.ar    1  UNL1        0.1398
     12 F           5.1037    2.9795   25.0943 F       1  UNL1       -0.2042
     13 C           2.9089    2.0659   24.0465 C.ar    1  UNL1        0.0251
     14 C           1.8561    2.1244   22.9795 C.ar    1  UNL1       -0.0235
     15 C           0.7141    1.1523   22.9988 C.3     1  UNL1        0.0308
     16 C          -6.3894    4.8872   24.0339 C.3     1  UNL1        0.0538
     17 C          -5.4686    4.5870   22.8885 C.ar    1  UNL1        0.0785
     18 C          -5.0909    3.1681   22.5819 C.ar    1  UNL1        0.1137
     19 N          -4.1701    2.8678   21.4365 N.ar    1  UNL1       -0.2364
     20 C          -3.6270    3.9864   20.5976 C.ar    1  UNL1        0.1537
     21 C          -4.0047    5.4053   20.9042 C.ar    1  UNL1        0.1221
     22 N          -4.9255    5.7056   22.0496 N.ar    1  UNL1       -0.2448
     23 C           2.4239    2.6877   18.6993 C.2     1  UNL1        0.2275
     24 O           3.2044    3.7795   18.0296 O.2     1  UNL1       -0.2748
     25 N           2.9544    1.2847   18.7100 N.am    1  UNL1       -0.2736
     26 C           4.2655    0.9736   18.0511 C.3     1  UNL1        0.1152
     27 C           2.1739    0.1927   19.3798 C.3     1  UNL1        0.1202
     28 C           2.8921   -0.9542   20.0268 C.ar    1  UNL1       -0.0024
     29 C           3.2765   -2.1538   19.2124 C.ar    1  UNL1        0.0012
     30 C           3.9948   -3.3007   19.8596 C.ar    1  UNL1        0.0711
     31 C           4.3287   -3.2480   21.3210 C.ar    1  UNL1        0.0077
     32 C           3.9443   -2.0484   22.1353 C.ar    1  UNL1        0.0711
     33 C           3.2260   -0.9015   21.4882 C.ar    1  UNL1        0.0012
     34 C           4.3792   -4.5003   19.0452 C.3     1  UNL1        0.4186
     35 F           4.7636   -5.6999   18.2308 F       1  UNL1       -0.1659
     36 F           3.4455   -5.3496   19.8556 F       1  UNL1       -0.1659
     37 F           5.3129   -3.6509   18.2348 F       1  UNL1       -0.1659
     38 C           4.2781   -1.9957   23.5968 C.3     1  UNL1        0.4186
     39 F           4.6119   -1.9428   25.0582 F       1  UNL1       -0.1659
     40 F           3.0130   -1.2331   23.8581 F       1  UNL1       -0.1659
     41 F           5.5431   -2.7582   23.3354 F       1  UNL1       -0.1659
@<TRIPOS>BOND
     1    16    17    1
     2    17    18   ar
     3    18    19   ar
     4    19    20   ar
     5    20     1    1
     6     1     2    2
     7     1     3   am
     8     3     4    1
     9     4     5    1
    10     5    23    1
    11    23    24    2
    12    23    25   am
    13    25    26    1
    14    25    27    1
    15    27    28    1
    16    28    29   ar
    17    29    30   ar
    18    30    34    1
    19    34    35    1
    20    34    36    1
    21    34    37    1
    22    30    31   ar
    23    31    32   ar
    24    32    38    1
    25    38    39    1
    26    38    40    1
    27    38    41    1
    28    32    33   ar
    29     5     6    1
    30     6     8    1
    31     8     9   ar
    32     9    10   ar
    33    10    11   ar
    34    11    12    1
    35    11    13   ar
    36    13    14   ar
    37    14    15    1
    38     6     7    1
    39    20    21   ar
    40    21    22   ar
    41    22    17   ar
    42     7     3    1
    43    33    28   ar
    44    14     8   ar
@<TRIPOS>MOLECULE
*****
 41 44 0 0 0
SMALL
GASTEIGER

@<TRIPOS>ATOM
      1 C          -2.7330    3.6746   19.5657 C.2     1  UNL1        0.2683
      2 O          -3.2897    3.5987   18.1749 O.2     1  UNL1       -0.2682
      3 N          -1.2691    3.4475   19.8009 N.am    1  UNL1       -0.2740
      4 C          -0.2449    3.1372   18.7498 C.3     1  UNL1        0.1032
      5 C           1.0850    2.9888   19.4278 C.3     1  UNL1        0.1021
      6 C           0.8826    3.2074   20.8980 C.3     1  UNL1        0.0521
      7 C          -0.5722    3.4909   21.1286 C.3     1  UNL1        0.0986
      8 C           1.9479    3.1522   21.9524 C.ar    1  UNL1       -0.0241
      9 C           3.0990    4.1129   21.9066 C.ar    1  UNL1       -0.0022
     10 C           4.1645    4.0578   22.9610 C.ar    1  UNL1        0.0293
     11 C           4.0788    3.0418   24.0613 C.ar    1  UNL1        0.1398
     12 F           5.1442    2.9867   25.1158 F       1  UNL1       -0.2042
     13 C           2.9277    2.0811   24.1071 C.ar    1  UNL1        0.0251
     14 C           1.8623    2.1363   23.0527 C.ar    1  UNL1       -0.0235
     15 C           0.7113    1.1756   23.0986 C.3     1  UNL1        0.0308
     16 C          -6.3617    4.8860   24.1879 C.3     1  UNL1        0.0538
     17 C          -5.4545    4.5831   23.0323 C.ar    1  UNL1        0.0785
     18 C          -5.1338    3.1600   22.6836 C.ar    1  UNL1        0.1137
     19 N          -4.2266    2.8571   21.5280 N.ar    1  UNL1       -0.2364
     20 C          -3.6402    3.9774   20.7212 C.ar    1  UNL1        0.1537
     21 C          -3.9609    5.4006   21.0700 C.ar    1  UNL1        0.1221
     22 N          -4.8681    5.7034   22.2255 N.ar    1  UNL1       -0.2448
     23 C           2.3882    2.6766   18.7541 C.2     1  UNL1        0.2275
     24 O           3.1596    3.7668   18.0714 O.2     1  UNL1       -0.2748
     25 N           2.9200    1.2740   18.7630 N.am    1  UNL1       -0.2736
     26 C           4.2233    0.9619   18.0892 C.3     1  UNL1        0.1152
     27 C           2.1486    0.1837   19.4457 C.3     1  UNL1        0.1202
     28 C           2.8754   -0.9627   20.0841 C.ar    1  UNL1       -0.0024
     29 C           3.2116   -0.9173   21.5452 C.ar    1  UNL1        0.0012
     30 C           3.9385   -2.0638   22.1835 C.ar    1  UNL1        0.0711
     31 C           4.3291   -3.2555   21.3606 C.ar    1  UNL1        0.0077
     32 C           3.9930   -3.3009   19.8996 C.ar    1  UNL1        0.0711
     33 C           3.2661   -2.1544   19.2613 C.ar    1  UNL1        0.0012
     34 C           4.2746   -2.0184   23.6446 C.3     1  UNL1        0.4186
     35 F           4.6108   -1.9730   25.1058 F       1  UNL1       -0.1659
     36 F           5.4953   -2.8519   23.3897 F       1  UNL1       -0.1659
     37 F           3.0539   -1.1848   23.8996 F       1  UNL1       -0.1659
     38 C           4.3837   -4.4926   19.0767 C.3     1  UNL1        0.4186
     39 F           4.7743   -5.6844   18.2538 F       1  UNL1       -0.1659
     40 F           3.3164   -5.3057   19.7477 F       1  UNL1       -0.1659
     41 F           5.4508   -3.6796   18.4057 F       1  UNL1       -0.1659
@<TRIPOS>BOND
     1    16    17    1
     2    17    18   ar
     3    18    19   ar
     4    19    20   ar
     5    20     1    1
     6     1     2    2
     7     1     3   am
     8     3     4    1
     9     4     5    1
    10     5    23    1
    11    23    24    2
    12    23    25   am
    13    25    26    1
    14    25    27    1
    15    27    28    1
    16    28    29   ar
    17    29    30   ar
    18    30    34    1
    19    34    35    1
    20    34    36    1
    21    34    37    1
    22    30    31   ar
    23    31    32   ar
    24    32    38    1
    25    38    39    1
    26    38    40    1
    27    38    41    1
    28    32    33   ar
    29     5     6    1
    30     6     8    1
    31     8     9   ar
    32     9    10   ar
    33    10    11   ar
    34    11    12    1
    35    11    13   ar
    36    13    14   ar
    37    14    15    1
    38     6     7    1
    39    20    21   ar
    40    21    22   ar
    41    22    17   ar
    42     7     3    1
    43    33    28   ar
    44    14     8   ar
@<TRIPOS>MOLECULE
*****
 41 44 0 0 0
SMALL
GASTEIGER

@<TRIPOS>ATOM
      1 C          -0.1745    5.0915   18.2239 C.2     1  UNL1        0.2683
      2 O           0.1216    6.5469   18.0142 O.2     1  UNL1       -0.2682
      3 N           0.9506    4.1062   18.3384 N.am    1  UNL1       -0.2740
      4 C           2.4141    4.4264   18.2633 C.3     1  UNL1        0.1032
      5 C           3.1779    3.1457   18.4266 C.3     1  UNL1        0.1021
      6 C           2.1863    2.0339   18.6027 C.3     1  UNL1        0.0521
      7 C           0.8099    2.6275   18.5482 C.3     1  UNL1        0.0986
      8 C           2.5138    0.5834   18.7988 C.ar    1  UNL1       -0.0241
      9 C           3.6709   -0.0298   18.0674 C.ar    1  UNL1       -0.0022
     10 C           3.9985   -1.4804   18.2635 C.ar    1  UNL1        0.0293
     11 C           3.1687   -2.3179   19.1911 C.ar    1  UNL1        0.1398
     12 F           3.4962   -3.7685   19.3872 F       1  UNL1       -0.2042
     13 C           2.0116   -1.7046   19.9225 C.ar    1  UNL1        0.0251
     14 C           1.6841   -0.2540   19.7264 C.ar    1  UNL1       -0.0235
     15 C           0.5270    0.3591   20.4578 C.3     1  UNL1        0.0308
     16 C          -5.8595    3.2111   18.6050 C.3     1  UNL1        0.0538
     17 C          -4.4383    3.6812   18.5097 C.ar    1  UNL1        0.0785
     18 C          -3.8157    3.9200   17.1661 C.ar    1  UNL1        0.1137
     19 N          -2.3945    4.3901   17.0708 N.ar    1  UNL1       -0.2364
     20 C          -1.5958    4.6214   18.3192 C.ar    1  UNL1        0.1537
     21 C          -2.2183    4.3826   19.6628 C.ar    1  UNL1        0.1221
     22 N          -3.6395    3.9125   19.7581 N.ar    1  UNL1       -0.2448
     23 C           4.6709    3.0020   18.4157 C.2     1  UNL1        0.2275
     24 O           5.4001    2.8478   17.1140 O.2     1  UNL1       -0.2748
     25 N           5.4348    3.0124   19.7066 N.am    1  UNL1       -0.2736
     26 C           6.9278    2.8687   19.6957 C.3     1  UNL1        0.1152
     27 C           4.7056    3.1666   21.0083 C.3     1  UNL1        0.1202
     28 C           4.2073    1.9539   21.7371 C.ar    1  UNL1       -0.0024
     29 C           4.8875    0.6309   21.5445 C.ar    1  UNL1        0.0012
     30 C           4.3891   -0.5817   22.2733 C.ar    1  UNL1        0.0711
     31 C           3.2105   -0.4714   23.1946 C.ar    1  UNL1        0.0077
     32 C           2.5303    0.8515   23.3872 C.ar    1  UNL1        0.0711
     33 C           3.0287    2.0642   22.6584 C.ar    1  UNL1        0.0012
     34 C           5.0693   -1.9047   22.0807 C.3     1  UNL1        0.4186
     35 F           5.7495   -3.2276   21.8882 F       1  UNL1       -0.1659
     36 F           6.2270   -1.2137   21.4234 F       1  UNL1       -0.1659
     37 F           3.9115   -2.5956   22.7382 F       1  UNL1       -0.1659
     38 C           1.3517    0.9619   24.3085 C.3     1  UNL1        0.4186
     39 F           0.1732    1.0722   25.2298 F       1  UNL1       -0.1659
     40 F           2.0748    0.1374   25.3320 F       1  UNL1       -0.1659
     41 F           0.6288    1.7863   23.2850 F       1  UNL1       -0.1659
@<TRIPOS>BOND
     1    16    17    1
     2    17    18   ar
     3    18    19   ar
     4    19    20   ar
     5    20     1    1
     6     1     2    2
     7     1     3   am
     8     3     4    1
     9     4     5    1
    10     5    23    1
    11    23    24    2
    12    23    25   am
    13    25    26    1
    14    25    27    1
    15    27    28    1
    16    28    29   ar
    17    29    30   ar
    18    30    34    1
    19    34    35    1
    20    34    36    1
    21    34    37    1
    22    30    31   ar
    23    31    32   ar
    24    32    38    1
    25    38    39    1
    26    38    40    1
    27    38    41    1
    28    32    33   ar
    29     5     6    1
    30     6     8    1
    31     8     9   ar
    32     9    10   ar
    33    10    11   ar
    34    11    12    1
    35    11    13   ar
    36    13    14   ar
    37    14    15    1
    38     6     7    1
    39    20    21   ar
    40    21    22   ar
    41    22    17   ar
    42     7     3    1
    43    33    28   ar
    44    14     8   ar
@<TRIPOS>MOLECULE
*****
 41 44 0 0 0
SMALL
GASTEIGER

@<TRIPOS>ATOM
      1 C           0.0600    1.6704   26.0954 C.2     1  UNL1        0.2683
      2 O          -1.3452    2.1811   26.2151 O.2     1  UNL1       -0.2682
      3 N           0.7841    1.7669   24.7853 N.am    1  UNL1       -0.2740
      4 C           0.2351    2.3459   23.5151 C.3     1  UNL1        0.1032
      5 C           1.2960    2.2382   22.4601 C.3     1  UNL1        0.1021
      6 C           2.5007    1.5928   23.0784 C.3     1  UNL1        0.0521
      7 C           2.1843    1.3015   24.5154 C.3     1  UNL1        0.0986
      8 C           3.7945    1.2915   22.3819 C.ar    1  UNL1       -0.0241
      9 C           4.4934    2.3646   21.6009 C.ar    1  UNL1       -0.0022
     10 C           5.7873    2.0634   20.9043 C.ar    1  UNL1        0.0293
     11 C           6.3823    0.6889   20.9889 C.ar    1  UNL1        0.1398
     12 F           7.6762    0.3877   20.2924 F       1  UNL1       -0.2042
     13 C           5.6834   -0.3841   21.7700 C.ar    1  UNL1        0.0251
     14 C           4.3895   -0.0828   22.4665 C.ar    1  UNL1       -0.0235
     15 C           3.6907   -1.1559   23.2475 C.3     1  UNL1        0.0308
     16 C           2.7849   -0.7586   30.8573 C.3     1  UNL1        0.0538
     17 C           2.1037   -0.1514   29.6668 C.ar    1  UNL1        0.0785
     18 C           2.9152    0.5289   28.6044 C.ar    1  UNL1        0.1137
     19 N           2.2339    1.1361   27.4139 N.ar    1  UNL1       -0.2364
     20 C           0.7412    1.0631   27.2859 C.ar    1  UNL1        0.1537
     21 C          -0.0702    0.3829   28.3483 C.ar    1  UNL1        0.1221
     22 N           0.6110   -0.2243   29.5388 N.ar    1  UNL1       -0.2448
     23 C           1.1738    2.6957   21.0368 C.2     1  UNL1        0.2275
     24 O           1.1075    4.1609   20.7231 O.2     1  UNL1       -0.2748
     25 N           1.1178    1.6878   19.9273 N.am    1  UNL1       -0.2736
     26 C           0.9955    2.1453   18.5040 C.3     1  UNL1        0.1152
     27 C           1.1841    0.2225   20.2410 C.3     1  UNL1        0.1202
     28 C           2.3109   -0.6093   19.7038 C.ar    1  UNL1       -0.0024
     29 C           2.3711   -2.0768   20.0083 C.ar    1  UNL1        0.0012
     30 C           3.4979   -2.9085   19.4710 C.ar    1  UNL1        0.0711
     31 C           4.5644   -2.2728   18.6293 C.ar    1  UNL1        0.0077
     32 C           4.5042   -0.8053   18.3249 C.ar    1  UNL1        0.0711
     33 C           3.3773    0.0265   18.8622 C.ar    1  UNL1        0.0012
     34 C           3.5581   -4.3761   19.7754 C.3     1  UNL1        0.4186
     35 F           3.6184   -5.8437   20.0798 F       1  UNL1       -0.1659
     36 F           2.6589   -4.6552   18.6078 F       1  UNL1       -0.1659
     37 F           4.4574   -4.0970   20.9431 F       1  UNL1       -0.1659
     38 C           5.5706   -0.1694   17.4833 C.3     1  UNL1        0.4186
     39 F           6.6370    0.4665   16.6417 F       1  UNL1       -0.1659
     40 F           4.8015    1.1185   17.4820 F       1  UNL1       -0.1659
     41 F           6.3397   -1.4573   17.4846 F       1  UNL1       -0.1659
@<TRIPOS>BOND
     1    16    17    1
     2    17    18   ar
     3    18    19   ar
     4    19    20   ar
     5    20     1    1
     6     1     2    2
     7     1     3   am
     8     3     4    1
     9     4     5    1
    10     5    23    1
    11    23    24    2
    12    23    25   am
    13    25    26    1
    14    25    27    1
    15    27    28    1
    16    28    29   ar
    17    29    30   ar
    18    30    34    1
    19    34    35    1
    20    34    36    1
    21    34    37    1
    22    30    31   ar
    23    31    32   ar
    24    32    38    1
    25    38    39    1
    26    38    40    1
    27    38    41    1
    28    32    33   ar
    29     5     6    1
    30     6     8    1
    31     8     9   ar
    32     9    10   ar
    33    10    11   ar
    34    11    12    1
    35    11    13   ar
    36    13    14   ar
    37    14    15    1
    38     6     7    1
    39    20    21   ar
    40    21    22   ar
    41    22    17   ar
    42     7     3    1
    43    33    28   ar
    44    14     8   ar
@<TRIPOS>MOLECULE
*****
 41 44 0 0 0
SMALL
GASTEIGER

@<TRIPOS>ATOM
      1 C           4.4272   -1.5529   26.7835 C.2     1  UNL1        0.2683
      2 O           3.2061   -1.5635   27.6546 O.2     1  UNL1       -0.2682
      3 N           4.4361   -0.7534   25.5144 N.am    1  UNL1       -0.2740
      4 C           3.3048    0.0801   24.9894 C.3     1  UNL1        0.1032
      5 C           3.7475    0.7016   23.6979 C.3     1  UNL1        0.1021
      6 C           5.1523    0.2522   23.4247 C.3     1  UNL1        0.0521
      7 C           5.5779   -0.6471   24.5473 C.3     1  UNL1        0.0986
      8 C           5.9852    0.6348   22.2374 C.ar    1  UNL1       -0.0241
      9 C           6.0990    2.0750   21.8339 C.ar    1  UNL1       -0.0022
     10 C           6.9319    2.4577   20.6465 C.ar    1  UNL1        0.0293
     11 C           7.6512    1.4001   19.8627 C.ar    1  UNL1        0.1398
     12 F           8.4841    1.7828   18.6754 F       1  UNL1       -0.2042
     13 C           7.5374   -0.0401   20.2663 C.ar    1  UNL1        0.0251
     14 C           6.7044   -0.4228   21.4536 C.ar    1  UNL1       -0.0235
     15 C           6.5907   -1.8629   21.8571 C.3     1  UNL1        0.0308
     16 C           9.2756   -4.7087   28.3754 C.3     1  UNL1        0.0538
     17 C           8.0635   -3.9197   27.9774 C.ar    1  UNL1        0.0785
     18 C           7.5079   -4.0472   26.5900 C.ar    1  UNL1        0.1137
     19 N           6.2958   -3.2582   26.1920 N.ar    1  UNL1       -0.2364
     20 C           5.6393   -2.3419   27.1815 C.ar    1  UNL1        0.1537
     21 C           6.1948   -2.2144   28.5689 C.ar    1  UNL1        0.1221
     22 N           7.4069   -3.0034   28.9669 N.ar    1  UNL1       -0.2448
     23 C           2.9290    1.6125   22.8317 C.2     1  UNL1        0.2275
     24 O           2.8853    3.0836   23.1213 O.2     1  UNL1       -0.2748
     25 N           2.1542    1.0523   21.6759 N.am    1  UNL1       -0.2736
     26 C           1.3358    1.9633   20.8097 C.3     1  UNL1        0.1152
     27 C           2.1979   -0.4188   21.3862 C.3     1  UNL1        0.1202
     28 C           3.1030   -0.9452   20.3121 C.ar    1  UNL1       -0.0024
     29 C           3.7752    0.0047   19.3656 C.ar    1  UNL1        0.0012
     30 C           4.6803   -0.5218   18.2915 C.ar    1  UNL1        0.0711
     31 C           4.9132   -1.9981   18.1640 C.ar    1  UNL1        0.0077
     32 C           4.2411   -2.9480   19.1105 C.ar    1  UNL1        0.0711
     33 C           3.3360   -2.4215   20.1846 C.ar    1  UNL1        0.0012
     34 C           5.3524    0.4281   17.3450 C.3     1  UNL1        0.4186
     35 F           6.0246    1.3779   16.3984 F       1  UNL1       -0.1659
     36 F           4.2865    1.4488   17.6124 F       1  UNL1       -0.1659
     37 F           6.4185   -0.5928   17.0775 F       1  UNL1       -0.1659
     38 C           4.4740   -4.4243   18.9830 C.3     1  UNL1        0.4186
     39 F           4.7070   -5.9006   18.8555 F       1  UNL1       -0.1659
     40 F           5.9206   -4.2256   19.3266 F       1  UNL1       -0.1659
     41 F           3.0275   -4.6229   18.6394 F       1  UNL1       -0.1659
@<TRIPOS>BOND
     1    16    17    1
     2    17    18   ar
     3    18    19   ar
     4    19    20   ar
     5    20     1    1
     6     1     2    2
     7     1     3   am
     8     3     4    1
     9     4     5    1
    10     5    23    1
    11    23    24    2
    12    23    25   am
    13    25    26    1
    14    25    27    1
    15    27    28    1
    16    28    29   ar
    17    29    30   ar
    18    30    34    1
    19    34    35    1
    20    34    36    1
    21    34    37    1
    22    30    31   ar
    23    31    32   ar
    24    32    38    1
    25    38    39    1
    26    38    40    1
    27    38    41    1
    28    32    33   ar
    29     5     6    1
    30     6     8    1
    31     8     9   ar
    32     9    10   ar
    33    10    11   ar
    34    11    12    1
    35    11    13   ar
    36    13    14   ar
    37    14    15    1
    38     6     7    1
    39    20    21   ar
    40    21    22   ar
    41    22    17   ar
    42     7     3    1
    43    33    28   ar
    44    14     8   ar
@<TRIPOS>MOLECULE
*****
 41 44 0 0 0
SMALL
GASTEIGER

@<TRIPOS>ATOM
      1 C          -1.4390    3.8507   21.9955 C.2     1  UNL1        0.2683
      2 O          -0.8718    4.0522   20.6216 O.2     1  UNL1       -0.2682
      3 N          -0.5399    3.4468   23.1262 N.am    1  UNL1       -0.2740
      4 C           0.9383    3.2089   23.0355 C.3     1  UNL1        0.1032
      5 C           1.4307    2.8249   24.3994 C.3     1  UNL1        0.1021
      6 C           0.2566    2.8254   25.3331 C.3     1  UNL1        0.0521
      7 C          -0.9612    3.2098   24.5463 C.3     1  UNL1        0.0986
      8 C           0.2939    2.4990   26.7966 C.ar    1  UNL1       -0.0241
      9 C          -0.0277    1.1103   27.2637 C.ar    1  UNL1       -0.0022
     10 C           0.0096    0.7837   28.7273 C.ar    1  UNL1        0.0293
     11 C           0.3685    1.8460   29.7237 C.ar    1  UNL1        0.1398
     12 F           0.4058    1.5195   31.1873 F       1  UNL1       -0.2042
     13 C           0.6902    3.2346   29.2566 C.ar    1  UNL1        0.0251
     14 C           0.6529    3.5611   27.7931 C.ar    1  UNL1       -0.0235
     15 C           0.9745    4.9497   27.3260 C.3     1  UNL1        0.0308
     16 C          -7.3039    4.6605   22.9685 C.3     1  UNL1        0.0538
     17 C          -5.8377    4.4581   22.7253 C.ar    1  UNL1        0.0785
     18 C          -5.3592    3.2326   22.0048 C.ar    1  UNL1        0.1137
     19 N          -3.8929    3.0301   21.7615 N.ar    1  UNL1       -0.2364
     20 C          -2.9052    4.0532   22.2388 C.ar    1  UNL1        0.1537
     21 C          -3.3838    5.2786   22.9593 C.ar    1  UNL1        0.1221
     22 N          -4.8500    5.4811   23.2025 N.ar    1  UNL1       -0.2448
     23 C           2.8481    2.4978   24.7654 C.2     1  UNL1        0.2275
     24 O           3.7485    3.5676   25.3080 O.2     1  UNL1       -0.2748
     25 N           3.3649    1.1008   24.5886 N.am    1  UNL1       -0.2736
     26 C           4.7823    0.7736   24.9546 C.3     1  UNL1        0.1152
     27 C           2.4644    0.0309   24.0460 C.3     1  UNL1        0.1202
     28 C           2.6301   -0.4432   22.6326 C.ar    1  UNL1       -0.0024
     29 C           3.5452   -1.5924   22.3293 C.ar    1  UNL1        0.0012
     30 C           3.7107   -2.0664   20.9158 C.ar    1  UNL1        0.0711
     31 C           2.9613   -1.3913   19.8056 C.ar    1  UNL1        0.0077
     32 C           2.0463   -0.2421   20.1089 C.ar    1  UNL1        0.0711
     33 C           1.8807    0.2320   21.5224 C.ar    1  UNL1        0.0012
     34 C           4.6258   -3.2157   20.6126 C.3     1  UNL1        0.4186
     35 F           5.5409   -4.3649   20.3093 F       1  UNL1       -0.1659
     36 F           4.6599   -2.8078   19.1696 F       1  UNL1       -0.1659
     37 F           4.5917   -3.6236   22.0556 F       1  UNL1       -0.1659
     38 C           1.2968    0.4331   18.9987 C.3     1  UNL1        0.4186
     39 F           0.5473    1.1083   17.8886 F       1  UNL1       -0.1659
     40 F           0.1959    0.7838   19.9554 F       1  UNL1       -0.1659
     41 F           2.3976    0.0824   18.0421 F       1  UNL1       -0.1659
@<TRIPOS>BOND
     1    16    17    1
     2    17    18   ar
     3    18    19   ar
     4    19    20   ar
     5    20     1    1
     6     1     2    2
     7     1     3   am
     8     3     4    1
     9     4     5    1
    10     5    23    1
    11    23    24    2
    12    23    25   am
    13    25    26    1
    14    25    27    1
    15    27    28    1
    16    28    29   ar
    17    29    30   ar
    18    30    34    1
    19    34    35    1
    20    34    36    1
    21    34    37    1
    22    30    31   ar
    23    31    32   ar
    24    32    38    1
    25    38    39    1
    26    38    40    1
    27    38    41    1
    28    32    33   ar
    29     5     6    1
    30     6     8    1
    31     8     9   ar
    32     9    10   ar
    33    10    11   ar
    34    11    12    1
    35    11    13   ar
    36    13    14   ar
    37    14    15    1
    38     6     7    1
    39    20    21   ar
    40    21    22   ar
    41    22    17   ar
    42     7     3    1
    43    33    28   ar
    44    14     8   ar
