@<TRIPOS>MOLECULE
*****
 32 35 0 0 0
SMALL
GASTEIGER

@<TRIPOS>ATOM
      1 N          -8.4878  -17.8913   23.0560 N.3     1  UNL1       -0.2622
      2 C          -9.9851  -17.9166   23.1428 C.3     1  UNL1        0.0981
      3 C         -10.6579  -18.5907   24.3017 C.3     1  UNL1        0.0224
      4 C         -12.1551  -18.6160   24.3885 C.3     1  UNL1        0.0065
      5 C         -12.9796  -17.9672   23.3165 C.3     1  UNL1        0.0277
      6 C         -12.3069  -17.2932   22.1576 C.ar    1  UNL1       -0.0073
      7 C         -13.1314  -16.6443   21.0855 C.ar    1  UNL1       -0.0015
      8 C         -12.4586  -15.9703   19.9267 C.ar    1  UNL1        0.0203
      9 C         -10.9614  -15.9450   19.8398 C.ar    1  UNL1        0.0985
     10 N         -10.1369  -16.5938   20.9119 N.ar    1  UNL1       -0.2471
     11 C         -10.8096  -17.2679   22.0708 C.ar    1  UNL1        0.0695
     12 C          -7.7426  -16.6170   23.3217 C.3     1  UNL1        0.1292
     13 C          -6.1572  -15.0962   26.6269 C.3     1  UNL1        0.0298
     14 C          -6.2867  -15.6107   25.2238 C.2     1  UNL1       -0.0038
     15 C          -7.6131  -16.1025   24.7247 C.2     1  UNL1        0.1272
     16 F          -8.8099  -16.0797   25.6287 F       1  UNL1       -0.2080
     17 C          -5.0899  -15.6335   24.3199 C.3     1  UNL1        0.0899
     18 N          -5.0205  -14.7050   23.1439 N.3     1  UNL1       -0.3177
     19 H          -5.7468  -14.9527   22.4719 H       1  UNL1        0.1191
     20 H          -4.1054  -14.7856   22.7007 H       1  UNL1        0.1191
     21 C          -7.7358  -19.1403   22.7034 C.3     1  UNL1        0.0889
     22 C          -6.5051  -19.0591   21.8496 C.3     1  UNL1        0.0748
     23 C          -5.1656  -18.8302   22.4845 C.3     1  UNL1        0.0432
     24 C          -3.9349  -18.7489   21.6307 C.ar    1  UNL1       -0.0234
     25 C          -2.5954  -18.5200   22.2657 C.ar    1  UNL1       -0.0045
     26 C          -1.3648  -18.4387   21.4119 C.ar    1  UNL1       -0.0003
     27 C          -1.4737  -18.5864   19.9232 C.ar    1  UNL1       -0.0003
     28 C          -2.8133  -18.8153   19.2882 C.ar    1  UNL1       -0.0032
     29 C          -4.0439  -18.8965   20.1420 C.ar    1  UNL1       -0.0103
     30 C          -5.3835  -19.1255   19.5071 C.3     1  UNL1        0.0953
     31 N          -6.6141  -19.2067   20.3608 N.3     1  UNL1       -0.2934
     32 H          -7.0344  -20.1194   20.1855 H       1  UNL1        0.1236
@<TRIPOS>BOND
     1    13    14    1
     2    14    17    1
     3    17    18    1
     4    14    15    2
     5    15    16    1
     6    15    12    1
     7    12     1    1
     8     1    21    1
     9    22    21    1
    10    22    23    1
    11    23    24    1
    12    24    25   ar
    13    25    26   ar
    14    26    27   ar
    15    27    28   ar
    16    28    29   ar
    17    29    30    1
    18    30    31    1
    19     2     1    1
    20     2     3    1
    21     3     4    1
    22     4     5    1
    23     5     6    1
    24     6     7   ar
    25     7     8   ar
    26     8     9   ar
    27     9    10   ar
    28    10    11   ar
    29    31    22    1
    30    11     2    1
    31    29    24   ar
    32    11     6   ar
    33    18    19    1
    34    18    20    1
    35    31    32    1
@<TRIPOS>MOLECULE
*****
 32 35 0 0 0
SMALL
GASTEIGER

@<TRIPOS>ATOM
      1 N          -8.5645  -17.1362   22.5012 N.3     1  UNL1       -0.2622
      2 C          -9.9992  -16.9808   22.0919 C.3     1  UNL1        0.0981
      3 C         -10.3424  -16.2689   20.8170 C.3     1  UNL1        0.0224
      4 C         -11.7771  -16.1135   20.4077 C.3     1  UNL1        0.0065
      5 C         -12.8685  -16.6699   21.2732 C.3     1  UNL1        0.0277
      6 C         -12.5252  -17.3817   22.5481 C.ar    1  UNL1       -0.0073
      7 C         -13.6166  -17.9381   23.4138 C.ar    1  UNL1       -0.0015
      8 C         -13.2734  -18.6500   24.6887 C.ar    1  UNL1        0.0203
      9 C         -11.8387  -18.8054   25.0980 C.ar    1  UNL1        0.0985
     10 N         -10.7473  -18.2490   24.2324 N.ar    1  UNL1       -0.2471
     11 C         -11.0906  -17.5371   22.9575 C.ar    1  UNL1        0.0695
     12 C          -7.8078  -15.9604   23.0442 C.3     1  UNL1        0.1292
     13 C          -6.3924  -15.3088   26.6941 C.3     1  UNL1        0.0298
     14 C          -6.4396  -15.5520   25.2147 C.2     1  UNL1       -0.0038
     15 C          -7.7606  -15.7171   24.5236 C.2     1  UNL1        0.1272
     16 F          -9.0344  -15.6389   25.3118 F       1  UNL1       -0.2080
     17 C          -5.1658  -15.6302   24.4265 C.3     1  UNL1        0.0899
     18 N          -4.9595  -14.7314   23.2435 N.3     1  UNL1       -0.3177
     19 H          -5.6280  -14.9732   22.5121 H       1  UNL1        0.1191
     20 H          -4.0104  -14.8485   22.8889 H       1  UNL1        0.1191
     21 C          -7.8865  -18.4675   22.3676 C.3     1  UNL1        0.0889
     22 C          -6.5929  -18.5783   21.6163 C.3     1  UNL1        0.0748
     23 C          -5.2893  -18.5359   22.3571 C.3     1  UNL1        0.0432
     24 C          -3.9957  -18.6467   21.6058 C.ar    1  UNL1       -0.0234
     25 C          -2.6921  -18.6043   22.3466 C.ar    1  UNL1       -0.0045
     26 C          -1.3986  -18.7152   21.5952 C.ar    1  UNL1       -0.0003
     27 C          -1.4087  -18.8684   20.1031 C.ar    1  UNL1       -0.0003
     28 C          -2.7123  -18.9108   19.3623 C.ar    1  UNL1       -0.0032
     29 C          -4.0058  -18.8000   20.1136 C.ar    1  UNL1       -0.0103
     30 C          -5.3094  -18.8424   19.3728 C.3     1  UNL1        0.0953
     31 N          -6.6029  -18.7315   20.1241 N.3     1  UNL1       -0.2934
     32 H          -7.1362  -19.5764   19.9185 H       1  UNL1        0.1236
@<TRIPOS>BOND
     1    13    14    1
     2    14    17    1
     3    17    18    1
     4    14    15    2
     5    15    16    1
     6    15    12    1
     7    12     1    1
     8     1    21    1
     9    22    21    1
    10    22    23    1
    11    23    24    1
    12    24    25   ar
    13    25    26   ar
    14    26    27   ar
    15    27    28   ar
    16    28    29   ar
    17    29    30    1
    18    30    31    1
    19     2     1    1
    20     2     3    1
    21     3     4    1
    22     4     5    1
    23     5     6    1
    24     6     7   ar
    25     7     8   ar
    26     8     9   ar
    27     9    10   ar
    28    10    11   ar
    29    31    22    1
    30    11     2    1
    31    29    24   ar
    32    11     6   ar
    33    18    19    1
    34    18    20    1
    35    31    32    1
@<TRIPOS>MOLECULE
*****
 32 35 0 0 0
SMALL
GASTEIGER

@<TRIPOS>ATOM
      1 N          -5.7545  -18.9945   21.2540 N.3     1  UNL1       -0.2622
      2 C          -5.2852  -18.2205   22.4501 C.3     1  UNL1        0.0981
      3 C          -4.0097  -18.6054   23.1392 C.3     1  UNL1        0.0224
      4 C          -3.5403  -17.8313   24.3353 C.3     1  UNL1        0.0065
      5 C          -4.3464  -16.6723   24.8421 C.3     1  UNL1        0.0277
      6 C          -5.6219  -16.2874   24.1529 C.ar    1  UNL1       -0.0073
      7 C          -6.4280  -15.1283   24.6598 C.ar    1  UNL1       -0.0015
      8 C          -7.7035  -14.7434   23.9706 C.ar    1  UNL1        0.0203
      9 C          -8.1728  -15.5175   22.7745 C.ar    1  UNL1        0.0985
     10 N          -7.3668  -16.6765   22.2677 N.ar    1  UNL1       -0.2471
     11 C          -6.0912  -17.0615   22.9569 C.ar    1  UNL1        0.0695
     12 C          -5.0630  -18.8270   19.9336 C.3     1  UNL1        0.1292
     13 C          -1.1057  -18.7293   19.6499 C.3     1  UNL1        0.0298
     14 C          -2.5264  -18.2774   19.8151 C.2     1  UNL1       -0.0038
     15 C          -3.6422  -19.2789   19.7684 C.2     1  UNL1        0.1272
     16 F          -3.3373  -20.7322   19.5564 F       1  UNL1       -0.2080
     17 C          -2.8314  -16.8242   20.0270 C.3     1  UNL1        0.0899
     18 N          -2.4127  -16.1477   21.2986 N.3     1  UNL1       -0.3177
     19 H          -2.9298  -16.5467   22.0821 H       1  UNL1        0.1191
     20 H          -2.6107  -15.1492   21.2337 H       1  UNL1        0.1191
     21 C          -6.9155  -19.9362   21.3784 C.3     1  UNL1        0.0889
     22 C          -8.3061  -19.3958   21.5345 C.3     1  UNL1        0.0748
     23 C          -9.0250  -19.5418   22.8428 C.3     1  UNL1        0.0432
     24 C         -10.4157  -19.0014   22.9988 C.ar    1  UNL1       -0.0234
     25 C         -11.1346  -19.1474   24.3071 C.ar    1  UNL1       -0.0045
     26 C         -12.5251  -18.6071   24.4631 C.ar    1  UNL1       -0.0003
     27 C         -13.1967  -17.9207   23.3107 C.ar    1  UNL1       -0.0003
     28 C         -12.4778  -17.7747   22.0024 C.ar    1  UNL1       -0.0032
     29 C         -11.0872  -18.3151   21.8465 C.ar    1  UNL1       -0.0103
     30 C         -10.3682  -18.1691   20.5381 C.3     1  UNL1        0.0953
     31 N          -8.9777  -18.7095   20.3821 N.3     1  UNL1       -0.2934
     32 H          -8.3835  -17.9225   20.1213 H       1  UNL1        0.1236
@<TRIPOS>BOND
     1    13    14    1
     2    14    17    1
     3    17    18    1
     4    14    15    2
     5    15    16    1
     6    15    12    1
     7    12     1    1
     8     1    21    1
     9    22    21    1
    10    22    23    1
    11    23    24    1
    12    24    25   ar
    13    25    26   ar
    14    26    27   ar
    15    27    28   ar
    16    28    29   ar
    17    29    30    1
    18    30    31    1
    19     2     1    1
    20     2     3    1
    21     3     4    1
    22     4     5    1
    23     5     6    1
    24     6     7   ar
    25     7     8   ar
    26     8     9   ar
    27     9    10   ar
    28    10    11   ar
    29    31    22    1
    30    11     2    1
    31    29    24   ar
    32    11     6   ar
    33    18    19    1
    34    18    20    1
    35    31    32    1
@<TRIPOS>MOLECULE
*****
 32 35 0 0 0
SMALL
GASTEIGER

@<TRIPOS>ATOM
      1 N          -5.2267  -16.9689   23.1082 N.3     1  UNL1       -0.2622
      2 C          -4.0039  -17.1658   22.2621 C.3     1  UNL1        0.0981
      3 C          -2.8744  -16.1815   22.3357 C.3     1  UNL1        0.0224
      4 C          -1.6516  -16.3784   21.4895 C.3     1  UNL1        0.0065
      5 C          -1.5583  -17.5596   20.5698 C.3     1  UNL1        0.0277
      6 C          -2.6877  -18.5439   20.4961 C.ar    1  UNL1       -0.0073
      7 C          -2.5944  -19.7251   19.5763 C.ar    1  UNL1       -0.0015
      8 C          -3.7238  -20.7094   19.5027 C.ar    1  UNL1        0.0203
      9 C          -4.9466  -20.5126   20.3488 C.ar    1  UNL1        0.0985
     10 N          -5.0400  -19.3314   21.2686 N.ar    1  UNL1       -0.2471
     11 C          -3.9105  -18.3470   21.3423 C.ar    1  UNL1        0.0695
     12 C          -5.3478  -15.7545   23.9802 C.3     1  UNL1        0.1292
     13 C          -7.1926  -15.7324   27.4939 C.3     1  UNL1        0.0298
     14 C          -6.9435  -15.5777   26.0229 C.2     1  UNL1       -0.0038
     15 C          -5.5969  -15.9093   25.4513 C.2     1  UNL1        0.1272
     16 F          -4.4995  -16.3957   26.3507 F       1  UNL1       -0.2080
     17 C          -8.0410  -15.0913   25.1234 C.3     1  UNL1        0.0899
     18 N          -7.7489  -14.0600   24.0741 N.3     1  UNL1       -0.3177
     19 H          -7.4941  -13.1805   24.5234 H       1  UNL1        0.1191
     20 H          -8.5774  -13.9190   23.4961 H       1  UNL1        0.1191
     21 C          -6.3284  -17.9865   23.0823 C.3     1  UNL1        0.0889
     22 C          -7.7411  -17.5559   22.8196 C.3     1  UNL1        0.0748
     23 C          -8.8767  -18.2416   23.5198 C.3     1  UNL1        0.0432
     24 C         -10.2894  -17.8109   23.2571 C.ar    1  UNL1       -0.0234
     25 C         -11.4250  -18.4966   23.9572 C.ar    1  UNL1       -0.0045
     26 C         -12.8376  -18.0660   23.6945 C.ar    1  UNL1       -0.0003
     27 C         -13.1146  -16.9497   22.7316 C.ar    1  UNL1       -0.0003
     28 C         -11.9790  -16.2640   22.0315 C.ar    1  UNL1       -0.0032
     29 C         -10.5664  -16.6946   22.2942 C.ar    1  UNL1       -0.0103
     30 C          -9.4307  -16.0089   21.5941 C.3     1  UNL1        0.0953
     31 N          -8.0181  -16.4395   21.8568 N.3     1  UNL1       -0.2934
     32 H          -7.5204  -15.6201   22.2049 H       1  UNL1        0.1236
@<TRIPOS>BOND
     1    13    14    1
     2    14    17    1
     3    17    18    1
     4    14    15    2
     5    15    16    1
     6    15    12    1
     7    12     1    1
     8     1    21    1
     9    22    21    1
    10    22    23    1
    11    23    24    1
    12    24    25   ar
    13    25    26   ar
    14    26    27   ar
    15    27    28   ar
    16    28    29   ar
    17    29    30    1
    18    30    31    1
    19     2     1    1
    20     2     3    1
    21     3     4    1
    22     4     5    1
    23     5     6    1
    24     6     7   ar
    25     7     8   ar
    26     8     9   ar
    27     9    10   ar
    28    10    11   ar
    29    31    22    1
    30    11     2    1
    31    29    24   ar
    32    11     6   ar
    33    18    19    1
    34    18    20    1
    35    31    32    1
@<TRIPOS>MOLECULE
*****
 32 35 0 0 0
SMALL
GASTEIGER

@<TRIPOS>ATOM
      1 N         -13.1465   -3.9673   18.1916 N.3     1  UNL1       -0.2622
      2 C         -12.8689   -2.5202   17.9106 C.3     1  UNL1        0.0981
      3 C         -11.6640   -2.1300   17.1069 C.3     1  UNL1        0.0224
      4 C         -11.3864   -0.6830   16.8259 C.3     1  UNL1        0.0065
      5 C         -12.3136    0.3739   17.3487 C.3     1  UNL1        0.0277
      6 C         -13.5184   -0.0163   18.1524 C.ar    1  UNL1       -0.0073
      7 C         -14.4457    1.0406   18.6752 C.ar    1  UNL1       -0.0015
      8 C         -15.6505    0.6504   19.4790 C.ar    1  UNL1        0.0203
      9 C         -15.9282   -0.7967   19.7600 C.ar    1  UNL1        0.0985
     10 N         -15.0010   -1.8535   19.2372 N.ar    1  UNL1       -0.2471
     11 C         -13.7961   -1.4634   18.4334 C.ar    1  UNL1        0.0695
     12 C         -12.4347   -4.6635   19.3134 C.3     1  UNL1        0.1292
     13 C          -9.7419   -7.4142   18.3475 C.3     1  UNL1        0.0298
     14 C         -10.3822   -6.0779   18.5804 C.2     1  UNL1       -0.0038
     15 C         -11.7943   -5.9998   19.0805 C.2     1  UNL1        0.1272
     16 F         -12.5660   -7.2580   19.3477 F       1  UNL1       -0.2080
     17 C          -9.6106   -4.8197   18.3132 C.3     1  UNL1        0.0899
     18 N          -9.4424   -3.7983   19.3987 N.3     1  UNL1       -0.3177
     19 H         -10.3504   -3.3956   19.6304 H       1  UNL1        0.1191
     20 H          -8.8154   -3.0607   19.0773 H       1  UNL1        0.1191
     21 C         -14.1361   -4.7181   17.3508 C.3     1  UNL1        0.0889
     22 C         -15.2611   -5.4651   18.0039 C.3     1  UNL1        0.0748
     23 C         -15.3793   -6.9496   17.8250 C.3     1  UNL1        0.0432
     24 C         -16.5044   -7.6966   18.4781 C.ar    1  UNL1       -0.0234
     25 C         -16.6226   -9.1811   18.2991 C.ar    1  UNL1       -0.0045
     26 C         -17.7475   -9.9280   18.9522 C.ar    1  UNL1       -0.0003
     27 C         -18.7544   -9.1903   19.7842 C.ar    1  UNL1       -0.0003
     28 C         -18.6362   -7.7058   19.9631 C.ar    1  UNL1       -0.0032
     29 C         -17.5112   -6.9589   19.3100 C.ar    1  UNL1       -0.0103
     30 C         -17.3929   -5.4742   19.4889 C.3     1  UNL1        0.0953
     31 N         -16.2679   -4.7274   18.8359 N.3     1  UNL1       -0.2934
     32 H         -15.7500   -4.2635   19.5822 H       1  UNL1        0.1236
@<TRIPOS>BOND
     1    13    14    1
     2    14    17    1
     3    17    18    1
     4    14    15    2
     5    15    16    1
     6    15    12    1
     7    12     1    1
     8     1    21    1
     9    22    21    1
    10    22    23    1
    11    23    24    1
    12    24    25   ar
    13    25    26   ar
    14    26    27   ar
    15    27    28   ar
    16    28    29   ar
    17    29    30    1
    18    30    31    1
    19     2     1    1
    20     2     3    1
    21     3     4    1
    22     4     5    1
    23     5     6    1
    24     6     7   ar
    25     7     8   ar
    26     8     9   ar
    27     9    10   ar
    28    10    11   ar
    29    31    22    1
    30    11     2    1
    31    29    24   ar
    32    11     6   ar
    33    18    19    1
    34    18    20    1
    35    31    32    1
@<TRIPOS>MOLECULE
*****
 32 35 0 0 0
SMALL
GASTEIGER

@<TRIPOS>ATOM
      1 N         -14.4462   -5.9737   18.7308 N.3     1  UNL1       -0.2622
      2 C         -15.1155   -7.3098   18.6000 C.3     1  UNL1        0.0981
      3 C         -14.3510   -8.4819   18.0599 C.3     1  UNL1        0.0224
      4 C         -15.0202   -9.8179   17.9290 C.3     1  UNL1        0.0065
      5 C         -16.4539   -9.9819   18.3383 C.3     1  UNL1        0.0277
      6 C         -17.2184   -8.8098   18.8783 C.ar    1  UNL1       -0.0073
      7 C         -18.6522   -8.9737   19.2876 C.ar    1  UNL1       -0.0015
      8 C         -19.4167   -7.8016   19.8277 C.ar    1  UNL1        0.0203
      9 C         -18.7475   -6.4656   19.9585 C.ar    1  UNL1        0.0985
     10 N         -17.3138   -6.3016   19.5493 N.ar    1  UNL1       -0.2471
     11 C         -16.5492   -7.4737   19.0092 C.ar    1  UNL1        0.0695
     12 C         -13.4135   -5.7533   19.7961 C.3     1  UNL1        0.1292
     13 C          -9.7320   -4.8320   18.6350 C.3     1  UNL1        0.0298
     14 C         -10.9639   -5.6321   18.9387 C.2     1  UNL1       -0.0038
     15 C         -12.1816   -4.9532   19.4923 C.2     1  UNL1        0.1272
     16 F         -12.1674   -3.4742   19.7421 F       1  UNL1       -0.2080
     17 C         -10.9781   -7.1110   18.6889 C.3     1  UNL1        0.0899
     18 N          -9.7981   -7.9494   19.0821 N.3     1  UNL1       -0.3177
     19 H          -8.9915   -7.6882   18.5150 H       1  UNL1        0.1191
     20 H         -10.0154   -8.9345   18.9309 H       1  UNL1        0.1191
     21 C         -14.8098   -4.8581   17.7964 C.3     1  UNL1        0.0889
     22 C         -15.3156   -3.5562   18.3435 C.3     1  UNL1        0.0748
     23 C         -14.5477   -2.2911   18.0993 C.3     1  UNL1        0.0432
     24 C         -15.0536   -0.9892   18.6464 C.ar    1  UNL1       -0.0234
     25 C         -14.2857    0.2760   18.4022 C.ar    1  UNL1       -0.0045
     26 C         -14.7915    1.5778   18.9493 C.ar    1  UNL1       -0.0003
     27 C         -16.0653    1.6144   19.7407 C.ar    1  UNL1       -0.0003
     28 C         -16.8331    0.3492   19.9850 C.ar    1  UNL1       -0.0032
     29 C         -16.3273   -0.9525   19.4378 C.ar    1  UNL1       -0.0103
     30 C         -17.0952   -2.2178   19.6821 C.3     1  UNL1        0.0953
     31 N         -16.5893   -3.5196   19.1349 N.3     1  UNL1       -0.2934
     32 H         -17.3225   -3.8895   18.5300 H       1  UNL1        0.1236
@<TRIPOS>BOND
     1    13    14    1
     2    14    17    1
     3    17    18    1
     4    14    15    2
     5    15    16    1
     6    15    12    1
     7    12     1    1
     8     1    21    1
     9    22    21    1
    10    22    23    1
    11    23    24    1
    12    24    25   ar
    13    25    26   ar
    14    26    27   ar
    15    27    28   ar
    16    28    29   ar
    17    29    30    1
    18    30    31    1
    19     2     1    1
    20     2     3    1
    21     3     4    1
    22     4     5    1
    23     5     6    1
    24     6     7   ar
    25     7     8   ar
    26     8     9   ar
    27     9    10   ar
    28    10    11   ar
    29    31    22    1
    30    11     2    1
    31    29    24   ar
    32    11     6   ar
    33    18    19    1
    34    18    20    1
    35    31    32    1
@<TRIPOS>MOLECULE
*****
 32 35 0 0 0
SMALL
GASTEIGER

@<TRIPOS>ATOM
      1 N         -13.1723   -4.8052   18.5958 N.3     1  UNL1       -0.2622
      2 C         -13.6802   -3.4018   18.7457 C.3     1  UNL1        0.0981
      3 C         -14.9878   -3.1471   19.4350 C.3     1  UNL1        0.0224
      4 C         -15.4957   -1.7437   19.5849 C.3     1  UNL1        0.0065
      5 C         -14.6959   -0.5950   19.0456 C.3     1  UNL1        0.0277
      6 C         -13.3883   -0.8498   18.3563 C.ar    1  UNL1       -0.0073
      7 C         -12.5885    0.2989   17.8169 C.ar    1  UNL1       -0.0015
      8 C         -11.2809    0.0442   17.1276 C.ar    1  UNL1        0.0203
      9 C         -10.7730   -1.3592   16.9776 C.ar    1  UNL1        0.0985
     10 N         -11.5727   -2.5079   17.5170 N.ar    1  UNL1       -0.2471
     11 C         -12.8804   -2.2532   18.2063 C.ar    1  UNL1        0.0695
     12 C         -12.3082   -5.1691   17.4249 C.3     1  UNL1        0.1292
     13 C          -9.3833   -7.6319   18.4878 C.3     1  UNL1        0.0298
     14 C         -10.2597   -6.4162   18.4241 C.2     1  UNL1       -0.0038
     15 C         -11.4318   -6.3848   17.4886 C.2     1  UNL1        0.1272
     16 F         -11.7275   -7.5690   16.6168 F       1  UNL1       -0.2080
     17 C          -9.9640   -5.2319   19.2959 C.3     1  UNL1        0.0899
     18 N          -9.2452   -4.0439   18.7287 N.3     1  UNL1       -0.3177
     19 H          -8.2940   -4.3111   18.4753 H       1  UNL1        0.1191
     20 H          -9.2151   -3.2999   19.4258 H       1  UNL1        0.1191
     21 C         -13.5284   -5.8448   19.6167 C.3     1  UNL1        0.0889
     22 C         -14.4888   -6.9425   19.2660 C.3     1  UNL1        0.0748
     23 C         -15.9666   -6.7078   19.3706 C.3     1  UNL1        0.0432
     24 C         -16.9270   -7.8055   19.0198 C.ar    1  UNL1       -0.0234
     25 C         -18.4048   -7.5708   19.1244 C.ar    1  UNL1       -0.0045
     26 C         -19.3651   -8.6684   18.7737 C.ar    1  UNL1       -0.0003
     27 C         -18.8476  -10.0007   18.3183 C.ar    1  UNL1       -0.0003
     28 C         -17.3698  -10.2353   18.2137 C.ar    1  UNL1       -0.0032
     29 C         -16.4095   -9.1377   18.5644 C.ar    1  UNL1       -0.0103
     30 C         -14.9316   -9.3723   18.4598 C.3     1  UNL1        0.0953
     31 N         -13.9713   -8.2747   18.8106 N.3     1  UNL1       -0.2934
     32 H         -13.4050   -8.1023   17.9799 H       1  UNL1        0.1236
@<TRIPOS>BOND
     1    13    14    1
     2    14    17    1
     3    17    18    1
     4    14    15    2
     5    15    16    1
     6    15    12    1
     7    12     1    1
     8     1    21    1
     9    22    21    1
    10    22    23    1
    11    23    24    1
    12    24    25   ar
    13    25    26   ar
    14    26    27   ar
    15    27    28   ar
    16    28    29   ar
    17    29    30    1
    18    30    31    1
    19     2     1    1
    20     2     3    1
    21     3     4    1
    22     4     5    1
    23     5     6    1
    24     6     7   ar
    25     7     8   ar
    26     8     9   ar
    27     9    10   ar
    28    10    11   ar
    29    31    22    1
    30    11     2    1
    31    29    24   ar
    32    11     6   ar
    33    18    19    1
    34    18    20    1
    35    31    32    1
@<TRIPOS>MOLECULE
*****
 32 35 0 0 0
SMALL
GASTEIGER

@<TRIPOS>ATOM
      1 N         -13.5036   -3.2504   17.7798 N.3     1  UNL1       -0.2622
      2 C         -12.0774   -3.4870   17.3801 C.3     1  UNL1        0.0981
      3 C         -11.3590   -2.4793   16.5325 C.3     1  UNL1        0.0224
      4 C          -9.9327   -2.7159   16.1328 C.3     1  UNL1        0.0065
      5 C          -9.2249   -3.9603   16.5805 C.3     1  UNL1        0.0277
      6 C          -9.9433   -4.9680   17.4281 C.ar    1  UNL1       -0.0073
      7 C          -9.2355   -6.2124   17.8759 C.ar    1  UNL1       -0.0015
      8 C          -9.9539   -7.2201   18.7234 C.ar    1  UNL1        0.0203
      9 C         -11.3801   -6.9835   19.1231 C.ar    1  UNL1        0.0985
     10 N         -12.0880   -5.7392   18.6754 N.ar    1  UNL1       -0.2471
     11 C         -11.3695   -4.7314   17.8278 C.ar    1  UNL1        0.0695
     12 C         -13.8173   -2.3753   18.9570 C.3     1  UNL1        0.1292
     13 C         -14.8926    1.4374   18.7178 C.3     1  UNL1        0.0298
     14 C         -14.9799   -0.0544   18.8479 C.2     1  UNL1       -0.0038
     15 C         -13.7300   -0.8835   18.8269 C.2     1  UNL1        0.1272
     16 F         -12.3929   -0.2208   18.6759 F       1  UNL1       -0.2080
     17 C         -16.3171   -0.7171   18.9989 C.3     1  UNL1        0.0899
     18 N         -16.9809   -0.7689   20.3430 N.3     1  UNL1       -0.3177
     19 H         -16.4293   -1.3520   20.9723 H       1  UNL1        0.1191
     20 H         -17.9161   -1.1642   20.2453 H       1  UNL1        0.1191
     21 C         -14.6162   -3.8889   17.0024 C.3     1  UNL1        0.0889
     22 C         -15.0304   -5.2984   17.3056 C.3     1  UNL1        0.0748
     23 C         -16.0684   -5.5659   18.3548 C.3     1  UNL1        0.0432
     24 C         -16.4826   -6.9754   18.6580 C.ar    1  UNL1       -0.0234
     25 C         -17.5206   -7.2429   19.7072 C.ar    1  UNL1       -0.0045
     26 C         -17.9347   -8.6523   20.0103 C.ar    1  UNL1       -0.0003
     27 C         -17.3108   -9.7943   19.2643 C.ar    1  UNL1       -0.0003
     28 C         -16.2727   -9.5268   18.2151 C.ar    1  UNL1       -0.0032
     29 C         -15.8586   -8.1174   17.9119 C.ar    1  UNL1       -0.0103
     30 C         -14.8205   -7.8498   16.8627 C.3     1  UNL1        0.0953
     31 N         -14.4064   -6.4404   16.5595 N.3     1  UNL1       -0.2934
     32 H         -14.5963   -6.2841   15.5696 H       1  UNL1        0.1236
@<TRIPOS>BOND
     1    13    14    1
     2    14    17    1
     3    17    18    1
     4    14    15    2
     5    15    16    1
     6    15    12    1
     7    12     1    1
     8     1    21    1
     9    22    21    1
    10    22    23    1
    11    23    24    1
    12    24    25   ar
    13    25    26   ar
    14    26    27   ar
    15    27    28   ar
    16    28    29   ar
    17    29    30    1
    18    30    31    1
    19     2     1    1
    20     2     3    1
    21     3     4    1
    22     4     5    1
    23     5     6    1
    24     6     7   ar
    25     7     8   ar
    26     8     9   ar
    27     9    10   ar
    28    10    11   ar
    29    31    22    1
    30    11     2    1
    31    29    24   ar
    32    11     6   ar
    33    18    19    1
    34    18    20    1
    35    31    32    1
@<TRIPOS>MOLECULE
*****
 32 35 0 0 0
SMALL
GASTEIGER

@<TRIPOS>ATOM
      1 N          -6.5054  -17.3932   23.2325 N.3     1  UNL1       -0.2622
      2 C          -5.0887  -17.7325   22.8750 C.3     1  UNL1        0.0981
      3 C          -3.9546  -16.9924   23.5200 C.3     1  UNL1        0.0224
      4 C          -2.5379  -17.3317   23.1625 C.3     1  UNL1        0.0065
      5 C          -2.2552  -18.4111   22.1601 C.3     1  UNL1        0.0277
      6 C          -3.3893  -19.1512   21.5151 C.ar    1  UNL1       -0.0073
      7 C          -3.1067  -20.2306   20.5125 C.ar    1  UNL1       -0.0015
      8 C          -4.2408  -20.9707   19.8675 C.ar    1  UNL1        0.0203
      9 C          -5.6575  -20.6314   20.2250 C.ar    1  UNL1        0.0985
     10 N          -5.9401  -19.5521   21.2275 N.ar    1  UNL1       -0.2471
     11 C          -4.8060  -18.8119   21.8725 C.ar    1  UNL1        0.0695
     12 C          -6.8591  -15.9975   23.6531 C.3     1  UNL1        0.1292
     13 C          -8.2791  -15.3180   27.2961 C.3     1  UNL1        0.0298
     14 C          -7.3136  -15.5399   26.1698 C.2     1  UNL1       -0.0038
     15 C          -7.8246  -15.7756   24.7794 C.2     1  UNL1        0.1272
     16 F          -9.3011  -15.7893   24.5152 F       1  UNL1       -0.2080
     17 C          -5.8371  -15.5262   26.4340 C.3     1  UNL1        0.0899
     18 N          -5.0236  -14.3159   26.0827 N.3     1  UNL1       -0.3177
     19 H          -5.0171  -14.1928   25.0702 H       1  UNL1        0.1191
     20 H          -4.0678  -14.4402   26.4163 H       1  UNL1        0.1191
     21 C          -7.5684  -18.4496   23.1693 C.3     1  UNL1        0.0889
     22 C          -8.9422  -18.1027   22.6768 C.3     1  UNL1        0.0748
     23 C          -9.1079  -17.1971   21.4926 C.3     1  UNL1        0.0432
     24 C         -10.4817  -16.8503   21.0001 C.ar    1  UNL1       -0.0234
     25 C         -10.6474  -15.9447   19.8159 C.ar    1  UNL1       -0.0045
     26 C         -12.0212  -15.5979   19.3234 C.ar    1  UNL1       -0.0003
     27 C         -13.2291  -16.1567   20.0152 C.ar    1  UNL1       -0.0003
     28 C         -13.0634  -17.0622   21.1994 C.ar    1  UNL1       -0.0032
     29 C         -11.6897  -17.4091   21.6918 C.ar    1  UNL1       -0.0103
     30 C         -11.5239  -18.3147   22.8761 C.3     1  UNL1        0.0953
     31 N         -10.1502  -18.6615   23.3686 N.3     1  UNL1       -0.2934
     32 H         -10.0700  -19.6775   23.3263 H       1  UNL1        0.1236
@<TRIPOS>BOND
     1    13    14    1
     2    14    17    1
     3    17    18    1
     4    14    15    2
     5    15    16    1
     6    15    12    1
     7    12     1    1
     8     1    21    1
     9    22    21    1
    10    22    23    1
    11    23    24    1
    12    24    25   ar
    13    25    26   ar
    14    26    27   ar
    15    27    28   ar
    16    28    29   ar
    17    29    30    1
    18    30    31    1
    19     2     1    1
    20     2     3    1
    21     3     4    1
    22     4     5    1
    23     5     6    1
    24     6     7   ar
    25     7     8   ar
    26     8     9   ar
    27     9    10   ar
    28    10    11   ar
    29    31    22    1
    30    11     2    1
    31    29    24   ar
    32    11     6   ar
    33    18    19    1
    34    18    20    1
    35    31    32    1
