@<TRIPOS>MOLECULE
*****
 43 46 0 0 0
SMALL
GASTEIGER

@<TRIPOS>ATOM
      1 N           2.6727    0.9823   21.0780 N.am    1  UNL1       -0.2903
      2 C           1.5413    1.2553   22.0242 C.2     1  UNL1        0.3044
      3 O           0.1734    0.7126   21.7341 O.2     1  UNL1       -0.2525
      4 N           1.7779    2.0710   23.2606 N.am    1  UNL1       -0.2683
      5 H           3.5705    1.3385   21.2684 H       1  UNL1        0.1509
      6 H           2.6757    2.4272   23.4511 H       1  UNL1        0.1564
      7 C           0.6465    2.3440   24.2069 C.ar    1  UNL1        0.0514
      8 C           0.6213    1.6871   25.5552 C.ar    1  UNL1        0.0178
      9 C          -0.5101    1.9601   26.5014 C.ar    1  UNL1        0.0383
     10 C          -1.6163    2.8899   26.0994 C.ar    1  UNL1        0.0011
     11 C          -1.5911    3.5468   24.7512 C.ar    1  UNL1        0.0030
     12 C          -0.4597    3.2739   23.8049 C.ar    1  UNL1        0.0127
     13 C          -0.5353    1.3031   27.8497 C.ar    1  UNL1        0.1839
     14 N          -1.2004    0.0007   28.1836 N.ar    1  UNL1       -0.1081
     15 N          -0.9760   -0.2741   29.6411 N.ar    1  UNL1       -0.0227
     16 N          -0.1721    0.8584   30.2079 N.ar    1  UNL1       -0.0429
     17 N           0.1003    1.8332   29.1007 N.ar    1  UNL1       -0.2113
     18 C           0.8725    3.1133   29.2232 C.3     1  UNL1        0.1573
     19 C          -2.6974    4.4767   24.3492 C.3     1  UNL1        0.1072
     20 C          -1.8076    5.0840   23.3054 C.3     1  UNL1        0.0339
     21 C          -3.5871    3.8695   25.3930 C.3     1  UNL1        0.0339
     22 O          -3.8036    5.4066   23.9472 O.3     1  UNL1       -0.3827
     23 H          -3.4995    5.9773   23.2242 H       1  UNL1        0.2107
     24 C           2.4362    0.1666   19.8416 C.3     1  UNL1        0.0744
     25 C           2.3153   -1.3253   19.9391 C.3     1  UNL1        0.0197
     26 C           3.4999   -3.5475   19.3001 C.3     1  UNL1        0.0001
     27 C           3.5472   -2.1807   19.9162 C.3     1  UNL1        0.0017
     28 C           2.3206    0.8429   18.5076 C.3     1  UNL1        0.0369
     29 C           2.5726    2.3168   18.3897 C.3     1  UNL1        0.0738
     30 N           1.5511    3.2948   18.8898 N.3     1  UNL1       -0.2726
     31 C           1.9460    4.3529   19.8768 C.3     1  UNL1        0.0721
     32 C           0.9245    5.3308   20.3769 C.3     1  UNL1        0.0174
     33 C          -0.4920    5.2506   19.8899 C.3     1  UNL1        0.0031
     34 C          -0.8869    4.1925   18.9029 C.3     1  UNL1        0.0204
     35 C           0.1346    3.2146   18.4028 C.3     1  UNL1        0.0724
     36 C          -2.3034    4.1122   18.4159 C.3     1  UNL1        0.0277
     37 C          -3.4347    4.0867   19.4005 C.ar    1  UNL1       -0.0220
     38 C          -4.5669    5.0617   19.2675 C.ar    1  UNL1       -0.0020
     39 C          -5.6982    5.0363   20.2521 C.ar    1  UNL1        0.0293
     40 C          -5.6974    4.0358   21.3697 C.ar    1  UNL1        0.1401
     41 F          -6.8287    4.0103   22.3544 F       1  UNL1       -0.2042
     42 C          -4.5653    3.0608   21.5028 C.ar    1  UNL1        0.0293
     43 C          -3.4339    3.0863   20.5181 C.ar    1  UNL1       -0.0020
@<TRIPOS>BOND
     1    26    27    1
     2    27    25    1
     3    24    25    1
     4    24    28    1
     5    28    29    1
     6    29    30    1
     7    30    31    1
     8    31    32    1
     9    32    33    1
    10    33    34    1
    11    34    36    1
    12    36    37    1
    13    37    38   ar
    14    38    39   ar
    15    39    40   ar
    16    40    41    1
    17    40    42   ar
    18    42    43   ar
    19    34    35    1
    20    24     1    1
    21     1     2   am
    22     2     3    2
    23     2     4   am
    24     4     7    1
    25     7     8   ar
    26     8     9   ar
    27     9    13    1
    28    13    14   ar
    29    14    15   ar
    30    15    16   ar
    31    16    17   ar
    32    17    18    1
    33     9    10   ar
    34    10    11   ar
    35    11    19    1
    36    19    20    1
    37    19    21    1
    38    19    22    1
    39    11    12   ar
    40    35    30    1
    41    12     7   ar
    42    43    37   ar
    43    17    13   ar
    44     1     5    1
    45     4     6    1
    46    22    23    1
@<TRIPOS>MOLECULE
*****
 43 46 0 0 0
SMALL
GASTEIGER

@<TRIPOS>ATOM
      1 N          -3.9779    3.0371   21.3707 N.am    1  UNL1       -0.2903
      2 C          -4.7816    3.9633   22.2344 C.2     1  UNL1        0.3044
      3 O          -4.8669    5.4216   21.8936 O.2     1  UNL1       -0.2525
      4 N          -5.5001    3.4313   23.4389 N.am    1  UNL1       -0.2683
      5 H          -3.9218    2.0800   21.5944 H       1  UNL1        0.1509
      6 H          -5.4441    2.4742   23.6626 H       1  UNL1        0.1564
      7 C          -6.3039    4.3576   24.3026 C.ar    1  UNL1        0.0514
      8 C          -7.7040    4.7245   23.9086 C.ar    1  UNL1        0.0178
      9 C          -8.5077    5.6508   24.7723 C.ar    1  UNL1        0.0383
     10 C          -7.9115    6.2101   26.0299 C.ar    1  UNL1        0.0011
     11 C          -6.5115    5.8432   26.4239 C.ar    1  UNL1        0.0030
     12 C          -5.7076    4.9169   25.5602 C.ar    1  UNL1        0.0127
     13 C          -9.9078    6.0177   24.3784 C.ar    1  UNL1        0.1839
     14 N         -10.3490    7.3375   23.8184 N.ar    1  UNL1       -0.1081
     15 N         -11.8263    7.2647   23.5691 N.ar    1  UNL1       -0.0227
     16 N         -12.2983    5.9000   23.9750 N.ar    1  UNL1       -0.0429
     17 N         -11.1125    5.1292   24.4752 N.ar    1  UNL1       -0.2113
     18 C         -11.1287    3.7179   24.9830 C.3     1  UNL1        0.1573
     19 C          -5.9152    6.4025   27.6815 C.3     1  UNL1        0.1072
     20 C          -4.5431    6.2696   27.0901 C.3     1  UNL1        0.0339
     21 C          -7.2873    6.5354   28.2729 C.3     1  UNL1        0.0339
     22 O          -5.3189    6.9619   28.9391 O.3     1  UNL1       -0.3827
     23 H          -4.3539    7.0014   28.8496 H       1  UNL1        0.2107
     24 C          -3.2594    3.5691   20.1662 C.3     1  UNL1        0.0744
     25 C          -3.9436    3.5859   18.8315 C.3     1  UNL1        0.0197
     26 C          -6.5141    3.2103   18.8700 C.3     1  UNL1        0.0001
     27 C          -5.3374    4.1267   18.7100 C.3     1  UNL1        0.0017
     28 C          -1.8566    4.0843   20.2965 C.3     1  UNL1        0.0369
     29 C          -1.3366    4.5133   21.6365 C.3     1  UNL1        0.0738
     30 N          -0.8404    3.4874   22.6119 N.3     1  UNL1       -0.2726
     31 C           0.0804    2.3971   22.1501 C.3     1  UNL1        0.0721
     32 C           0.5766    1.3713   23.1255 C.3     1  UNL1        0.0174
     33 C           0.1520    1.4358   24.5627 C.3     1  UNL1        0.0031
     34 C          -0.7688    2.5261   25.0245 C.3     1  UNL1        0.0204
     35 C          -1.2650    3.5519   24.0491 C.3     1  UNL1        0.0724
     36 C          -1.1934    2.5906   26.4617 C.3     1  UNL1        0.0277
     37 C          -0.3868    1.8896   27.5143 C.ar    1  UNL1       -0.0220
     38 C          -0.8108    0.5382   28.0081 C.ar    1  UNL1       -0.0020
     39 C          -0.0041   -0.1628   29.0607 C.ar    1  UNL1        0.0293
     40 C           1.2266    0.4877   29.6194 C.ar    1  UNL1        0.1401
     41 F           2.0333   -0.2134   30.6720 F       1  UNL1       -0.2042
     42 C           1.6507    1.8391   29.1256 C.ar    1  UNL1        0.0293
     43 C           0.8440    2.5401   28.0730 C.ar    1  UNL1       -0.0020
@<TRIPOS>BOND
     1    26    27    1
     2    27    25    1
     3    24    25    1
     4    24    28    1
     5    28    29    1
     6    29    30    1
     7    30    31    1
     8    31    32    1
     9    32    33    1
    10    33    34    1
    11    34    36    1
    12    36    37    1
    13    37    38   ar
    14    38    39   ar
    15    39    40   ar
    16    40    41    1
    17    40    42   ar
    18    42    43   ar
    19    34    35    1
    20    24     1    1
    21     1     2   am
    22     2     3    2
    23     2     4   am
    24     4     7    1
    25     7     8   ar
    26     8     9   ar
    27     9    13    1
    28    13    14   ar
    29    14    15   ar
    30    15    16   ar
    31    16    17   ar
    32    17    18    1
    33     9    10   ar
    34    10    11   ar
    35    11    19    1
    36    19    20    1
    37    19    21    1
    38    19    22    1
    39    11    12   ar
    40    35    30    1
    41    12     7   ar
    42    43    37   ar
    43    17    13   ar
    44     1     5    1
    45     4     6    1
    46    22    23    1
@<TRIPOS>MOLECULE
*****
 43 46 0 0 0
SMALL
GASTEIGER

@<TRIPOS>ATOM
      1 N           4.7832   -2.0184   26.7943 N.am    1  UNL1       -0.2903
      2 C           4.4185   -1.3884   25.4829 C.2     1  UNL1        0.3044
      3 O           4.2220    0.0959   25.3928 O.2     1  UNL1       -0.2525
      4 N           4.2503   -2.2427   24.2614 N.am    1  UNL1       -0.2683
      5 H           4.9121   -2.9926   26.8535 H       1  UNL1        0.1509
      6 H           4.3793   -3.2169   24.3205 H       1  UNL1        0.1564
      7 C           3.8857   -1.6127   22.9499 C.ar    1  UNL1        0.0514
      8 C           4.7849   -1.7812   21.7611 C.ar    1  UNL1        0.0178
      9 C           4.4202   -1.1511   20.4497 C.ar    1  UNL1        0.0383
     10 C           3.1564   -0.3526   20.3269 C.ar    1  UNL1        0.0011
     11 C           2.2572   -0.1841   21.5156 C.ar    1  UNL1        0.0030
     12 C           2.6218   -0.8141   22.8271 C.ar    1  UNL1        0.0127
     13 C           5.3194   -1.3197   19.2610 C.ar    1  UNL1        0.1839
     14 N           6.1248   -0.2379   18.6042 N.ar    1  UNL1       -0.1081
     15 N           6.8742   -0.8491   17.4576 N.ar    1  UNL1       -0.0227
     16 N           6.5321   -2.3087   17.4057 N.ar    1  UNL1       -0.0429
     17 N           5.5711   -2.5995   18.5202 N.ar    1  UNL1       -0.2113
     18 C           4.9678   -3.9355   18.8381 C.3     1  UNL1        0.1573
     19 C           0.9934    0.6144   21.3928 C.3     1  UNL1        0.1072
     20 C           1.2992    1.2983   22.6923 C.3     1  UNL1        0.0339
     21 C           0.6876   -0.0694   20.0932 C.3     1  UNL1        0.0339
     22 O          -0.2705    1.4130   21.2700 O.3     1  UNL1       -0.3827
     23 H          -0.3564    2.0020   22.0358 H       1  UNL1        0.2107
     24 C           4.9514   -1.1641   28.0158 C.3     1  UNL1        0.0744
     25 C           6.3255   -0.7841   28.4818 C.3     1  UNL1        0.0197
     26 C           6.5095    0.9131   30.4403 C.3     1  UNL1        0.0001
     27 C           6.5726   -0.4972   29.9332 C.3     1  UNL1        0.0017
     28 C           3.7453   -0.6899   28.7712 C.3     1  UNL1        0.0369
     29 C           3.1684    0.6655   28.4885 C.3     1  UNL1        0.0738
     30 N           1.6837    0.8367   28.3596 N.3     1  UNL1       -0.2726
     31 C           0.7638   -0.2872   28.7345 C.3     1  UNL1        0.0721
     32 C          -0.7208   -0.1159   28.6055 C.3     1  UNL1        0.0174
     33 C          -1.2854    1.1792   28.1016 C.3     1  UNL1        0.0031
     34 C          -0.3655    2.3030   27.7267 C.3     1  UNL1        0.0204
     35 C           1.1190    2.1318   27.8557 C.3     1  UNL1        0.0724
     36 C          -0.9302    3.5981   27.2228 C.3     1  UNL1        0.0277
     37 C          -2.0702    3.5905   26.2480 C.ar    1  UNL1       -0.0220
     38 C          -1.8119    3.3283   24.7938 C.ar    1  UNL1       -0.0020
     39 C          -2.9519    3.3207   23.8191 C.ar    1  UNL1        0.0293
     40 C          -4.3503    3.5752   24.2984 C.ar    1  UNL1        0.1401
     41 F          -5.4904    3.5676   23.3235 F       1  UNL1       -0.2042
     42 C          -4.6086    3.8373   25.7525 C.ar    1  UNL1        0.0293
     43 C          -3.4686    3.8450   26.7274 C.ar    1  UNL1       -0.0020
@<TRIPOS>BOND
     1    26    27    1
     2    27    25    1
     3    24    25    1
     4    24    28    1
     5    28    29    1
     6    29    30    1
     7    30    31    1
     8    31    32    1
     9    32    33    1
    10    33    34    1
    11    34    36    1
    12    36    37    1
    13    37    38   ar
    14    38    39   ar
    15    39    40   ar
    16    40    41    1
    17    40    42   ar
    18    42    43   ar
    19    34    35    1
    20    24     1    1
    21     1     2   am
    22     2     3    2
    23     2     4   am
    24     4     7    1
    25     7     8   ar
    26     8     9   ar
    27     9    13    1
    28    13    14   ar
    29    14    15   ar
    30    15    16   ar
    31    16    17   ar
    32    17    18    1
    33     9    10   ar
    34    10    11   ar
    35    11    19    1
    36    19    20    1
    37    19    21    1
    38    19    22    1
    39    11    12   ar
    40    35    30    1
    41    12     7   ar
    42    43    37   ar
    43    17    13   ar
    44     1     5    1
    45     4     6    1
    46    22    23    1
@<TRIPOS>MOLECULE
*****
 43 46 0 0 0
SMALL
GASTEIGER

@<TRIPOS>ATOM
      1 N           2.5266    1.8501   25.4100 N.am    1  UNL1       -0.2903
      2 C           3.2720    0.9887   24.4342 C.2     1  UNL1        0.3044
      3 O           2.6939   -0.3256   24.0001 O.2     1  UNL1       -0.2525
      4 N           4.5954    1.4415   23.8925 N.am    1  UNL1       -0.2683
      5 H           2.9060    2.7128   25.6949 H       1  UNL1        0.1509
      6 H           4.9748    2.3041   24.1775 H       1  UNL1        0.1564
      7 C           5.3408    0.5800   22.9167 C.ar    1  UNL1        0.0514
      8 C           5.8468   -0.7673   23.3397 C.ar    1  UNL1        0.0178
      9 C           6.5922   -1.6287   22.3639 C.ar    1  UNL1        0.0383
     10 C           6.8317   -1.1430   20.9651 C.ar    1  UNL1        0.0011
     11 C           6.3258    0.2043   20.5421 C.ar    1  UNL1        0.0030
     12 C           5.5804    1.0658   21.5179 C.ar    1  UNL1        0.0127
     13 C           7.0981   -2.9760   22.7869 C.ar    1  UNL1        0.1839
     14 N           6.4419   -4.2941   22.5001 N.ar    1  UNL1       -0.1081
     15 N           7.2872   -5.3745   23.1069 N.ar    1  UNL1       -0.0227
     16 N           8.4659   -4.7241   23.7688 N.ar    1  UNL1       -0.0429
     17 N           8.3489   -3.2418   23.5710 N.ar    1  UNL1       -0.2113
     18 C           9.3135   -2.2069   24.0697 C.3     1  UNL1        0.1573
     19 C           6.5653    0.6901   19.1433 C.3     1  UNL1        0.1072
     20 C           5.5526    1.7776   19.3476 C.3     1  UNL1        0.0339
     21 C           7.5780   -0.3975   18.9390 C.3     1  UNL1        0.0339
     22 O           6.8048    1.1758   17.7445 O.3     1  UNL1       -0.3827
     23 H           6.2390    1.9436   17.5675 H       1  UNL1        0.2107
     24 C           1.2031    1.3973   25.9516 C.3     1  UNL1        0.0744
     25 C           1.1260    0.7597   27.3072 C.3     1  UNL1        0.0197
     26 C          -0.9640   -0.1650   28.5428 C.3     1  UNL1        0.0001
     27 C          -0.0759    0.9867   28.1754 C.3     1  UNL1        0.0017
     28 C          -0.0433    1.5822   25.1377 C.3     1  UNL1        0.0369
     29 C          -0.1447    2.7237   24.1700 C.3     1  UNL1        0.0738
     30 N           0.6398    2.6952   22.8917 N.3     1  UNL1       -0.2726
     31 C           1.6519    3.7655   22.6088 C.3     1  UNL1        0.0721
     32 C           2.4363    3.7370   21.3306 C.3     1  UNL1        0.0174
     33 C           2.2085    2.6382   20.3352 C.3     1  UNL1        0.0031
     34 C           1.1964    1.5679   20.6181 C.3     1  UNL1        0.0204
     35 C           0.4120    1.5964   21.8963 C.3     1  UNL1        0.0724
     36 C           0.9686    0.4691   19.6227 C.3     1  UNL1        0.0277
     37 C           2.1131   -0.3970   19.1868 C.ar    1  UNL1       -0.0220
     38 C           2.6035   -1.4976   20.0802 C.ar    1  UNL1       -0.0020
     39 C           3.7479   -2.3638   19.6443 C.ar    1  UNL1        0.0293
     40 C           4.4019   -2.1293   18.3149 C.ar    1  UNL1        0.1401
     41 F           5.5464   -2.9955   17.8789 F       1  UNL1       -0.2042
     42 C           3.9116   -1.0288   17.4214 C.ar    1  UNL1        0.0293
     43 C           2.7671   -0.1625   17.8574 C.ar    1  UNL1       -0.0020
@<TRIPOS>BOND
     1    26    27    1
     2    27    25    1
     3    24    25    1
     4    24    28    1
     5    28    29    1
     6    29    30    1
     7    30    31    1
     8    31    32    1
     9    32    33    1
    10    33    34    1
    11    34    36    1
    12    36    37    1
    13    37    38   ar
    14    38    39   ar
    15    39    40   ar
    16    40    41    1
    17    40    42   ar
    18    42    43   ar
    19    34    35    1
    20    24     1    1
    21     1     2   am
    22     2     3    2
    23     2     4   am
    24     4     7    1
    25     7     8   ar
    26     8     9   ar
    27     9    13    1
    28    13    14   ar
    29    14    15   ar
    30    15    16   ar
    31    16    17   ar
    32    17    18    1
    33     9    10   ar
    34    10    11   ar
    35    11    19    1
    36    19    20    1
    37    19    21    1
    38    19    22    1
    39    11    12   ar
    40    35    30    1
    41    12     7   ar
    42    43    37   ar
    43    17    13   ar
    44     1     5    1
    45     4     6    1
    46    22    23    1
@<TRIPOS>MOLECULE
*****
 43 46 0 0 0
SMALL
GASTEIGER

@<TRIPOS>ATOM
      1 N          -1.7840    2.4821   20.5008 N.am    1  UNL1       -0.2903
      2 C          -0.3879    1.9336   20.5079 C.2     1  UNL1        0.3044
      3 O           0.7706    2.8274   20.1779 O.2     1  UNL1       -0.2525
      4 N          -0.1504    0.4914   20.8449 N.am    1  UNL1       -0.2683
      5 H          -2.5444    1.8955   20.7174 H       1  UNL1        0.1509
      6 H          -0.9108   -0.0952   21.0615 H       1  UNL1        0.1564
      7 C           1.2457   -0.0570   20.8520 C.ar    1  UNL1        0.0514
      8 C           2.0300   -0.0953   22.1301 C.ar    1  UNL1        0.0178
      9 C           3.4261   -0.6437   22.1371 C.ar    1  UNL1        0.0383
     10 C           4.0380   -1.1539   20.8662 C.ar    1  UNL1        0.0011
     11 C           3.2537   -1.1157   19.5881 C.ar    1  UNL1        0.0030
     12 C           1.8575   -0.5672   19.5810 C.ar    1  UNL1        0.0127
     13 C           4.2104   -0.6820   23.4152 C.ar    1  UNL1        0.1839
     14 N           4.4250   -1.8871   24.2822 N.ar    1  UNL1       -0.1081
     15 N           5.2650   -1.4718   25.4535 N.ar    1  UNL1       -0.0227
     16 N           5.5695   -0.0100   25.3105 N.ar    1  UNL1       -0.0429
     17 N           4.9177    0.4781   24.0507 N.ar    1  UNL1       -0.2113
     18 C           4.9650    1.8802   23.5197 C.3     1  UNL1        0.1573
     19 C           3.8656   -1.6258   18.3172 C.3     1  UNL1        0.1072
     20 C           4.2030   -2.9188   18.9986 C.3     1  UNL1        0.0339
     21 C           3.5281   -0.3329   17.6357 C.3     1  UNL1        0.0339
     22 O           4.4774   -2.1360   17.0462 O.3     1  UNL1       -0.3827
     23 H           4.8150   -3.0343   17.1877 H       1  UNL1        0.2107
     24 C          -2.0216    3.9243   20.1638 C.3     1  UNL1        0.0744
     25 C          -2.2985    4.3274   18.7458 C.3     1  UNL1        0.0197
     26 C          -4.8289    3.7711   18.9399 C.3     1  UNL1        0.0001
     27 C          -3.5994    3.9525   18.1000 C.3     1  UNL1        0.0017
     28 C          -1.9822    4.9634   21.2449 C.3     1  UNL1        0.0369
     29 C          -3.1538    5.1318   22.1663 C.3     1  UNL1        0.0738
     30 N          -3.1001    4.5734   23.5576 N.3     1  UNL1       -0.2726
     31 C          -4.1647    4.9324   24.5514 C.3     1  UNL1        0.0721
     32 C          -4.1109    4.3740   25.9425 C.3     1  UNL1        0.0174
     33 C          -2.9926    3.4567   26.3398 C.3     1  UNL1        0.0031
     34 C          -1.9280    3.0977   25.3460 C.3     1  UNL1        0.0204
     35 C          -1.9818    3.6561   23.9549 C.3     1  UNL1        0.0724
     36 C          -0.8097    2.1804   25.7433 C.3     1  UNL1        0.0277
     37 C          -0.4143    2.0606   27.1852 C.ar    1  UNL1       -0.0220
     38 C           0.3983    3.1427   27.8325 C.ar    1  UNL1       -0.0020
     39 C           0.7937    3.0229   29.2744 C.ar    1  UNL1        0.0293
     40 C           0.3767    1.8211   30.0692 C.ar    1  UNL1        0.1401
     41 F           0.7722    1.7013   31.5112 F       1  UNL1       -0.2042
     42 C          -0.4359    0.7390   29.4220 C.ar    1  UNL1        0.0293
     43 C          -0.8314    0.8587   27.9800 C.ar    1  UNL1       -0.0020
@<TRIPOS>BOND
     1    26    27    1
     2    27    25    1
     3    24    25    1
     4    24    28    1
     5    28    29    1
     6    29    30    1
     7    30    31    1
     8    31    32    1
     9    32    33    1
    10    33    34    1
    11    34    36    1
    12    36    37    1
    13    37    38   ar
    14    38    39   ar
    15    39    40   ar
    16    40    41    1
    17    40    42   ar
    18    42    43   ar
    19    34    35    1
    20    24     1    1
    21     1     2   am
    22     2     3    2
    23     2     4   am
    24     4     7    1
    25     7     8   ar
    26     8     9   ar
    27     9    13    1
    28    13    14   ar
    29    14    15   ar
    30    15    16   ar
    31    16    17   ar
    32    17    18    1
    33     9    10   ar
    34    10    11   ar
    35    11    19    1
    36    19    20    1
    37    19    21    1
    38    19    22    1
    39    11    12   ar
    40    35    30    1
    41    12     7   ar
    42    43    37   ar
    43    17    13   ar
    44     1     5    1
    45     4     6    1
    46    22    23    1
@<TRIPOS>MOLECULE
*****
 43 46 0 0 0
SMALL
GASTEIGER

@<TRIPOS>ATOM
      1 N          -1.3685    2.0664   20.1439 N.am    1  UNL1       -0.2903
      2 C           0.0015    1.5808   20.5144 C.2     1  UNL1        0.3044
      3 O           1.0554    2.5605   20.9377 O.2     1  UNL1       -0.2525
      4 N           0.3175    0.1154   20.4615 N.am    1  UNL1       -0.2683
      5 H          -2.0602    1.4234   19.8660 H       1  UNL1        0.1509
      6 H          -0.3742   -0.5277   20.1836 H       1  UNL1        0.1564
      7 C           1.6875   -0.3703   20.8320 C.ar    1  UNL1        0.0514
      8 C           2.7183   -0.5927   19.7652 C.ar    1  UNL1        0.0178
      9 C           4.0883   -1.0784   20.1357 C.ar    1  UNL1        0.0383
     10 C           4.4275   -1.3416   21.5730 C.ar    1  UNL1        0.0011
     11 C           3.3967   -1.1192   22.6397 C.ar    1  UNL1        0.0030
     12 C           2.0266   -0.6335   22.2692 C.ar    1  UNL1        0.0127
     13 C           5.1191   -1.3008   19.0690 C.ar    1  UNL1        0.1839
     14 N           5.9961   -0.2487   18.4573 N.ar    1  UNL1       -0.1081
     15 N           6.8729   -0.9120   17.4368 N.ar    1  UNL1       -0.0227
     16 N           6.5378   -2.3740   17.4178 N.ar    1  UNL1       -0.0429
     17 N           5.4538   -2.6143   18.4265 N.ar    1  UNL1       -0.2113
     18 C           4.8166   -3.9359   18.7381 C.3     1  UNL1        0.1573
     19 C           3.7359   -1.3824   24.0769 C.3     1  UNL1        0.1072
     20 C           2.8263   -0.2657   24.4961 C.3     1  UNL1        0.0339
     21 C           4.6455   -2.4990   23.6578 C.3     1  UNL1        0.0339
     22 O           4.0751   -1.6456   25.5142 O.3     1  UNL1       -0.3827
     23 H           3.5936   -1.0215   26.0795 H       1  UNL1        0.2107
     24 C          -1.6845    3.5318   20.1967 C.3     1  UNL1        0.0744
     25 C          -1.5276    4.3777   18.9680 C.3     1  UNL1        0.0197
     26 C          -3.9975    4.3907   18.1621 C.3     1  UNL1        0.0001
     27 C          -2.7080    5.1160   18.4100 C.3     1  UNL1        0.0017
     28 C          -2.1575    4.1512   21.4784 C.3     1  UNL1        0.0369
     29 C          -3.3565    3.5911   22.1844 C.3     1  UNL1        0.0738
     30 N          -3.4876    3.7376   23.6715 N.3     1  UNL1       -0.2726
     31 C          -4.8468    3.7689   24.3052 C.3     1  UNL1        0.0721
     32 C          -4.9778    3.9154   25.7922 C.3     1  UNL1        0.0174
     33 C          -3.7496    4.0304   26.6456 C.3     1  UNL1        0.0031
     34 C          -2.3904    3.9991   26.0120 C.3     1  UNL1        0.0204
     35 C          -2.2594    3.8527   24.5249 C.3     1  UNL1        0.0724
     36 C          -1.1622    4.1142   26.8654 C.3     1  UNL1        0.0277
     37 C          -0.4066    2.8808   27.2625 C.ar    1  UNL1       -0.0220
     38 C           1.0921    2.8663   27.1989 C.ar    1  UNL1       -0.0020
     39 C           1.8477    1.6330   27.5960 C.ar    1  UNL1        0.0293
     40 C           1.1048    0.4140   28.0567 C.ar    1  UNL1        0.1401
     41 F           1.8605   -0.8194   28.4538 F       1  UNL1       -0.2042
     42 C          -0.3938    0.4284   28.1203 C.ar    1  UNL1        0.0293
     43 C          -1.1495    1.6619   27.7232 C.ar    1  UNL1       -0.0020
@<TRIPOS>BOND
     1    26    27    1
     2    27    25    1
     3    24    25    1
     4    24    28    1
     5    28    29    1
     6    29    30    1
     7    30    31    1
     8    31    32    1
     9    32    33    1
    10    33    34    1
    11    34    36    1
    12    36    37    1
    13    37    38   ar
    14    38    39   ar
    15    39    40   ar
    16    40    41    1
    17    40    42   ar
    18    42    43   ar
    19    34    35    1
    20    24     1    1
    21     1     2   am
    22     2     3    2
    23     2     4   am
    24     4     7    1
    25     7     8   ar
    26     8     9   ar
    27     9    13    1
    28    13    14   ar
    29    14    15   ar
    30    15    16   ar
    31    16    17   ar
    32    17    18    1
    33     9    10   ar
    34    10    11   ar
    35    11    19    1
    36    19    20    1
    37    19    21    1
    38    19    22    1
    39    11    12   ar
    40    35    30    1
    41    12     7   ar
    42    43    37   ar
    43    17    13   ar
    44     1     5    1
    45     4     6    1
    46    22    23    1
@<TRIPOS>MOLECULE
*****
 43 46 0 0 0
SMALL
GASTEIGER

@<TRIPOS>ATOM
      1 N           6.7085   -3.5121   25.4909 N.am    1  UNL1       -0.2903
      2 C           5.9665   -3.4355   24.1895 C.2     1  UNL1        0.3044
      3 O           5.9470   -4.6178   23.2666 O.2     1  UNL1       -0.2525
      4 N           5.2441   -2.1766   23.8110 N.am    1  UNL1       -0.2683
      5 H           6.7213   -2.7361   26.0966 H       1  UNL1        0.1509
      6 H           5.2569   -1.4006   24.4167 H       1  UNL1        0.1564
      7 C           4.5021   -2.1000   22.5097 C.ar    1  UNL1        0.0514
      8 C           3.4674   -1.0348   22.2978 C.ar    1  UNL1        0.0178
      9 C           2.7255   -0.9582   20.9964 C.ar    1  UNL1        0.0383
     10 C           3.0181   -1.9468   19.9069 C.ar    1  UNL1        0.0011
     11 C           4.0528   -3.0120   20.1187 C.ar    1  UNL1        0.0030
     12 C           4.7948   -3.0886   21.4201 C.ar    1  UNL1        0.0127
     13 C           1.6908    0.1069   20.7846 C.ar    1  UNL1        0.1839
     14 N           0.2040   -0.0856   20.8348 N.ar    1  UNL1       -0.1081
     15 N          -0.4444    1.2401   20.5666 N.ar    1  UNL1       -0.0227
     16 N           0.6415    2.2521   20.3506 N.ar    1  UNL1       -0.0429
     17 N           1.9612    1.5517   20.4853 N.ar    1  UNL1       -0.2113
     18 C           3.3138    2.1850   20.3454 C.3     1  UNL1        0.1573
     19 C           4.3454   -4.0005   19.0292 C.3     1  UNL1        0.1072
     20 C           5.1995   -2.9818   18.3343 C.3     1  UNL1        0.0339
     21 C           3.4914   -5.0192   19.7241 C.3     1  UNL1        0.0339
     22 O           4.6381   -4.9891   17.9397 O.3     1  UNL1       -0.3827
     23 H           5.2219   -4.5811   17.2811 H       1  UNL1        0.2107
     24 C           7.4310   -4.7709   25.8694 C.3     1  UNL1        0.0744
     25 C           8.7775   -5.0691   25.2797 C.3     1  UNL1        0.0197
     26 C           8.3936   -7.2217   23.8764 C.3     1  UNL1        0.0001
     27 C           9.1509   -6.4813   24.9387 C.3     1  UNL1        0.0017
     28 C           6.8068   -5.7317   26.8376 C.3     1  UNL1        0.0369
     29 C           7.4574   -5.9881   28.1645 C.3     1  UNL1        0.0738
     30 N           7.1179   -5.1274   29.3452 N.3     1  UNL1       -0.2726
     31 C           7.1578   -5.7034   30.7296 C.3     1  UNL1        0.0721
     32 C           6.8183   -4.8427   31.9101 C.3     1  UNL1        0.0174
     33 C           6.4388   -3.4059   31.7064 C.3     1  UNL1        0.0031
     34 C           6.3989   -2.8298   30.3220 C.3     1  UNL1        0.0204
     35 C           6.7384   -3.6905   29.1414 C.3     1  UNL1        0.0724
     36 C           6.0194   -1.3930   30.1182 C.3     1  UNL1        0.0277
     37 C           4.6264   -1.0387   29.6896 C.ar    1  UNL1       -0.0220
     38 C           4.2670   -1.0382   28.2333 C.ar    1  UNL1       -0.0020
     39 C           2.8739   -0.6839   27.8047 C.ar    1  UNL1        0.0293
     40 C           1.8401   -0.3301   28.8324 C.ar    1  UNL1        0.1401
     41 F           0.4470    0.0242   28.4037 F       1  UNL1       -0.2042
     42 C           2.1994   -0.3306   30.2887 C.ar    1  UNL1        0.0293
     43 C           3.5926   -0.6849   30.7173 C.ar    1  UNL1       -0.0020
@<TRIPOS>BOND
     1    26    27    1
     2    27    25    1
     3    24    25    1
     4    24    28    1
     5    28    29    1
     6    29    30    1
     7    30    31    1
     8    31    32    1
     9    32    33    1
    10    33    34    1
    11    34    36    1
    12    36    37    1
    13    37    38   ar
    14    38    39   ar
    15    39    40   ar
    16    40    41    1
    17    40    42   ar
    18    42    43   ar
    19    34    35    1
    20    24     1    1
    21     1     2   am
    22     2     3    2
    23     2     4   am
    24     4     7    1
    25     7     8   ar
    26     8     9   ar
    27     9    13    1
    28    13    14   ar
    29    14    15   ar
    30    15    16   ar
    31    16    17   ar
    32    17    18    1
    33     9    10   ar
    34    10    11   ar
    35    11    19    1
    36    19    20    1
    37    19    21    1
    38    19    22    1
    39    11    12   ar
    40    35    30    1
    41    12     7   ar
    42    43    37   ar
    43    17    13   ar
    44     1     5    1
    45     4     6    1
    46    22    23    1
@<TRIPOS>MOLECULE
*****
 43 46 0 0 0
SMALL
GASTEIGER

@<TRIPOS>ATOM
      1 N          -4.2312    2.8627   21.2236 N.am    1  UNL1       -0.2903
      2 C          -4.9701    3.8337   22.0959 C.2     1  UNL1        0.3044
      3 O          -4.9863    5.2927   21.7478 O.2     1  UNL1       -0.2525
      4 N          -5.6929    3.3459   23.3164 N.am    1  UNL1       -0.2683
      5 H          -4.2206    1.9051   21.4521 H       1  UNL1        0.1509
      6 H          -5.6823    2.3883   23.5449 H       1  UNL1        0.1564
      7 C          -6.4318    4.3169   24.1888 C.ar    1  UNL1        0.0514
      8 C          -7.8342    4.7205   23.8413 C.ar    1  UNL1        0.0178
      9 C          -8.5731    5.6916   24.7137 C.ar    1  UNL1        0.0383
     10 C          -7.9097    6.2591   25.9335 C.ar    1  UNL1        0.0011
     11 C          -6.5075    5.8555   26.2809 C.ar    1  UNL1        0.0030
     12 C          -5.7685    4.8844   25.4086 C.ar    1  UNL1        0.0127
     13 C          -9.9753    6.0952   24.3662 C.ar    1  UNL1        0.1839
     14 N         -10.3972    7.4184   23.7993 N.ar    1  UNL1       -0.1081
     15 N         -11.8846    7.3874   23.6073 N.ar    1  UNL1       -0.0227
     16 N         -12.3820    6.0451   24.0555 N.ar    1  UNL1       -0.0429
     17 N         -11.2020    5.2464   24.5245 N.ar    1  UNL1       -0.2113
     18 C         -11.2417    3.8451   25.0582 C.3     1  UNL1        0.1573
     19 C          -5.8441    6.4230   27.5007 C.3     1  UNL1        0.1072
     20 C          -4.5034    6.2568   26.8490 C.3     1  UNL1        0.0339
     21 C          -7.1849    6.5892   28.1525 C.3     1  UNL1        0.0339
     22 O          -5.1808    6.9905   28.7205 O.3     1  UNL1       -0.3827
     23 H          -4.2204    7.0115   28.5861 H       1  UNL1        0.2107
     24 C          -3.5084    3.3506   20.0031 C.3     1  UNL1        0.0744
     25 C          -4.2714    3.6361   18.7436 C.3     1  UNL1        0.0197
     26 C          -3.6153    3.5019   16.2333 C.3     1  UNL1        0.0001
     27 C          -3.5645    4.2130   17.5531 C.3     1  UNL1        0.0017
     28 C          -2.0226    3.5530   20.0422 C.3     1  UNL1        0.0369
     29 C          -1.1408    2.5161   20.6724 C.3     1  UNL1        0.0738
     30 N           0.1664    2.1536   20.0321 N.3     1  UNL1       -0.2726
     31 C           1.0164    3.2197   19.4069 C.3     1  UNL1        0.0721
     32 C           2.3235    2.8571   18.7666 C.3     1  UNL1        0.0174
     33 C           2.7806    1.4285   18.7515 C.3     1  UNL1        0.0031
     34 C           1.9306    0.3625   19.3766 C.3     1  UNL1        0.0204
     35 C           0.6235    0.7250   20.0169 C.3     1  UNL1        0.0724
     36 C           2.3876   -1.0661   19.3615 C.3     1  UNL1        0.0277
     37 C           3.1009   -1.6380   20.5507 C.ar    1  UNL1       -0.0220
     38 C           3.8906   -2.9059   20.4133 C.ar    1  UNL1       -0.0020
     39 C           4.6038   -3.4778   21.6025 C.ar    1  UNL1        0.0293
     40 C           4.5274   -2.7819   22.9290 C.ar    1  UNL1        0.1401
     41 F           5.2407   -3.3538   24.1182 F       1  UNL1       -0.2042
     42 C           3.7377   -1.5140   23.0664 C.ar    1  UNL1        0.0293
     43 C           3.0244   -0.9421   21.8772 C.ar    1  UNL1       -0.0020
@<TRIPOS>BOND
     1    26    27    1
     2    27    25    1
     3    24    25    1
     4    24    28    1
     5    28    29    1
     6    29    30    1
     7    30    31    1
     8    31    32    1
     9    32    33    1
    10    33    34    1
    11    34    36    1
    12    36    37    1
    13    37    38   ar
    14    38    39   ar
    15    39    40   ar
    16    40    41    1
    17    40    42   ar
    18    42    43   ar
    19    34    35    1
    20    24     1    1
    21     1     2   am
    22     2     3    2
    23     2     4   am
    24     4     7    1
    25     7     8   ar
    26     8     9   ar
    27     9    13    1
    28    13    14   ar
    29    14    15   ar
    30    15    16   ar
    31    16    17   ar
    32    17    18    1
    33     9    10   ar
    34    10    11   ar
    35    11    19    1
    36    19    20    1
    37    19    21    1
    38    19    22    1
    39    11    12   ar
    40    35    30    1
    41    12     7   ar
    42    43    37   ar
    43    17    13   ar
    44     1     5    1
    45     4     6    1
    46    22    23    1
@<TRIPOS>MOLECULE
*****
 43 46 0 0 0
SMALL
GASTEIGER

@<TRIPOS>ATOM
      1 N          -5.1263    3.3900   24.4016 N.am    1  UNL1       -0.2903
      2 C          -4.5059    3.8087   23.1018 C.2     1  UNL1        0.3044
      3 O          -3.7699    5.1123   23.0076 O.2     1  UNL1       -0.2525
      4 N          -4.6214    2.9238   21.8961 N.am    1  UNL1       -0.2683
      5 H          -5.6094    2.5343   24.4635 H       1  UNL1        0.1509
      6 H          -5.1044    2.0682   21.9580 H       1  UNL1        0.1564
      7 C          -4.0010    3.3425   20.5963 C.ar    1  UNL1        0.0514
      8 C          -2.5184    3.2252   20.4006 C.ar    1  UNL1        0.0178
      9 C          -1.8979    3.6439   19.1008 C.ar    1  UNL1        0.0383
     10 C          -2.7600    4.1799   17.9965 C.ar    1  UNL1        0.0011
     11 C          -4.2425    4.2973   18.1921 C.ar    1  UNL1        0.0030
     12 C          -4.8631    3.8785   19.4920 C.ar    1  UNL1        0.0127
     13 C          -0.4154    3.5266   18.9052 C.ar    1  UNL1        0.1839
     14 N           0.2894    2.4536   18.1292 N.ar    1  UNL1       -0.1081
     15 N           1.7631    2.7255   18.1957 N.ar    1  UNL1       -0.0227
     16 N           1.9691    3.9665   19.0127 N.ar    1  UNL1       -0.0429
     17 N           0.6227    4.4616   19.4512 N.ar    1  UNL1       -0.2113
     18 C           0.3605    5.6781   20.2887 C.3     1  UNL1        0.1573
     19 C          -5.1046    4.8333   17.0878 C.3     1  UNL1        0.1072
     20 C          -6.2026    5.0999   18.0743 C.3     1  UNL1        0.0339
     21 C          -4.0066    4.5667   16.1012 C.3     1  UNL1        0.0339
     22 O          -5.9667    5.3693   15.9835 O.3     1  UNL1       -0.3827
     23 H          -6.8220    5.6474   16.3469 H       1  UNL1        0.2107
     24 C          -5.0108    4.2749   25.6073 C.3     1  UNL1        0.0744
     25 C          -5.8358    5.5239   25.7027 C.3     1  UNL1        0.0197
     26 C          -7.7174    6.5458   24.2311 C.3     1  UNL1        0.0001
     27 C          -7.2581    5.5215   25.2261 C.3     1  UNL1        0.0017
     28 C          -4.0702    3.9107   26.7176 C.3     1  UNL1        0.0369
     29 C          -2.6179    4.2726   26.6193 C.3     1  UNL1        0.0738
     30 N          -1.6416    3.3016   26.0241 N.3     1  UNL1       -0.2726
     31 C          -1.1371    2.1494   26.8413 C.3     1  UNL1        0.0721
     32 C          -0.1608    1.1784   26.2462 C.3     1  UNL1        0.0174
     33 C           0.3109    1.3597   24.8339 C.3     1  UNL1        0.0031
     34 C          -0.1936    2.5120   24.0167 C.3     1  UNL1        0.0204
     35 C          -1.1699    3.4829   24.6118 C.3     1  UNL1        0.0724
     36 C           0.2781    2.6932   22.6044 C.3     1  UNL1        0.0277
     37 C           0.9992    1.5790   21.9057 C.ar    1  UNL1       -0.0220
     38 C           2.4850    1.4368   22.0557 C.ar    1  UNL1       -0.0020
     39 C           3.2061    0.3225   21.3569 C.ar    1  UNL1        0.0293
     40 C           2.4415   -0.6497   20.5081 C.ar    1  UNL1        0.1401
     41 F           3.1628   -1.7640   19.8094 F       1  UNL1       -0.2042
     42 C           0.9559   -0.5075   20.3581 C.ar    1  UNL1        0.0293
     43 C           0.2347    0.6068   21.0569 C.ar    1  UNL1       -0.0020
@<TRIPOS>BOND
     1    26    27    1
     2    27    25    1
     3    24    25    1
     4    24    28    1
     5    28    29    1
     6    29    30    1
     7    30    31    1
     8    31    32    1
     9    32    33    1
    10    33    34    1
    11    34    36    1
    12    36    37    1
    13    37    38   ar
    14    38    39   ar
    15    39    40   ar
    16    40    41    1
    17    40    42   ar
    18    42    43   ar
    19    34    35    1
    20    24     1    1
    21     1     2   am
    22     2     3    2
    23     2     4   am
    24     4     7    1
    25     7     8   ar
    26     8     9   ar
    27     9    13    1
    28    13    14   ar
    29    14    15   ar
    30    15    16   ar
    31    16    17   ar
    32    17    18    1
    33     9    10   ar
    34    10    11   ar
    35    11    19    1
    36    19    20    1
    37    19    21    1
    38    19    22    1
    39    11    12   ar
    40    35    30    1
    41    12     7   ar
    42    43    37   ar
    43    17    13   ar
    44     1     5    1
    45     4     6    1
    46    22    23    1
