@<TRIPOS>MOLECULE
*****
 31 35 0 0 0
SMALL
GASTEIGER

@<TRIPOS>ATOM
      1 N           2.3054    0.4221   31.1350 N.3     1  UNL1       -0.1471
      2 C           1.7090    1.6882   31.6744 C.3     1  UNL1        0.1237
      3 C           1.9529    2.3465   33.0000 C.ar    1  UNL1        0.0126
      4 C           1.1507    3.6059   33.1424 C.ar    1  UNL1        0.0100
      5 C           1.2493    4.4199   34.3984 C.ar    1  UNL1        0.0575
      6 CL          0.4471    5.6794   34.5409 Cl      1  UNL1       -0.0823
      7 C           2.1501    3.9745   35.5120 C.ar    1  UNL1        0.0129
      8 C           2.9524    2.7151   35.3696 C.ar    1  UNL1        0.0182
      9 C           2.8538    1.9011   34.1136 C.ar    1  UNL1        0.0637
     10 N           3.7330    0.6874   34.1766 N.ar    1  UNL1       -0.2799
     11 C           3.9287   -0.3806   33.1417 C.ar    1  UNL1        0.1649
     12 N           4.9102   -1.3769   33.6835 N.ar    1  UNL1       -0.1318
     13 N           5.3213   -0.9247   35.0534 N.ar    1  UNL1       -0.1333
     14 C           4.5938    0.3511   35.3582 C.ar    1  UNL1        0.1465
     15 C           3.2933   -0.4986   31.7880 C.3     1  UNL1        0.1616
     16 C           4.7070    1.1503   36.6224 C.3     1  UNL1        0.0625
     17 C           3.7322    0.9275   37.7405 C.3     1  UNL1        0.0291
     18 C           3.8455    1.7267   39.0047 C.3     1  UNL1        0.0926
     19 N           4.9336    2.7487   39.1511 N.pl3   1  UNL1       -0.2932
     20 C           5.9085    2.9715   38.0330 C.3     1  UNL1        0.0926
     21 C           5.7952    2.1723   36.7687 C.3     1  UNL1        0.0291
     22 C           5.0469    3.5479   40.4154 C.ar    1  UNL1        0.1317
     23 C           4.1062    4.6886   40.6684 C.ar    1  UNL1        0.0343
     24 C           4.2196    5.4878   41.9327 C.ar    1  UNL1        0.0045
     25 C           5.2735    5.1463   42.9439 C.ar    1  UNL1        0.0208
     26 C           6.2142    4.0057   42.6909 C.ar    1  UNL1        0.1003
     27 N           6.1009    3.2064   41.4266 N.ar    1  UNL1       -0.2292
     28 C           1.4035   -0.3742   28.3869 C.3     1  UNL1        0.1960
     29 S           1.8544    0.0239   29.7609 S.O2    1  UNL1        0.0463
     30 O           3.2176   -0.5326   29.4748 O.2     1  UNL1       -0.1572
     31 O           0.4912    0.5804   30.0470 O.2     1  UNL1       -0.1572
@<TRIPOS>BOND
     1    28    29    1
     2    29    30    2
     3    29    31    2
     4    29     1    1
     5     1     2    1
     6     2     3    1
     7     3     4   ar
     8     4     5   ar
     9     5     6    1
    10     5     7   ar
    11     7     8   ar
    12     8     9   ar
    13     9    10    1
    14    10    11   ar
    15    11    12   ar
    16    12    13   ar
    17    13    14   ar
    18    14    16    1
    19    16    17    1
    20    17    18    1
    21    18    19    1
    22    19    22    1
    23    22    23   ar
    24    23    24   ar
    25    24    25   ar
    26    25    26   ar
    27    26    27   ar
    28    19    20    1
    29    20    21    1
    30    11    15    1
    31    15     1    1
    32     9     3   ar
    33    14    10   ar
    34    21    16    1
    35    27    22   ar
@<TRIPOS>MOLECULE
*****
 31 35 0 0 0
SMALL
GASTEIGER

@<TRIPOS>ATOM
      1 N           6.8837   -4.2237   22.2468 N.3     1  UNL1       -0.1471
      2 C           6.2047   -3.4928   23.3669 C.3     1  UNL1        0.1237
      3 C           5.1285   -2.4510   23.2873 C.ar    1  UNL1        0.0126
      4 C           4.7258   -1.9736   24.6510 C.ar    1  UNL1        0.0100
      5 C           3.6601   -0.9280   24.7952 C.ar    1  UNL1        0.0575
      6 CL          3.2574   -0.4505   26.1591 Cl      1  UNL1       -0.0823
      7 C           2.9971   -0.3597   23.5756 C.ar    1  UNL1        0.0129
      8 C           3.3997   -0.8370   22.2118 C.ar    1  UNL1        0.0182
      9 C           4.4654   -1.8827   22.0677 C.ar    1  UNL1        0.0637
     10 N           4.7149   -2.2159   20.6266 N.ar    1  UNL1       -0.2799
     11 C           5.6889   -3.1997   20.0491 C.ar    1  UNL1        0.1649
     12 N           5.5546   -3.1628   18.5556 N.ar    1  UNL1       -0.1318
     13 N           4.4975   -2.1563   18.2100 N.ar    1  UNL1       -0.1333
     14 C           3.9785   -1.5711   19.4899 C.ar    1  UNL1        0.1465
     15 C           6.6541   -4.0932   20.7702 C.3     1  UNL1        0.1616
     16 C           2.9107   -0.5248   19.6118 C.3     1  UNL1        0.0625
     17 C           1.5114   -0.9203   19.9800 C.3     1  UNL1        0.0291
     18 C           0.4436    0.1260   20.1019 C.3     1  UNL1        0.0926
     19 N           0.7750    1.5680   19.8555 N.pl3   1  UNL1       -0.2932
     20 C           2.1742    1.9637   19.4873 C.3     1  UNL1        0.0926
     21 C           3.2421    0.9174   19.3654 C.3     1  UNL1        0.0291
     22 C          -0.2929    2.6144   19.9774 C.ar    1  UNL1        0.1317
     23 C          -0.1979    3.8796   19.1773 C.ar    1  UNL1        0.0343
     24 C          -1.2658    4.9260   19.2991 C.ar    1  UNL1        0.0045
     25 C          -2.4285    4.7071   20.2211 C.ar    1  UNL1        0.0208
     26 C          -2.5235    3.4419   21.0213 C.ar    1  UNL1        0.1003
     27 N          -1.4556    2.3955   20.8994 N.ar    1  UNL1       -0.2292
     28 C           8.9776   -6.2088   23.0681 C.3     1  UNL1        0.1960
     29 S           7.9306   -5.2163   22.6574 S.O2    1  UNL1        0.0463
     30 O           7.6906   -4.8735   24.0978 O.2     1  UNL1       -0.1572
     31 O           8.1708   -5.5591   21.2170 O.2     1  UNL1       -0.1572
@<TRIPOS>BOND
     1    28    29    1
     2    29    30    2
     3    29    31    2
     4    29     1    1
     5     1     2    1
     6     2     3    1
     7     3     4   ar
     8     4     5   ar
     9     5     6    1
    10     5     7   ar
    11     7     8   ar
    12     8     9   ar
    13     9    10    1
    14    10    11   ar
    15    11    12   ar
    16    12    13   ar
    17    13    14   ar
    18    14    16    1
    19    16    17    1
    20    17    18    1
    21    18    19    1
    22    19    22    1
    23    22    23   ar
    24    23    24   ar
    25    24    25   ar
    26    25    26   ar
    27    26    27   ar
    28    19    20    1
    29    20    21    1
    30    11    15    1
    31    15     1    1
    32     9     3   ar
    33    14    10   ar
    34    21    16    1
    35    27    22   ar
@<TRIPOS>MOLECULE
*****
 31 35 0 0 0
SMALL
GASTEIGER

@<TRIPOS>ATOM
      1 N           3.7911    1.0958   34.8075 N.3     1  UNL1       -0.1471
      2 C           2.8792    2.2866   34.7862 C.3     1  UNL1        0.1237
      3 C           1.9802    2.7566   33.6812 C.ar    1  UNL1        0.0126
      4 C           1.2334    3.9972   34.0725 C.ar    1  UNL1        0.0100
      5 C           0.2775    4.6330   33.1071 C.ar    1  UNL1        0.0575
      6 CL         -0.4693    5.8736   33.4984 Cl      1  UNL1       -0.0823
      7 C           0.0685    4.0282   31.7504 C.ar    1  UNL1        0.0129
      8 C           0.8153    2.7876   31.3591 C.ar    1  UNL1        0.0182
      9 C           1.7712    2.1518   32.3245 C.ar    1  UNL1        0.0637
     10 N           2.4095    0.9277   31.7378 N.ar    1  UNL1       -0.2799
     11 C           3.4144    0.0060   32.3628 C.ar    1  UNL1        0.1649
     12 N           3.7391   -1.0687   31.3682 N.ar    1  UNL1       -0.1318
     13 N           2.9349   -0.8114   30.1285 N.ar    1  UNL1       -0.1333
     14 C           2.1131    0.4225   30.3569 C.ar    1  UNL1        0.1465
     15 C           4.0293    0.0809   33.7289 C.3     1  UNL1        0.1616
     16 C           1.1620    1.0423   29.3765 C.3     1  UNL1        0.0625
     17 C           1.5938    2.2207   28.5549 C.3     1  UNL1        0.0291
     18 C           0.6427    2.8405   27.5746 C.3     1  UNL1        0.0926
     19 N          -0.7403    2.2820   27.4158 N.pl3   1  UNL1       -0.2932
     20 C          -1.1722    1.1037   28.2373 C.3     1  UNL1        0.0926
     21 C          -0.2211    0.4838   29.2177 C.3     1  UNL1        0.0291
     22 C          -1.6915    2.9019   26.4354 C.ar    1  UNL1        0.1317
     23 C          -1.3088    3.0175   24.9897 C.ar    1  UNL1        0.0343
     24 C          -2.2600    3.6373   24.0093 C.ar    1  UNL1        0.0045
     25 C          -3.5938    4.1415   24.4747 C.ar    1  UNL1        0.0208
     26 C          -3.9765    4.0259   25.9204 C.ar    1  UNL1        0.1003
     27 N          -3.0253    3.4061   26.9008 N.ar    1  UNL1       -0.2292
     28 C           5.3438    0.6905   37.3421 C.3     1  UNL1        0.1960
     29 S           4.5675    0.8932   36.0748 S.O2    1  UNL1        0.0463
     30 O           4.3160    2.3215   36.4573 O.2     1  UNL1       -0.1572
     31 O           4.8190   -0.5353   35.6923 O.2     1  UNL1       -0.1572
@<TRIPOS>BOND
     1    28    29    1
     2    29    30    2
     3    29    31    2
     4    29     1    1
     5     1     2    1
     6     2     3    1
     7     3     4   ar
     8     4     5   ar
     9     5     6    1
    10     5     7   ar
    11     7     8   ar
    12     8     9   ar
    13     9    10    1
    14    10    11   ar
    15    11    12   ar
    16    12    13   ar
    17    13    14   ar
    18    14    16    1
    19    16    17    1
    20    17    18    1
    21    18    19    1
    22    19    22    1
    23    22    23   ar
    24    23    24   ar
    25    24    25   ar
    26    25    26   ar
    27    26    27   ar
    28    19    20    1
    29    20    21    1
    30    11    15    1
    31    15     1    1
    32     9     3   ar
    33    14    10   ar
    34    21    16    1
    35    27    22   ar
@<TRIPOS>MOLECULE
*****
 31 35 0 0 0
SMALL
GASTEIGER

@<TRIPOS>ATOM
      1 N          -0.8837    2.6650   21.5456 N.3     1  UNL1       -0.1471
      2 C          -0.2382    2.2699   22.8407 C.3     1  UNL1        0.1237
      3 C           0.9355    1.3625   23.0623 C.ar    1  UNL1        0.0126
      4 C           1.2615    1.2344   24.5208 C.ar    1  UNL1        0.0100
      5 C           2.4055    0.3696   24.9604 C.ar    1  UNL1        0.0575
      6 CL          2.7316    0.2415   26.4189 Cl      1  UNL1       -0.0823
      7 C           3.2236   -0.3670   23.9415 C.ar    1  UNL1        0.0129
      8 C           2.8976   -0.2388   22.4830 C.ar    1  UNL1        0.0182
      9 C           1.7535    0.6259   22.0434 C.ar    1  UNL1        0.0637
     10 N           1.6000    0.6149   20.5513 N.ar    1  UNL1       -0.2799
     11 C           0.5905    1.3376   19.7096 C.ar    1  UNL1        0.1649
     12 N           0.8574    0.9994   18.2729 N.ar    1  UNL1       -0.1318
     13 N           2.0319    0.0675   18.2266 N.ar    1  UNL1       -0.1333
     14 C           2.4909   -0.1701   19.6347 C.ar    1  UNL1        0.1465
     15 C          -0.5149    2.2500   20.1521 C.3     1  UNL1        0.1616
     16 C           3.6390   -1.0400   20.0529 C.3     1  UNL1        0.0625
     17 C           4.9982   -0.4400   20.2595 C.3     1  UNL1        0.0291
     18 C           6.1464   -1.3099   20.6776 C.3     1  UNL1        0.0926
     19 N           5.9355   -2.7798   20.8892 N.pl3   1  UNL1       -0.2932
     20 C           4.5764   -3.3799   20.6826 C.3     1  UNL1        0.0926
     21 C           3.4281   -2.5100   20.2644 C.3     1  UNL1        0.0291
     22 C           7.0838   -3.6498   21.3074 C.ar    1  UNL1        0.1317
     23 C           8.3388   -3.6809   20.4865 C.ar    1  UNL1        0.0343
     24 C           9.4871   -4.5508   20.9047 C.ar    1  UNL1        0.0045
     25 C           9.3802   -5.3896   22.1437 C.ar    1  UNL1        0.0208
     26 C           8.1251   -5.3585   22.9645 C.ar    1  UNL1        0.1003
     27 N           6.9768   -4.4885   22.5463 N.ar    1  UNL1       -0.2292
     28 C          -3.2212    4.5315   21.7723 C.3     1  UNL1        0.1960
     29 S          -2.0525    3.5982   21.6590 S.O2    1  UNL1        0.0463
     30 O          -2.8472    2.7140   20.7445 O.2     1  UNL1       -0.1572
     31 O          -1.2577    4.4825   22.5736 O.2     1  UNL1       -0.1572
@<TRIPOS>BOND
     1    28    29    1
     2    29    30    2
     3    29    31    2
     4    29     1    1
     5     1     2    1
     6     2     3    1
     7     3     4   ar
     8     4     5   ar
     9     5     6    1
    10     5     7   ar
    11     7     8   ar
    12     8     9   ar
    13     9    10    1
    14    10    11   ar
    15    11    12   ar
    16    12    13   ar
    17    13    14   ar
    18    14    16    1
    19    16    17    1
    20    17    18    1
    21    18    19    1
    22    19    22    1
    23    22    23   ar
    24    23    24   ar
    25    24    25   ar
    26    25    26   ar
    27    26    27   ar
    28    19    20    1
    29    20    21    1
    30    11    15    1
    31    15     1    1
    32     9     3   ar
    33    14    10   ar
    34    21    16    1
    35    27    22   ar
@<TRIPOS>MOLECULE
*****
 31 35 0 0 0
SMALL
GASTEIGER

@<TRIPOS>ATOM
      1 N          -1.8736    3.2523   21.7124 N.3     1  UNL1       -0.1471
      2 C          -0.5697    2.5119   21.7541 C.3     1  UNL1        0.1237
      3 C           0.1962    2.0330   22.9516 C.ar    1  UNL1        0.0126
      4 C           1.4599    1.3320   22.5496 C.ar    1  UNL1        0.0100
      5 C           2.3747    0.7743   23.5994 C.ar    1  UNL1        0.0575
      6 CL          3.6384    0.0732   23.1974 Cl      1  UNL1       -0.0823
      7 C           2.0258    0.9177   25.0512 C.ar    1  UNL1        0.0129
      8 C           0.7622    1.6187   25.4532 C.ar    1  UNL1        0.0182
      9 C          -0.1527    2.1764   24.4035 C.ar    1  UNL1        0.0637
     10 N          -1.3536    2.8340   25.0162 N.ar    1  UNL1       -0.2799
     11 C          -2.5022    3.5106   24.3286 C.ar    1  UNL1        0.1649
     12 N          -3.4467    4.0064   25.3830 N.ar    1  UNL1       -0.1318
     13 N          -2.8819    3.6363   26.7224 N.ar    1  UNL1       -0.1333
     14 C          -1.5882    2.9116   26.4957 C.ar    1  UNL1        0.1465
     15 C          -2.7336    3.6968   22.8583 C.3     1  UNL1        0.1616
     16 C          -0.6875    2.3613   27.5613 C.3     1  UNL1        0.0625
     17 C           0.3499    3.2407   28.1944 C.3     1  UNL1        0.0291
     18 C           1.2506    2.6904   29.2600 C.3     1  UNL1        0.0926
     19 N           1.1142    1.2607   29.6927 N.pl3   1  UNL1       -0.2932
     20 C           0.0769    0.3813   29.0598 C.3     1  UNL1        0.0926
     21 C          -0.8239    0.9315   27.9941 C.3     1  UNL1        0.0291
     22 C           2.0150    0.7103   30.7585 C.ar    1  UNL1        0.1317
     23 C           2.2166    1.4700   32.0360 C.ar    1  UNL1        0.0343
     24 C           3.1174    0.9196   33.1017 C.ar    1  UNL1        0.0045
     25 C           3.8165   -0.3904   32.8898 C.ar    1  UNL1        0.0208
     26 C           3.6150   -1.1501   31.6122 C.ar    1  UNL1        0.1003
     27 N           2.7141   -0.5998   30.5465 N.ar    1  UNL1       -0.2292
     28 C          -2.8964    3.9343   18.9760 C.3     1  UNL1        0.1960
     29 S          -2.3850    3.5933   20.3442 S.O2    1  UNL1        0.0463
     30 O          -3.6544    2.8484   20.6331 O.2     1  UNL1       -0.1572
     31 O          -1.1155    4.3383   20.0553 O.2     1  UNL1       -0.1572
@<TRIPOS>BOND
     1    28    29    1
     2    29    30    2
     3    29    31    2
     4    29     1    1
     5     1     2    1
     6     2     3    1
     7     3     4   ar
     8     4     5   ar
     9     5     6    1
    10     5     7   ar
    11     7     8   ar
    12     8     9   ar
    13     9    10    1
    14    10    11   ar
    15    11    12   ar
    16    12    13   ar
    17    13    14   ar
    18    14    16    1
    19    16    17    1
    20    17    18    1
    21    18    19    1
    22    19    22    1
    23    22    23   ar
    24    23    24   ar
    25    24    25   ar
    26    25    26   ar
    27    26    27   ar
    28    19    20    1
    29    20    21    1
    30    11    15    1
    31    15     1    1
    32     9     3   ar
    33    14    10   ar
    34    21    16    1
    35    27    22   ar
@<TRIPOS>MOLECULE
*****
 31 35 0 0 0
SMALL
GASTEIGER

@<TRIPOS>ATOM
      1 N           4.6823   -1.8439   19.5052 N.3     1  UNL1       -0.1471
      2 C           3.9556   -1.1817   20.6381 C.3     1  UNL1        0.1237
      3 C           4.1504   -1.3726   22.1131 C.ar    1  UNL1        0.0126
      4 C           3.2117   -0.5121   22.9058 C.ar    1  UNL1        0.0100
      5 C           3.2427   -0.5520   24.4049 C.ar    1  UNL1        0.0575
      6 CL          2.3039    0.3085   25.1977 Cl      1  UNL1       -0.0823
      7 C           4.2124   -1.4523   25.1114 C.ar    1  UNL1        0.0129
      8 C           5.1512   -2.3128   24.3187 C.ar    1  UNL1        0.0182
      9 C           5.1202   -2.2729   22.8196 C.ar    1  UNL1        0.0637
     10 N           6.1345   -3.2046   22.2254 N.ar    1  UNL1       -0.2799
     11 C           6.4298   -3.4662   20.7783 C.ar    1  UNL1        0.1649
     12 N           7.5310   -4.4820   20.7060 N.ar    1  UNL1       -0.1318
     13 N           7.9164   -4.8483   22.1086 N.ar    1  UNL1       -0.1333
     14 C           7.0534   -4.0588   23.0477 C.ar    1  UNL1        0.1465
     15 C           5.7834   -2.8606   19.5677 C.3     1  UNL1        0.1616
     16 C           7.1009   -4.1139   24.5459 C.3     1  UNL1        0.0625
     17 C           6.5785   -5.3198   25.2691 C.3     1  UNL1        0.0291
     18 C           6.6259   -5.3748   26.7672 C.3     1  UNL1        0.0926
     19 N           7.1958   -4.2240   27.5424 N.pl3   1  UNL1       -0.2932
     20 C           7.7182   -3.0181   26.8193 C.3     1  UNL1        0.0926
     21 C           7.6708   -2.9630   25.3210 C.3     1  UNL1        0.0291
     22 C           7.2433   -4.2791   29.0407 C.ar    1  UNL1        0.1317
     23 C           7.0326   -5.5837   29.7503 C.ar    1  UNL1        0.0343
     24 C           7.0801   -5.6387   31.2486 C.ar    1  UNL1        0.0045
     25 C           7.3382   -4.3892   32.0371 C.ar    1  UNL1        0.0208
     26 C           7.5489   -3.0845   31.3275 C.ar    1  UNL1        0.1003
     27 N           7.5014   -3.0295   29.8292 N.ar    1  UNL1       -0.2292
     28 C           3.8195   -1.0269   16.7507 C.3     1  UNL1        0.1960
     29 S           4.2509   -1.4354   18.1280 S.O2    1  UNL1        0.0463
     30 O           3.1699   -0.5807   18.7201 O.2     1  UNL1       -0.1572
     31 O           5.3320   -2.2901   17.5358 O.2     1  UNL1       -0.1572
@<TRIPOS>BOND
     1    28    29    1
     2    29    30    2
     3    29    31    2
     4    29     1    1
     5     1     2    1
     6     2     3    1
     7     3     4   ar
     8     4     5   ar
     9     5     6    1
    10     5     7   ar
    11     7     8   ar
    12     8     9   ar
    13     9    10    1
    14    10    11   ar
    15    11    12   ar
    16    12    13   ar
    17    13    14   ar
    18    14    16    1
    19    16    17    1
    20    17    18    1
    21    18    19    1
    22    19    22    1
    23    22    23   ar
    24    23    24   ar
    25    24    25   ar
    26    25    26   ar
    27    26    27   ar
    28    19    20    1
    29    20    21    1
    30    11    15    1
    31    15     1    1
    32     9     3   ar
    33    14    10   ar
    34    21    16    1
    35    27    22   ar
@<TRIPOS>MOLECULE
*****
 31 35 0 0 0
SMALL
GASTEIGER

@<TRIPOS>ATOM
      1 N           7.7051   -5.2151   28.9194 N.3     1  UNL1       -0.1471
      2 C           8.1075   -5.8968   27.6453 C.3     1  UNL1        0.1237
      3 C           7.8274   -5.4790   26.2322 C.ar    1  UNL1        0.0126
      4 C           8.4121   -6.4482   25.2480 C.ar    1  UNL1        0.0100
      5 C           8.2451   -6.2146   23.7757 C.ar    1  UNL1        0.0575
      6 CL          8.8298   -7.1838   22.7914 Cl      1  UNL1       -0.0823
      7 C           7.4934   -5.0118   23.2877 C.ar    1  UNL1        0.0129
      8 C           6.9086   -4.0425   24.2719 C.ar    1  UNL1        0.0182
      9 C           7.0756   -4.2761   25.7441 C.ar    1  UNL1        0.0637
     10 N           6.4184   -3.1942   26.5488 N.ar    1  UNL1       -0.2799
     11 C           6.3505   -3.0477   28.0400 C.ar    1  UNL1        0.1649
     12 N           5.5816   -1.7974   28.3485 N.ar    1  UNL1       -0.1318
     13 N           5.1741   -1.1710   27.0478 N.ar    1  UNL1       -0.1333
     14 C           5.6913   -2.0342   25.9355 C.ar    1  UNL1        0.1465
     15 C           6.9232   -3.9471   29.0951 C.3     1  UNL1        0.1616
     16 C           5.5128   -1.7819   24.4678 C.3     1  UNL1        0.0625
     17 C           6.5254   -0.9679   23.7180 C.3     1  UNL1        0.0291
     18 C           6.3469   -0.7156   22.2503 C.3     1  UNL1        0.0926
     19 N           5.1558   -1.2773   21.5321 N.pl3   1  UNL1       -0.2932
     20 C           4.1431   -2.0913   22.2818 C.3     1  UNL1        0.0926
     21 C           4.3216   -2.3436   23.7496 C.3     1  UNL1        0.0291
     22 C           4.9772   -1.0250   20.0643 C.ar    1  UNL1        0.1317
     23 C           3.6042   -0.8008   19.5034 C.ar    1  UNL1        0.0343
     24 C           3.4256   -0.5485   18.0356 C.ar    1  UNL1        0.0045
     25 C           4.6201   -0.5204   17.1287 C.ar    1  UNL1        0.0208
     26 C           5.9931   -0.7446   17.6895 C.ar    1  UNL1        0.1003
     27 N           6.1717   -0.9969   19.1574 N.ar    1  UNL1       -0.2292
     28 C           8.5798   -6.5663   31.4510 C.3     1  UNL1        0.1960
     29 S           8.1425   -5.8907   30.1852 S.O2    1  UNL1        0.0463
     30 O           6.7501   -5.7713   30.7300 O.2     1  UNL1       -0.1572
     31 O           9.5349   -6.0101   29.6404 O.2     1  UNL1       -0.1572
@<TRIPOS>BOND
     1    28    29    1
     2    29    30    2
     3    29    31    2
     4    29     1    1
     5     1     2    1
     6     2     3    1
     7     3     4   ar
     8     4     5   ar
     9     5     6    1
    10     5     7   ar
    11     7     8   ar
    12     8     9   ar
    13     9    10    1
    14    10    11   ar
    15    11    12   ar
    16    12    13   ar
    17    13    14   ar
    18    14    16    1
    19    16    17    1
    20    17    18    1
    21    18    19    1
    22    19    22    1
    23    22    23   ar
    24    23    24   ar
    25    24    25   ar
    26    25    26   ar
    27    26    27   ar
    28    19    20    1
    29    20    21    1
    30    11    15    1
    31    15     1    1
    32     9     3   ar
    33    14    10   ar
    34    21    16    1
    35    27    22   ar
@<TRIPOS>MOLECULE
*****
 31 35 0 0 0
SMALL
GASTEIGER

@<TRIPOS>ATOM
      1 N          -2.6797    3.9050   25.3035 N.3     1  UNL1       -0.1471
      2 C          -1.5461    3.1453   25.9262 C.3     1  UNL1        0.1237
      3 C          -0.4453    2.3850   25.2477 C.ar    1  UNL1        0.0126
      4 C           0.4893    1.7670   26.2449 C.ar    1  UNL1        0.0100
      5 C           1.6630    0.9608   25.7733 C.ar    1  UNL1        0.0575
      6 CL          2.5978    0.3428   26.7706 Cl      1  UNL1       -0.0823
      7 C           1.9020    0.7725   24.3045 C.ar    1  UNL1        0.0129
      8 C           0.9674    1.3905   23.3073 C.ar    1  UNL1        0.0182
      9 C          -0.2063    2.1967   23.7789 C.ar    1  UNL1        0.0637
     10 N          -1.0091    2.7222   22.6258 N.ar    1  UNL1       -0.2799
     11 C          -2.2490    3.5657   22.6567 C.ar    1  UNL1        0.1649
     12 N          -2.6681    3.8258   21.2402 N.ar    1  UNL1       -0.1318
     13 N          -1.6873    3.1430   20.3338 N.ar    1  UNL1       -0.1333
     14 C          -0.6619    2.4609   21.1901 C.ar    1  UNL1        0.1465
     15 C          -2.9925    4.0921   23.8484 C.3     1  UNL1        0.1616
     16 C           0.5057    1.6585   20.6973 C.3     1  UNL1        0.0625
     17 C           1.8161    2.3336   20.4197 C.3     1  UNL1        0.0291
     18 C           2.9836    1.5312   19.9269 C.3     1  UNL1        0.0926
     19 N           2.8408    0.0536   19.7117 N.pl3   1  UNL1       -0.2932
     20 C           1.5304   -0.6215   19.9892 C.3     1  UNL1        0.0926
     21 C           0.3629    0.1809   20.4820 C.3     1  UNL1        0.0291
     22 C           4.0084   -0.7488   19.2188 C.ar    1  UNL1        0.1317
     23 C           3.8964   -2.2398   19.0986 C.ar    1  UNL1        0.0343
     24 C           5.0640   -3.0423   18.6058 C.ar    1  UNL1        0.0045
     25 C           6.3435   -2.3538   18.2332 C.ar    1  UNL1        0.0208
     26 C           6.4555   -0.8628   18.3534 C.ar    1  UNL1        0.1003
     27 N           5.2879   -0.0603   18.8462 N.ar    1  UNL1       -0.2292
     28 C          -4.5713    5.2247   27.2217 C.3     1  UNL1        0.1960
     29 S          -3.6255    4.5649   26.2626 S.O2    1  UNL1        0.0463
     30 O          -4.7077    3.6111   25.8516 O.2     1  UNL1       -0.1572
     31 O          -2.5433    5.5187   26.6737 O.2     1  UNL1       -0.1572
@<TRIPOS>BOND
     1    28    29    1
     2    29    30    2
     3    29    31    2
     4    29     1    1
     5     1     2    1
     6     2     3    1
     7     3     4   ar
     8     4     5   ar
     9     5     6    1
    10     5     7   ar
    11     7     8   ar
    12     8     9   ar
    13     9    10    1
    14    10    11   ar
    15    11    12   ar
    16    12    13   ar
    17    13    14   ar
    18    14    16    1
    19    16    17    1
    20    17    18    1
    21    18    19    1
    22    19    22    1
    23    22    23   ar
    24    23    24   ar
    25    24    25   ar
    26    25    26   ar
    27    26    27   ar
    28    19    20    1
    29    20    21    1
    30    11    15    1
    31    15     1    1
    32     9     3   ar
    33    14    10   ar
    34    21    16    1
    35    27    22   ar
@<TRIPOS>MOLECULE
*****
 31 35 0 0 0
SMALL
GASTEIGER

@<TRIPOS>ATOM
      1 N           1.0965    1.0501   30.3138 N.3     1  UNL1       -0.1471
      2 C           0.7765    2.2354   31.1755 C.3     1  UNL1        0.1237
      3 C           1.4013    2.6413   32.4774 C.ar    1  UNL1        0.0126
      4 C           0.7845    3.8996   33.0125 C.ar    1  UNL1        0.0100
      5 C           1.2671    4.4786   34.3094 C.ar    1  UNL1        0.0575
      6 CL          0.6504    5.7369   34.8446 Cl      1  UNL1       -0.0823
      7 C           2.3664    3.7994   35.0711 C.ar    1  UNL1        0.0129
      8 C           2.9832    2.5412   34.5359 C.ar    1  UNL1        0.0182
      9 C           2.5006    1.9621   33.2391 C.ar    1  UNL1        0.0637
     10 N           3.2465    0.7093   32.8870 N.ar    1  UNL1       -0.2799
     11 C           3.0775   -0.1738   31.6864 C.ar    1  UNL1        0.1649
     12 N           4.0609   -1.3009   31.7978 N.ar    1  UNL1       -0.1318
     13 N           4.8378   -1.1145   33.0673 N.ar    1  UNL1       -0.1333
     14 C           4.3345    0.1279   33.7405 C.ar    1  UNL1        0.1465
     15 C           2.1206   -0.0221   30.5412 C.3     1  UNL1        0.1616
     16 C           4.8318    0.6901   35.0391 C.3     1  UNL1        0.0625
     17 C           5.9855    1.6488   35.0487 C.3     1  UNL1        0.0291
     18 C           6.4828    2.2111   36.3472 C.3     1  UNL1        0.0926
     19 N           5.8265    1.8147   37.6365 N.pl3   1  UNL1       -0.2932
     20 C           4.6729    0.8560   37.6271 C.3     1  UNL1        0.0926
     21 C           4.1755    0.2937   36.3284 C.3     1  UNL1        0.0291
     22 C           6.3238    2.3769   38.9352 C.ar    1  UNL1        0.1317
     23 C           7.7913    2.3630   39.2455 C.ar    1  UNL1        0.0343
     24 C           8.2886    2.9253   40.5442 C.ar    1  UNL1        0.0045
     25 C           7.3185    3.5014   41.5325 C.ar    1  UNL1        0.0208
     26 C           5.8510    3.5154   41.2222 C.ar    1  UNL1        0.1003
     27 N           5.3536    2.9531   39.9235 N.ar    1  UNL1       -0.2292
     28 C          -0.5257    0.7894   27.8039 C.3     1  UNL1        0.1960
     29 S           0.2854    0.9198   29.0589 S.O2    1  UNL1        0.0463
     30 O           0.7034    2.2997   28.6453 O.2     1  UNL1       -0.1572
     31 O          -0.1327   -0.4602   29.4723 O.2     1  UNL1       -0.1572
@<TRIPOS>BOND
     1    28    29    1
     2    29    30    2
     3    29    31    2
     4    29     1    1
     5     1     2    1
     6     2     3    1
     7     3     4   ar
     8     4     5   ar
     9     5     6    1
    10     5     7   ar
    11     7     8   ar
    12     8     9   ar
    13     9    10    1
    14    10    11   ar
    15    11    12   ar
    16    12    13   ar
    17    13    14   ar
    18    14    16    1
    19    16    17    1
    20    17    18    1
    21    18    19    1
    22    19    22    1
    23    22    23   ar
    24    23    24   ar
    25    24    25   ar
    26    25    26   ar
    27    26    27   ar
    28    19    20    1
    29    20    21    1
    30    11    15    1
    31    15     1    1
    32     9     3   ar
    33    14    10   ar
    34    21    16    1
    35    27    22   ar
