@<TRIPOS>MOLECULE
*****
 32 35 0 0 0
SMALL
GASTEIGER

@<TRIPOS>ATOM
      1 C           4.4126   -0.6700   17.6116 C.2     1  UNL1        0.2525
      2 O           3.9109   -1.2751   16.3340 O.2     1  UNL1       -0.2698
      3 N           5.0702   -1.5365   18.6444 N.am    1  UNL1       -0.2660
      4 C           5.6182   -1.0759   19.9625 C.3     1  UNL1        0.1236
      5 C           6.1819   -2.2706   20.6731 C.ar    1  UNL1        0.0338
      6 C           6.8690   -2.7242   21.9269 C.ar    1  UNL1        0.0991
      7 N           7.0941   -4.2036   21.8229 N.ar    1  UNL1       -0.2265
      8 N           6.5461   -4.6642   20.5047 N.ar    1  UNL1       -0.1679
      9 C           5.9823   -3.4696   19.7941 C.ar    1  UNL1        0.0981
     10 C           5.2952   -3.0159   18.5403 C.3     1  UNL1        0.1414
     11 C           7.7516   -5.0701   22.8556 C.ar    1  UNL1        0.1102
     12 C           8.8755   -5.9829   22.4635 C.ar    1  UNL1        0.0214
     13 C           9.5331   -6.8496   23.4962 C.ar    1  UNL1        0.0017
     14 C           9.0669   -6.8033   24.9211 C.ar    1  UNL1        0.0024
     15 C           7.9430   -5.8905   25.3133 C.ar    1  UNL1        0.0312
     16 C           7.2854   -5.0239   24.2806 C.ar    1  UNL1        0.1577
     17 F           6.1616   -4.1111   24.6728 F       1  UNL1       -0.2026
     18 C           2.9442    1.3474   18.3359 C.ar    1  UNL1        0.1431
     19 C           2.7883    2.8190   18.5806 C.ar    1  UNL1        0.0377
     20 C           3.9448    3.7450   18.3459 C.ar    1  UNL1        0.0134
     21 C           5.2572    3.1994   17.8665 C.ar    1  UNL1        0.0688
     22 C           5.4130    1.7277   17.6217 C.ar    1  UNL1        0.0178
     23 C           4.2566    0.8017   17.8564 C.ar    1  UNL1        0.0881
     24 C           6.4136    4.1254   17.6318 C.1     1  UNL1        0.1004
     25 N           7.5701    5.0515   17.3971 N.1     1  UNL1       -0.1908
     26 O           1.7877    0.4213   18.5705 O.3     1  UNL1       -0.4702
     27 C           0.0616    0.7640   20.4818 C.3     1  UNL1        0.0566
     28 C           1.3250    0.1388   19.9691 C.3     1  UNL1        0.2599
     29 C           2.1257   -0.7690   20.8550 C.3     1  UNL1        0.4340
     30 F           2.9264   -1.6769   21.7407 F       1  UNL1       -0.1664
     31 F           2.1422   -1.8091   19.7742 F       1  UNL1       -0.1664
     32 F           2.1093    0.2710   21.9357 F       1  UNL1       -0.1664
@<TRIPOS>BOND
     1    28    27    1
     2    28    26    1
     3    26    18    1
     4    18    19   ar
     5    19    20   ar
     6    20    21   ar
     7    21    24    1
     8    24    25    3
     9    21    22   ar
    10    22    23   ar
    11    23     1    1
    12     1     2    2
    13     1     3   am
    14     3     4    1
    15     4     5    1
    16     5     6   ar
    17     6     7   ar
    18     7    11    1
    19    11    12   ar
    20    12    13   ar
    21    13    14   ar
    22    14    15   ar
    23    15    16   ar
    24    16    17    1
    25     7     8   ar
    26     8     9   ar
    27     9    10    1
    28    28    29    1
    29    29    30    1
    30    29    31    1
    31    29    32    1
    32    23    18   ar
    33    10     3    1
    34     9     5   ar
    35    16    11   ar
@<TRIPOS>MOLECULE
*****
 32 35 0 0 0
SMALL
GASTEIGER

@<TRIPOS>ATOM
      1 C           1.9981    0.5931   19.4569 C.2     1  UNL1        0.2525
      2 O           0.7620    0.6568   18.6097 O.2     1  UNL1       -0.2698
      3 N           1.8925    0.7160   20.9481 N.am    1  UNL1       -0.2660
      4 C           3.0345    0.6713   21.9196 C.3     1  UNL1        0.1236
      5 C           2.4741    0.8329   23.3015 C.ar    1  UNL1        0.0338
      6 C           2.8335    0.9052   24.7560 C.ar    1  UNL1        0.0991
      7 N           1.5673    1.0945   25.5376 N.ar    1  UNL1       -0.2265
      8 N           0.4252    1.1392   24.5661 N.ar    1  UNL1       -0.1679
      9 C           0.9857    0.9776   23.1842 C.ar    1  UNL1        0.0981
     10 C           0.6262    0.9053   21.7297 C.3     1  UNL1        0.1414
     11 C           1.4616    1.2174   27.0288 C.ar    1  UNL1        0.1102
     12 C           0.6921    2.3533   27.6350 C.ar    1  UNL1        0.0214
     13 C           0.5864    2.4764   29.1263 C.ar    1  UNL1        0.0017
     14 C           1.2503    1.4634   30.0112 C.ar    1  UNL1        0.0024
     15 C           2.0199    0.3275   29.4050 C.ar    1  UNL1        0.0312
     16 C           2.1255    0.2045   27.9138 C.ar    1  UNL1        0.1577
     17 F           2.8950   -0.9314   27.3076 F       1  UNL1       -0.2026
     18 C           3.9501   -0.9617   18.7338 C.ar    1  UNL1        0.1431
     19 C           5.2919   -1.1484   18.0898 C.ar    1  UNL1        0.0377
     20 C           6.0236    0.0329   17.5250 C.ar    1  UNL1        0.0134
     21 C           5.4135    1.4010   17.6041 C.ar    1  UNL1        0.0688
     22 C           4.0717    1.5876   18.2481 C.ar    1  UNL1        0.0178
     23 C           3.3399    0.4063   18.8130 C.ar    1  UNL1        0.0881
     24 C           6.1452    2.5823   17.0393 C.1     1  UNL1        0.1004
     25 N           6.8770    3.7636   16.4744 N.1     1  UNL1       -0.1908
     26 O           3.2184   -2.1431   19.2986 O.3     1  UNL1       -0.4702
     27 C           4.3601   -3.1104   21.4225 C.3     1  UNL1        0.0566
     28 C           3.9800   -3.2426   19.9775 C.3     1  UNL1        0.2599
     29 C           4.3616   -4.4743   19.2112 C.3     1  UNL1        0.4340
     30 F           4.7431   -5.7061   18.4450 F       1  UNL1       -0.1664
     31 F           2.9294   -4.6683   18.8097 F       1  UNL1       -0.1664
     32 F           5.7938   -4.2805   19.6127 F       1  UNL1       -0.1664
@<TRIPOS>BOND
     1    28    27    1
     2    28    26    1
     3    26    18    1
     4    18    19   ar
     5    19    20   ar
     6    20    21   ar
     7    21    24    1
     8    24    25    3
     9    21    22   ar
    10    22    23   ar
    11    23     1    1
    12     1     2    2
    13     1     3   am
    14     3     4    1
    15     4     5    1
    16     5     6   ar
    17     6     7   ar
    18     7    11    1
    19    11    12   ar
    20    12    13   ar
    21    13    14   ar
    22    14    15   ar
    23    15    16   ar
    24    16    17    1
    25     7     8   ar
    26     8     9   ar
    27     9    10    1
    28    28    29    1
    29    29    30    1
    30    29    31    1
    31    29    32    1
    32    23    18   ar
    33    10     3    1
    34     9     5   ar
    35    16    11   ar
@<TRIPOS>MOLECULE
*****
 32 35 0 0 0
SMALL
GASTEIGER

@<TRIPOS>ATOM
      1 C           4.4753    0.3213   22.1796 C.2     1  UNL1        0.2525
      2 O           5.6096    0.8439   21.3488 O.2     1  UNL1       -0.2698
      3 N           4.7269   -0.1481   23.5819 N.am    1  UNL1       -0.2660
      4 C           3.6976   -0.6930   24.5272 C.3     1  UNL1        0.1236
      5 C           4.3865   -1.0366   25.8146 C.ar    1  UNL1        0.0338
      6 C           4.1762   -1.5857   27.1945 C.ar    1  UNL1        0.0991
      7 N           5.5012   -1.5925   27.8977 N.ar    1  UNL1       -0.2265
      8 N           6.5304   -1.0476   26.9523 N.ar    1  UNL1       -0.1679
      9 C           5.8415   -0.7040   25.6649 C.ar    1  UNL1        0.0981
     10 C           6.0519   -0.1549   24.2850 C.3     1  UNL1        0.1414
     11 C           5.7527   -2.0618   29.3000 C.ar    1  UNL1        0.1102
     12 C           5.2379   -1.2645   30.4615 C.ar    1  UNL1        0.0214
     13 C           5.4894   -1.7338   31.8638 C.ar    1  UNL1        0.0017
     14 C           6.2559   -3.0005   32.1046 C.ar    1  UNL1        0.0024
     15 C           6.7708   -3.7979   30.9430 C.ar    1  UNL1        0.0312
     16 C           6.5192   -3.3286   29.5408 C.ar    1  UNL1        0.1577
     17 F           7.0341   -4.1259   28.3793 F       1  UNL1       -0.2026
     18 C           2.6657   -0.9064   20.7765 C.ar    1  UNL1        0.1431
     19 C           1.2799   -0.9596   20.2050 C.ar    1  UNL1        0.0377
     20 C           0.3178    0.1614   20.4651 C.ar    1  UNL1        0.0134
     21 C           0.7415    1.3357   21.2966 C.ar    1  UNL1        0.0688
     22 C           2.1274    1.3889   21.8681 C.ar    1  UNL1        0.0178
     23 C           3.0895    0.2679   21.6081 C.ar    1  UNL1        0.0881
     24 C          -0.2207    2.4567   21.5567 C.1     1  UNL1        0.1004
     25 N          -1.1828    3.5777   21.8167 N.1     1  UNL1       -0.1908
     26 O           3.6279   -2.0274   20.5164 O.3     1  UNL1       -0.4702
     27 C           4.2621   -1.2008   18.1364 C.3     1  UNL1        0.0566
     28 C           4.0754   -2.3218   19.1154 C.3     1  UNL1        0.2599
     29 C           4.3362   -3.7374   18.6933 C.3     1  UNL1        0.4340
     30 F           4.5969   -5.1530   18.2713 F       1  UNL1       -0.1664
     31 F           3.0503   -4.1659   19.3360 F       1  UNL1       -0.1664
     32 F           5.6220   -3.3090   18.0506 F       1  UNL1       -0.1664
@<TRIPOS>BOND
     1    28    27    1
     2    28    26    1
     3    26    18    1
     4    18    19   ar
     5    19    20   ar
     6    20    21   ar
     7    21    24    1
     8    24    25    3
     9    21    22   ar
    10    22    23   ar
    11    23     1    1
    12     1     2    2
    13     1     3   am
    14     3     4    1
    15     4     5    1
    16     5     6   ar
    17     6     7   ar
    18     7    11    1
    19    11    12   ar
    20    12    13   ar
    21    13    14   ar
    22    14    15   ar
    23    15    16   ar
    24    16    17    1
    25     7     8   ar
    26     8     9   ar
    27     9    10    1
    28    28    29    1
    29    29    30    1
    30    29    31    1
    31    29    32    1
    32    23    18   ar
    33    10     3    1
    34     9     5   ar
    35    16    11   ar
@<TRIPOS>MOLECULE
*****
 32 35 0 0 0
SMALL
GASTEIGER

@<TRIPOS>ATOM
      1 C           2.9924    0.6971   20.6776 C.2     1  UNL1        0.2525
      2 O           3.4880    0.1644   21.9893 O.2     1  UNL1       -0.2698
      3 N           1.6621    1.3862   20.6024 N.am    1  UNL1       -0.2660
      4 C           1.0385    1.9670   19.3680 C.3     1  UNL1        0.1236
      5 C          -0.2871    2.5551   19.7513 C.ar    1  UNL1        0.0338
      6 C          -1.4918    3.2776   19.2252 C.ar    1  UNL1        0.0991
      7 N          -2.4320    3.5068   20.3713 N.ar    1  UNL1       -0.2265
      8 N          -1.8084    2.9259   21.6057 N.ar    1  UNL1       -0.1679
      9 C          -0.4828    2.3378   21.2225 C.ar    1  UNL1        0.0981
     10 C           0.7219    1.6153   21.7485 C.3     1  UNL1        0.1414
     11 C          -3.7622    4.1958   20.2961 C.ar    1  UNL1        0.1102
     12 C          -3.9312    5.4077   19.4285 C.ar    1  UNL1        0.0214
     13 C          -5.2615    6.0968   19.3534 C.ar    1  UNL1        0.0017
     14 C          -6.4227    5.5739   20.1459 C.ar    1  UNL1        0.0024
     15 C          -6.2537    4.3620   21.0136 C.ar    1  UNL1        0.0312
     16 C          -4.9236    3.6730   21.0887 C.ar    1  UNL1        0.1577
     17 F          -4.7545    2.4611   21.9563 F       1  UNL1       -0.2026
     18 C           3.9123   -0.7915   18.7571 C.ar    1  UNL1        0.1431
     19 C           4.7469   -0.9477   17.5206 C.ar    1  UNL1        0.0377
     20 C           5.4962    0.2283   16.9680 C.ar    1  UNL1        0.0134
     21 C           5.4110    1.5606   17.6518 C.ar    1  UNL1        0.0688
     22 C           4.5763    1.7168   18.8884 C.ar    1  UNL1        0.0178
     23 C           3.8270    0.5408   19.4411 C.ar    1  UNL1        0.0881
     24 C           6.1603    2.7367   17.0992 C.1     1  UNL1        0.1004
     25 N           6.9097    3.9127   16.5465 N.1     1  UNL1       -0.1908
     26 O           3.1629   -1.9675   19.3098 O.3     1  UNL1       -0.4702
     27 C           4.2869   -3.0796   21.3713 C.3     1  UNL1        0.0566
     28 C           3.9122   -3.1152   19.9193 C.3     1  UNL1        0.2599
     29 C           4.2868   -4.2982   19.0767 C.3     1  UNL1        0.4340
     30 F           4.6614   -5.4813   18.2342 F       1  UNL1       -0.1664
     31 F           5.7009   -3.8023   19.0090 F       1  UNL1       -0.1664
     32 F           2.8728   -4.7942   19.1444 F       1  UNL1       -0.1664
@<TRIPOS>BOND
     1    28    27    1
     2    28    26    1
     3    26    18    1
     4    18    19   ar
     5    19    20   ar
     6    20    21   ar
     7    21    24    1
     8    24    25    3
     9    21    22   ar
    10    22    23   ar
    11    23     1    1
    12     1     2    2
    13     1     3   am
    14     3     4    1
    15     4     5    1
    16     5     6   ar
    17     6     7   ar
    18     7    11    1
    19    11    12   ar
    20    12    13   ar
    21    13    14   ar
    22    14    15   ar
    23    15    16   ar
    24    16    17    1
    25     7     8   ar
    26     8     9   ar
    27     9    10    1
    28    28    29    1
    29    29    30    1
    30    29    31    1
    31    29    32    1
    32    23    18   ar
    33    10     3    1
    34     9     5   ar
    35    16    11   ar
@<TRIPOS>MOLECULE
*****
 32 35 0 0 0
SMALL
GASTEIGER

@<TRIPOS>ATOM
      1 C           4.2003   -2.9098   19.4612 C.2     1  UNL1        0.2525
      2 O           3.6093   -4.0576   18.6976 O.2     1  UNL1       -0.2698
      3 N           3.3117   -1.8209   19.9854 N.am    1  UNL1       -0.2660
      4 C           3.7566   -0.6171   20.7620 C.3     1  UNL1        0.1236
      5 C           2.5420    0.2031   21.0816 C.ar    1  UNL1        0.0338
      6 C           2.0663    1.4539   21.7590 C.ar    1  UNL1        0.0991
      7 N           0.5768    1.5303   21.5987 N.ar    1  UNL1       -0.2265
      8 N           0.1320    0.3264   20.8221 N.ar    1  UNL1       -0.1679
      9 C           1.3466   -0.4938   20.5025 C.ar    1  UNL1        0.0981
     10 C           1.8223   -1.7447   19.8250 C.3     1  UNL1        0.1414
     11 C          -0.3117    2.6190   22.1229 C.ar    1  UNL1        0.1102
     12 C          -0.2904    2.9674   23.5817 C.ar    1  UNL1        0.0214
     13 C          -1.1791    4.0562   24.1060 C.ar    1  UNL1        0.0017
     14 C          -2.0890    4.7968   23.1713 C.ar    1  UNL1        0.0024
     15 C          -2.1103    4.4484   21.7124 C.ar    1  UNL1        0.0312
     16 C          -1.2217    3.3596   21.1882 C.ar    1  UNL1        0.1577
     17 F          -1.2430    3.0113   19.7294 F       1  UNL1       -0.2026
     18 C           6.5881   -2.2868   18.6483 C.ar    1  UNL1        0.1431
     19 C           8.0676   -2.2279   18.8877 C.ar    1  UNL1        0.0377
     20 C           8.6391   -2.7327   20.1794 C.ar    1  UNL1        0.0134
     21 C           7.7310   -3.2966   21.2318 C.ar    1  UNL1        0.0688
     22 C           6.2514   -3.3556   20.9923 C.ar    1  UNL1        0.0178
     23 C           5.6799   -2.8507   19.7006 C.ar    1  UNL1        0.0881
     24 C           8.3025   -3.8014   22.5235 C.1     1  UNL1        0.1004
     25 N           8.8740   -4.3063   23.8152 N.1     1  UNL1       -0.1908
     26 O           6.0166   -1.7820   17.3566 O.3     1  UNL1       -0.4702
     27 C           6.7390    0.6668   16.8752 C.3     1  UNL1        0.0566
     28 C           5.6688   -0.3306   17.2068 C.3     1  UNL1        0.2599
     29 C           4.2508    0.1234   17.3886 C.3     1  UNL1        0.4340
     30 F           2.8328    0.5775   17.5704 F       1  UNL1       -0.1664
     31 F           4.7333    1.3312   18.1360 F       1  UNL1       -0.1664
     32 F           3.7682   -1.0843   16.6412 F       1  UNL1       -0.1664
@<TRIPOS>BOND
     1    28    27    1
     2    28    26    1
     3    26    18    1
     4    18    19   ar
     5    19    20   ar
     6    20    21   ar
     7    21    24    1
     8    24    25    3
     9    21    22   ar
    10    22    23   ar
    11    23     1    1
    12     1     2    2
    13     1     3   am
    14     3     4    1
    15     4     5    1
    16     5     6   ar
    17     6     7   ar
    18     7    11    1
    19    11    12   ar
    20    12    13   ar
    21    13    14   ar
    22    14    15   ar
    23    15    16   ar
    24    16    17    1
    25     7     8   ar
    26     8     9   ar
    27     9    10    1
    28    28    29    1
    29    29    30    1
    30    29    31    1
    31    29    32    1
    32    23    18   ar
    33    10     3    1
    34     9     5   ar
    35    16    11   ar
@<TRIPOS>MOLECULE
*****
 32 35 0 0 0
SMALL
GASTEIGER

@<TRIPOS>ATOM
      1 C           4.4275    0.3330   22.3436 C.2     1  UNL1        0.2525
      2 O           5.2503    1.1083   21.3577 O.2     1  UNL1       -0.2698
      3 N           3.1422    0.9061   22.8627 N.am    1  UNL1       -0.2660
      4 C           2.2184    0.2510   23.8463 C.3     1  UNL1        0.1236
      5 C           1.0603    1.1750   24.0807 C.ar    1  UNL1        0.0338
      6 C          -0.2265    1.3412   24.8336 C.ar    1  UNL1        0.0991
      7 N          -0.8138    2.6700   24.4602 N.ar    1  UNL1       -0.2265
      8 N           0.1101    3.3250   23.4765 N.ar    1  UNL1       -0.1679
      9 C           1.2682    2.4011   23.2420 C.ar    1  UNL1        0.0981
     10 C           2.5549    2.2349   22.4892 C.3     1  UNL1        0.1414
     11 C          -2.0990    3.2431   24.9792 C.ar    1  UNL1        0.1102
     12 C          -3.1888    3.6279   24.0231 C.ar    1  UNL1        0.0214
     13 C          -4.4742    4.2011   24.5421 C.ar    1  UNL1        0.0017
     14 C          -4.6698    4.3893   26.0173 C.ar    1  UNL1        0.0024
     15 C          -3.5799    4.0044   26.9735 C.ar    1  UNL1        0.0312
     16 C          -2.2946    3.4314   26.4545 C.ar    1  UNL1        0.1577
     17 F          -1.2048    3.0465   27.4106 F       1  UNL1       -0.2026
     18 C           4.4684   -2.2505   22.0709 C.ar    1  UNL1        0.1431
     19 C           4.9310   -3.5988   22.5378 C.ar    1  UNL1        0.0377
     20 C           5.8153   -3.7121   23.7441 C.ar    1  UNL1        0.0134
     21 C           6.2370   -2.4771   24.4836 C.ar    1  UNL1        0.0688
     22 C           5.7744   -1.1287   24.0167 C.ar    1  UNL1        0.0178
     23 C           4.8901   -1.0154   22.8104 C.ar    1  UNL1        0.0881
     24 C           7.1213   -2.5904   25.6899 C.1     1  UNL1        0.1004
     25 N           8.0056   -2.7038   26.8962 N.1     1  UNL1       -0.1908
     26 O           3.5841   -2.1371   20.8646 O.3     1  UNL1       -0.4702
     27 C           4.5685   -1.1061   18.6925 C.3     1  UNL1        0.0566
     28 C           4.1630   -2.3091   19.4915 C.3     1  UNL1        0.2599
     29 C           4.3363   -3.6840   18.9175 C.3     1  UNL1        0.4340
     30 F           4.5095   -5.0589   18.3435 F       1  UNL1       -0.1664
     31 F           2.9099   -4.0042   19.2539 F       1  UNL1       -0.1664
     32 F           5.7626   -3.3639   18.5810 F       1  UNL1       -0.1664
@<TRIPOS>BOND
     1    28    27    1
     2    28    26    1
     3    26    18    1
     4    18    19   ar
     5    19    20   ar
     6    20    21   ar
     7    21    24    1
     8    24    25    3
     9    21    22   ar
    10    22    23   ar
    11    23     1    1
    12     1     2    2
    13     1     3   am
    14     3     4    1
    15     4     5    1
    16     5     6   ar
    17     6     7   ar
    18     7    11    1
    19    11    12   ar
    20    12    13   ar
    21    13    14   ar
    22    14    15   ar
    23    15    16   ar
    24    16    17    1
    25     7     8   ar
    26     8     9   ar
    27     9    10    1
    28    28    29    1
    29    29    30    1
    30    29    31    1
    31    29    32    1
    32    23    18   ar
    33    10     3    1
    34     9     5   ar
    35    16    11   ar
@<TRIPOS>MOLECULE
*****
 32 35 0 0 0
SMALL
GASTEIGER

@<TRIPOS>ATOM
      1 C           3.5987    1.5011   35.2237 C.2     1  UNL1        0.2525
      2 O           2.3058    2.1710   34.8637 O.2     1  UNL1       -0.2698
      3 N           4.2133    0.5041   34.2864 N.am    1  UNL1       -0.2660
      4 C           5.4952   -0.2420   34.5096 C.3     1  UNL1        0.1236
      5 C           5.7279   -1.1290   33.3225 C.ar    1  UNL1        0.0338
      6 C           6.6640   -2.1383   32.7268 C.ar    1  UNL1        0.0991
      7 N           6.1045   -2.5642   31.4018 N.ar    1  UNL1       -0.2265
      8 N           4.8224   -1.8180   31.1786 N.ar    1  UNL1       -0.1679
      9 C           4.5898   -0.9311   32.3657 C.ar    1  UNL1        0.0981
     10 C           3.6536    0.0783   32.9614 C.3     1  UNL1        0.1414
     11 C           6.7189   -3.5611   30.4645 C.ar    1  UNL1        0.1102
     12 C           6.8963   -4.9866   30.8966 C.ar    1  UNL1        0.0214
     13 C           7.5108   -5.9836   29.9594 C.ar    1  UNL1        0.0017
     14 C           7.9479   -5.5551   28.5900 C.ar    1  UNL1        0.0024
     15 C           7.7706   -4.1296   28.1578 C.ar    1  UNL1        0.0312
     16 C           7.1562   -3.1327   29.0951 C.ar    1  UNL1        0.1577
     17 F           6.9788   -1.7073   28.6630 F       1  UNL1       -0.2026
     18 C           3.5186    1.7252   37.8109 C.ar    1  UNL1        0.1431
     19 C           4.1970    2.0523   39.1080 C.ar    1  UNL1        0.0377
     20 C           5.6341    2.4823   39.1153 C.ar    1  UNL1        0.0134
     21 C           6.3927    2.5852   37.8254 C.ar    1  UNL1        0.0688
     22 C           5.7142    2.2581   36.5282 C.ar    1  UNL1        0.0178
     23 C           4.2771    1.8281   36.5209 C.ar    1  UNL1        0.0881
     24 C           7.8297    3.0152   37.8327 C.1     1  UNL1        0.1004
     25 N           9.2667    3.4452   37.8400 N.1     1  UNL1       -0.1908
     26 O           2.0816    1.2952   37.8036 O.3     1  UNL1       -0.4702
     27 C           1.4705   -0.4560   39.6228 C.3     1  UNL1        0.0566
     28 C           1.3970    0.9447   39.0914 C.3     1  UNL1        0.2599
     29 C           0.6390    1.9951   39.8478 C.3     1  UNL1        0.4340
     30 F          -0.1190    3.0454   40.6043 F       1  UNL1       -0.1664
     31 F           0.5776    1.0903   41.0427 F       1  UNL1       -0.1664
     32 F           0.7004    2.8999   38.6531 F       1  UNL1       -0.1664
@<TRIPOS>BOND
     1    28    27    1
     2    28    26    1
     3    26    18    1
     4    18    19   ar
     5    19    20   ar
     6    20    21   ar
     7    21    24    1
     8    24    25    3
     9    21    22   ar
    10    22    23   ar
    11    23     1    1
    12     1     2    2
    13     1     3   am
    14     3     4    1
    15     4     5    1
    16     5     6   ar
    17     6     7   ar
    18     7    11    1
    19    11    12   ar
    20    12    13   ar
    21    13    14   ar
    22    14    15   ar
    23    15    16   ar
    24    16    17    1
    25     7     8   ar
    26     8     9   ar
    27     9    10    1
    28    28    29    1
    29    29    30    1
    30    29    31    1
    31    29    32    1
    32    23    18   ar
    33    10     3    1
    34     9     5   ar
    35    16    11   ar
@<TRIPOS>MOLECULE
*****
 32 35 0 0 0
SMALL
GASTEIGER

@<TRIPOS>ATOM
      1 C           2.1228    0.8297   19.0757 C.2     1  UNL1        0.2525
      2 O           0.9115    0.5865   18.2251 O.2     1  UNL1       -0.2698
      3 N           1.9792    0.9733   20.5619 N.am    1  UNL1       -0.2660
      4 C           3.0935    1.2178   21.5358 C.3     1  UNL1        0.1236
      5 C           2.4989    1.2932   22.9109 C.ar    1  UNL1        0.0338
      6 C           2.8202    1.4909   24.3627 C.ar    1  UNL1        0.0991
      7 N           1.5370    1.4152   25.1359 N.ar    1  UNL1       -0.2265
      8 N           0.4227    1.1706   24.1619 N.ar    1  UNL1       -0.1679
      9 C           1.0172    1.0952   22.7868 C.ar    1  UNL1        0.0981
     10 C           0.6960    0.8975   21.3350 C.3     1  UNL1        0.1414
     11 C           1.3933    1.5587   26.6220 C.ar    1  UNL1        0.1102
     12 C           2.0318    0.5567   27.5375 C.ar    1  UNL1        0.0214
     13 C           1.8882    0.7002   29.0237 C.ar    1  UNL1        0.0017
     14 C           1.1060    1.8459   29.5944 C.ar    1  UNL1        0.0024
     15 C           0.4675    2.8480   28.6788 C.ar    1  UNL1        0.0312
     16 C           0.6111    2.7044   27.1927 C.ar    1  UNL1        0.1577
     17 F          -0.0273    3.7065   26.2772 F       1  UNL1       -0.2026
     18 C           4.1749   -0.3098   17.9616 C.ar    1  UNL1        0.1431
     19 C           5.5298   -0.2101   17.3260 C.ar    1  UNL1        0.0377
     20 C           6.1879    1.1287   17.1687 C.ar    1  UNL1        0.0134
     21 C           5.4909    2.3678   17.6471 C.ar    1  UNL1        0.0688
     22 C           4.1358    2.2680   18.2827 C.ar    1  UNL1        0.0178
     23 C           3.4778    0.9293   18.4400 C.ar    1  UNL1        0.0881
     24 C           6.1489    3.7065   17.4898 C.1     1  UNL1        0.1004
     25 N           6.8069    5.0453   17.3325 N.1     1  UNL1       -0.1908
     26 O           3.5169   -1.6486   18.1189 O.3     1  UNL1       -0.4702
     27 C           3.9491   -4.0783   18.9311 C.3     1  UNL1        0.0566
     28 C           3.9940   -2.5992   19.1766 C.3     1  UNL1        0.2599
     29 C           4.5161   -2.0706   20.4797 C.3     1  UNL1        0.4340
     30 F           5.0380   -1.5421   21.7828 F       1  UNL1       -0.1664
     31 F           3.1130   -1.9692   21.0006 F       1  UNL1       -0.1664
     32 F           5.9191   -2.1720   19.9588 F       1  UNL1       -0.1664
@<TRIPOS>BOND
     1    28    27    1
     2    28    26    1
     3    26    18    1
     4    18    19   ar
     5    19    20   ar
     6    20    21   ar
     7    21    24    1
     8    24    25    3
     9    21    22   ar
    10    22    23   ar
    11    23     1    1
    12     1     2    2
    13     1     3   am
    14     3     4    1
    15     4     5    1
    16     5     6   ar
    17     6     7   ar
    18     7    11    1
    19    11    12   ar
    20    12    13   ar
    21    13    14   ar
    22    14    15   ar
    23    15    16   ar
    24    16    17    1
    25     7     8   ar
    26     8     9   ar
    27     9    10    1
    28    28    29    1
    29    29    30    1
    30    29    31    1
    31    29    32    1
    32    23    18   ar
    33    10     3    1
    34     9     5   ar
    35    16    11   ar
@<TRIPOS>MOLECULE
*****
 32 35 0 0 0
SMALL
GASTEIGER

@<TRIPOS>ATOM
      1 C           3.4263   -0.0150   22.0976 C.2     1  UNL1        0.2525
      2 O           4.2967   -0.9077   22.9315 O.2     1  UNL1       -0.2698
      3 N           2.2570    0.6878   22.7213 N.am    1  UNL1       -0.2660
      4 C           1.3028    1.6066   22.0176 C.3     1  UNL1        0.1236
      5 C           0.2928    2.0818   23.0196 C.ar    1  UNL1        0.0338
      6 C          -0.9212    2.9434   23.2040 C.ar    1  UNL1        0.0991
      7 N          -1.3415    2.8507   24.6410 N.ar    1  UNL1       -0.2265
      8 N          -0.3872    1.9319   25.3447 N.ar    1  UNL1       -0.1679
      9 C           0.6228    1.4567   24.3426 C.ar    1  UNL1        0.0981
     10 C           1.8368    0.5951   24.1583 C.3     1  UNL1        0.1414
     11 C          -2.5106    3.5535   25.2647 C.ar    1  UNL1        0.1102
     12 C          -3.8776    3.4137   24.6633 C.ar    1  UNL1        0.0214
     13 C          -5.0469    4.1165   25.2870 C.ar    1  UNL1        0.0017
     14 C          -4.8491    4.9590   26.5121 C.ar    1  UNL1        0.0024
     15 C          -3.4820    5.0988   27.1136 C.ar    1  UNL1        0.0312
     16 C          -2.3129    4.3960   26.4899 C.ar    1  UNL1        0.1577
     17 F          -0.9459    4.5357   27.0913 F       1  UNL1       -0.2026
     18 C           3.5239   -0.9591   19.6790 C.ar    1  UNL1        0.1431
     19 C           3.8228   -0.7690   18.2215 C.ar    1  UNL1        0.0377
     20 C           4.3228    0.5551   17.7248 C.ar    1  UNL1        0.0134
     21 C           4.5241    1.6892   18.6857 C.ar    1  UNL1        0.0688
     22 C           4.2252    1.4991   20.1433 C.ar    1  UNL1        0.0178
     23 C           3.7251    0.1750   20.6400 C.ar    1  UNL1        0.0881
     24 C           5.0241    3.0133   18.1890 C.1     1  UNL1        0.1004
     25 N           5.5242    4.3374   17.6923 N.1     1  UNL1       -0.1908
     26 O           3.0238   -2.2832   20.1757 O.3     1  UNL1       -0.4702
     27 C           3.5388   -4.5715   19.0584 C.3     1  UNL1        0.0566
     28 C           3.8863   -3.5043   20.0536 C.3     1  UNL1        0.2599
     29 C           5.0962   -3.6583   20.9268 C.3     1  UNL1        0.4340
     30 F           6.3061   -3.8122   21.7998 F       1  UNL1       -0.1664
     31 F           5.9787   -3.3056   19.7661 F       1  UNL1       -0.1664
     32 F           4.2138   -4.0110   22.0874 F       1  UNL1       -0.1664
@<TRIPOS>BOND
     1    28    27    1
     2    28    26    1
     3    26    18    1
     4    18    19   ar
     5    19    20   ar
     6    20    21   ar
     7    21    24    1
     8    24    25    3
     9    21    22   ar
    10    22    23   ar
    11    23     1    1
    12     1     2    2
    13     1     3   am
    14     3     4    1
    15     4     5    1
    16     5     6   ar
    17     6     7   ar
    18     7    11    1
    19    11    12   ar
    20    12    13   ar
    21    13    14   ar
    22    14    15   ar
    23    15    16   ar
    24    16    17    1
    25     7     8   ar
    26     8     9   ar
    27     9    10    1
    28    28    29    1
    29    29    30    1
    30    29    31    1
    31    29    32    1
    32    23    18   ar
    33    10     3    1
    34     9     5   ar
    35    16    11   ar
