@<TRIPOS>MOLECULE
*****
 27 29 0 0 0
SMALL
GASTEIGER

@<TRIPOS>ATOM
      1 N          -7.7654  -19.0215   21.0359 N.ar    1  UNL1       -0.3190
      2 C          -6.5495  -19.6661   20.4394 C.ar    1  UNL1        0.0823
      3 C          -5.3398  -19.0724   21.0983 C.ar    1  UNL1        0.0895
      4 C          -5.8081  -18.0610   22.1021 C.ar    1  UNL1        0.1028
      5 N          -5.0632  -17.1645   23.0462 N.ar    1  UNL1       -0.2425
      6 C          -5.8174  -16.2367   23.9518 C.ar    1  UNL1        0.0946
      7 C          -7.3166  -16.2052   23.9133 C.ar    1  UNL1       -0.0013
      8 C          -8.0708  -15.2773   24.8189 C.3     1  UNL1        0.0327
      9 C          -8.0615  -17.1016   22.9691 C.ar    1  UNL1        0.0160
     10 C          -7.3073  -18.0295   22.0635 C.ar    1  UNL1        0.0780
     11 C          -3.9123  -19.4278   20.8049 C.2     1  UNL1        0.2489
     12 O          -3.5565  -20.8261   20.3951 O.2     1  UNL1       -0.2700
     13 N          -2.8405  -18.3847   20.9214 N.am    1  UNL1       -0.2981
     14 H          -3.0740  -17.4669   21.1904 H       1  UNL1        0.1498
     15 C          -1.4131  -18.7401   20.6281 C.3     1  UNL1        0.1280
     16 C          -0.5949  -17.8699   19.7208 C.3     1  UNL1        0.2144
     17 F           0.7407  -17.3598   20.1747 F       1  UNL1       -0.2324
     18 C          -9.1896  -19.3170   20.6693 C.3     1  UNL1        0.1518
     19 C         -12.0961  -17.9520   23.0016 C.ar    1  UNL1        0.2234
     20 N         -12.5059  -16.7192   22.2516 N.ar    1  UNL1       -0.1896
     21 C         -11.8103  -16.3524   20.9743 C.ar    1  UNL1        0.2012
     22 N         -10.7049  -17.2183   20.4468 N.ar    1  UNL1       -0.2265
     23 C         -10.2951  -18.4511   21.1967 C.ar    1  UNL1        0.0841
     24 C         -10.9907  -18.8178   22.4741 C.ar    1  UNL1        0.0468
     25 C         -10.5807  -20.0506   23.2240 C.3     1  UNL1        0.0372
     26 C         -14.2853  -18.2203   24.3745 C.3     1  UNL1        0.2542
     27 O         -12.7916  -18.3188   24.2789 O.3     1  UNL1       -0.4563
@<TRIPOS>BOND
     1    26    27    1
     2    27    19    1
     3    19    20   ar
     4    20    21   ar
     5    21    22   ar
     6    22    23   ar
     7    23    18    1
     8    18     1    1
     9     1     2   ar
    10     2     3   ar
    11     3    11    1
    12    11    12    2
    13    11    13   am
    14    13    15    1
    15    15    16    1
    16    16    17    1
    17     3     4   ar
    18     4     5   ar
    19     5     6   ar
    20     6     7   ar
    21     7     8    1
    22     7     9   ar
    23     9    10   ar
    24    23    24   ar
    25    24    25    1
    26    24    19   ar
    27    10     1   ar
    28    10     4   ar
    29    13    14    1
@<TRIPOS>MOLECULE
*****
 27 29 0 0 0
SMALL
GASTEIGER

@<TRIPOS>ATOM
      1 N          -7.6310  -19.4653   22.3293 N.ar    1  UNL1       -0.3190
      2 C          -6.4527  -20.0091   21.5770 C.ar    1  UNL1        0.0823
      3 C          -5.3157  -19.0437   21.7359 C.ar    1  UNL1        0.0895
      4 C          -5.7913  -17.9033   22.5865 C.ar    1  UNL1        0.1028
      5 N          -5.1062  -16.6613   23.0744 N.ar    1  UNL1       -0.2425
      6 C          -5.8521  -15.6799   23.9290 C.ar    1  UNL1        0.0946
      7 C          -7.2831  -15.9406   24.2958 C.ar    1  UNL1       -0.0013
      8 C          -8.0289  -14.9591   25.1505 C.3     1  UNL1        0.0327
      9 C          -7.9681  -17.1826   23.8079 C.ar    1  UNL1        0.0160
     10 C          -7.2222  -18.1639   22.9532 C.ar    1  UNL1        0.0780
     11 C          -3.9440  -19.1925   21.1476 C.2     1  UNL1        0.2489
     12 O          -2.9446  -20.1039   21.7958 O.2     1  UNL1       -0.2700
     13 N          -3.5715  -18.4296   19.9108 N.am    1  UNL1       -0.2981
     14 H          -4.2274  -17.8313   19.4852 H       1  UNL1        0.1498
     15 C          -2.1998  -18.5784   19.3224 C.3     1  UNL1        0.1280
     16 C          -1.0906  -17.6719   19.7673 C.3     1  UNL1        0.2144
     17 F           0.3071  -18.2021   19.8914 F       1  UNL1       -0.2324
     18 C          -8.9810  -20.1099   22.4386 C.3     1  UNL1        0.1518
     19 C         -11.8025  -17.7757   20.9085 C.ar    1  UNL1        0.2234
     20 N         -12.7042  -17.6058   22.0951 N.ar    1  UNL1       -0.1896
     21 C         -12.3648  -18.2705   23.3962 C.ar    1  UNL1        0.2012
     22 N         -11.1238  -19.1052   23.5108 N.ar    1  UNL1       -0.2265
     23 C         -10.2221  -19.2751   22.3241 C.ar    1  UNL1        0.0841
     24 C         -10.5615  -18.6104   21.0230 C.ar    1  UNL1        0.0468
     25 C          -9.6598  -18.7804   19.8364 C.3     1  UNL1        0.0372
     26 C         -11.6811  -15.7091   19.3388 C.3     1  UNL1        0.2542
     27 O         -12.1419  -17.1110   19.6073 O.3     1  UNL1       -0.4563
@<TRIPOS>BOND
     1    26    27    1
     2    27    19    1
     3    19    20   ar
     4    20    21   ar
     5    21    22   ar
     6    22    23   ar
     7    23    18    1
     8    18     1    1
     9     1     2   ar
    10     2     3   ar
    11     3    11    1
    12    11    12    2
    13    11    13   am
    14    13    15    1
    15    15    16    1
    16    16    17    1
    17     3     4   ar
    18     4     5   ar
    19     5     6   ar
    20     6     7   ar
    21     7     8    1
    22     7     9   ar
    23     9    10   ar
    24    23    24   ar
    25    24    25    1
    26    24    19   ar
    27    10     1   ar
    28    10     4   ar
    29    13    14    1
@<TRIPOS>MOLECULE
*****
 27 29 0 0 0
SMALL
GASTEIGER

@<TRIPOS>ATOM
      1 N          -6.8795  -19.1248   21.5032 N.ar    1  UNL1       -0.3190
      2 C          -5.6356  -19.6982   20.8916 C.ar    1  UNL1        0.0823
      3 C          -4.4629  -18.9198   21.4103 C.ar    1  UNL1        0.0895
      4 C          -4.9820  -17.8654   22.3423 C.ar    1  UNL1        0.1028
      5 N          -4.2877  -16.8063   23.1461 N.ar    1  UNL1       -0.2425
      6 C          -5.0869  -15.8739   24.0074 C.ar    1  UNL1        0.0946
      7 C          -6.5805  -16.0006   24.0648 C.ar    1  UNL1       -0.0013
      8 C          -7.3797  -15.0681   24.9261 C.3     1  UNL1        0.0327
      9 C          -7.2748  -17.0597   23.2610 C.ar    1  UNL1        0.0160
     10 C          -6.4756  -17.9921   22.3998 C.ar    1  UNL1        0.0780
     11 C          -3.0238  -19.1546   21.0586 C.2     1  UNL1        0.2489
     12 O          -2.2343  -20.2004   21.7885 O.2     1  UNL1       -0.2700
     13 N          -2.3740  -18.3435   19.9768 N.am    1  UNL1       -0.2981
     14 H          -2.8922  -17.6570   19.4977 H       1  UNL1        0.1498
     15 C          -0.9348  -18.5783   19.6252 C.3     1  UNL1        0.1280
     16 C           0.1063  -17.5712   20.0148 C.3     1  UNL1        0.2144
     17 F          -0.2992  -16.1693   20.3617 F       1  UNL1       -0.2324
     18 C          -8.2812  -19.6006   21.2607 C.3     1  UNL1        0.1518
     19 C         -11.5679  -18.6527   23.2732 C.ar    1  UNL1        0.2234
     20 N         -11.3328  -19.3852   24.5609 N.ar    1  UNL1       -0.1896
     21 C         -10.0807  -20.1894   24.7486 C.ar    1  UNL1        0.2012
     22 N          -9.0634  -20.2612   23.6486 N.ar    1  UNL1       -0.2265
     23 C          -9.2985  -19.5288   22.3609 C.ar    1  UNL1        0.0841
     24 C         -10.5506  -18.7246   22.1732 C.ar    1  UNL1        0.0468
     25 C         -10.7856  -17.9921   20.8854 C.3     1  UNL1        0.0372
     26 C         -13.9659  -18.0112   24.0397 C.3     1  UNL1        0.2542
     27 O         -12.8200  -17.8485   23.0855 O.3     1  UNL1       -0.4563
@<TRIPOS>BOND
     1    26    27    1
     2    27    19    1
     3    19    20   ar
     4    20    21   ar
     5    21    22   ar
     6    22    23   ar
     7    23    18    1
     8    18     1    1
     9     1     2   ar
    10     2     3   ar
    11     3    11    1
    12    11    12    2
    13    11    13   am
    14    13    15    1
    15    15    16    1
    16    16    17    1
    17     3     4   ar
    18     4     5   ar
    19     5     6   ar
    20     6     7   ar
    21     7     8    1
    22     7     9   ar
    23     9    10   ar
    24    23    24   ar
    25    24    25    1
    26    24    19   ar
    27    10     1   ar
    28    10     4   ar
    29    13    14    1
@<TRIPOS>MOLECULE
*****
 27 29 0 0 0
SMALL
GASTEIGER

@<TRIPOS>ATOM
      1 N          -5.9398  -18.4120   22.3114 N.ar    1  UNL1       -0.3190
      2 C          -7.1730  -18.7874   21.5444 C.ar    1  UNL1        0.0823
      3 C          -8.2984  -17.9182   22.0220 C.ar    1  UNL1        0.0895
      4 C          -7.7607  -17.0057   23.0842 C.ar    1  UNL1        0.1028
      5 N          -8.4100  -15.9364   23.9117 N.ar    1  UNL1       -0.2425
      6 C          -7.6017  -15.1722   24.9179 C.ar    1  UNL1        0.0946
      7 C          -6.1440  -15.4774   25.0967 C.ar    1  UNL1       -0.0013
      8 C          -5.3357  -14.7132   26.1031 C.3     1  UNL1        0.0327
      9 C          -5.4946  -16.5467   24.2693 C.ar    1  UNL1        0.0160
     10 C          -6.3030  -17.3109   23.2630 C.ar    1  UNL1        0.0780
     11 C          -9.7131  -17.9551   21.5248 C.2     1  UNL1        0.2489
     12 O          -9.9887  -18.0670   20.0547 O.2     1  UNL1       -0.2700
     13 N         -10.8523  -17.8799   22.4979 N.am    1  UNL1       -0.2981
     14 H         -10.6714  -17.8064   23.4628 H       1  UNL1        0.1498
     15 C         -12.2670  -17.9168   22.0006 C.3     1  UNL1        0.1280
     16 C         -13.4058  -17.7990   22.9698 C.3     1  UNL1        0.2144
     17 F         -13.2371  -18.2656   24.3853 F       1  UNL1       -0.2324
     18 C          -4.5818  -19.0294   22.1543 C.3     1  UNL1        0.1518
     19 C          -1.8292  -17.8365   19.5561 C.ar    1  UNL1        0.2234
     20 N          -1.2385  -16.6667   20.2860 N.ar    1  UNL1       -0.1896
     21 C          -1.7622  -16.2846   21.6387 C.ar    1  UNL1        0.2012
     22 N          -2.8766  -17.0721   22.2615 N.ar    1  UNL1       -0.2265
     23 C          -3.4673  -18.2418   21.5315 C.ar    1  UNL1        0.0841
     24 C          -2.9436  -18.6240   20.1789 C.ar    1  UNL1        0.0468
     25 C          -3.5344  -19.7937   19.4490 C.3     1  UNL1        0.0372
     26 C          -1.8025  -17.5091   16.9789 C.3     1  UNL1        0.2542
     27 O          -1.3055  -18.2186   18.2034 O.3     1  UNL1       -0.4563
@<TRIPOS>BOND
     1    26    27    1
     2    27    19    1
     3    19    20   ar
     4    20    21   ar
     5    21    22   ar
     6    22    23   ar
     7    23    18    1
     8    18     1    1
     9     1     2   ar
    10     2     3   ar
    11     3    11    1
    12    11    12    2
    13    11    13   am
    14    13    15    1
    15    15    16    1
    16    16    17    1
    17     3     4   ar
    18     4     5   ar
    19     5     6   ar
    20     6     7   ar
    21     7     8    1
    22     7     9   ar
    23     9    10   ar
    24    23    24   ar
    25    24    25    1
    26    24    19   ar
    27    10     1   ar
    28    10     4   ar
    29    13    14    1
@<TRIPOS>MOLECULE
*****
 27 29 0 0 0
SMALL
GASTEIGER

@<TRIPOS>ATOM
      1 N          -7.8184  -18.2990   21.6094 N.ar    1  UNL1       -0.3190
      2 C          -7.8907  -17.2297   22.6589 C.ar    1  UNL1        0.0823
      3 C          -6.4992  -16.9752   23.1578 C.ar    1  UNL1        0.0895
      4 C          -5.5669  -17.8871   22.4167 C.ar    1  UNL1        0.1028
      5 N          -4.0810  -18.0782   22.4896 N.ar    1  UNL1       -0.2425
      6 C          -3.4103  -19.0874   21.6055 C.ar    1  UNL1        0.0946
      7 C          -4.2257  -19.9056   20.6485 C.ar    1  UNL1       -0.0013
      8 C          -3.5550  -20.9149   19.7644 C.3     1  UNL1        0.0327
      9 C          -5.7116  -19.7145   20.5756 C.ar    1  UNL1        0.0160
     10 C          -6.3823  -18.7053   21.4597 C.ar    1  UNL1        0.0780
     11 C          -6.1085  -15.9829   24.2127 C.2     1  UNL1        0.2489
     12 O          -5.1410  -14.8839   23.8872 O.2     1  UNL1       -0.2700
     13 N          -6.6854  -16.0897   25.5933 N.am    1  UNL1       -0.2981
     14 H          -7.3204  -16.8110   25.8071 H       1  UNL1        0.1498
     15 C          -6.2947  -15.0974   26.6482 C.3     1  UNL1        0.1280
     16 C          -7.1864  -14.8725   27.8332 C.3     1  UNL1        0.2144
     17 F          -8.6764  -14.8673   27.6603 F       1  UNL1       -0.2324
     18 C          -8.9786  -18.8629   20.8440 C.3     1  UNL1        0.1518
     19 C         -12.7050  -17.8291   21.7359 C.ar    1  UNL1        0.2234
     20 N         -12.9143  -16.6816   20.7928 N.ar    1  UNL1       -0.1896
     21 C         -11.8116  -16.2612   19.8668 C.ar    1  UNL1        0.2012
     22 N         -10.4998  -16.9882   19.8838 N.ar    1  UNL1       -0.2265
     23 C         -10.2905  -18.1358   20.8269 C.ar    1  UNL1        0.0841
     24 C         -11.3932  -18.5562   21.7529 C.ar    1  UNL1        0.0468
     25 C         -11.1838  -19.7038   22.6959 C.3     1  UNL1        0.0372
     26 C         -13.7525  -17.8739   24.1130 C.3     1  UNL1        0.2542
     27 O         -13.8076  -18.2496   22.6619 O.3     1  UNL1       -0.4563
@<TRIPOS>BOND
     1    26    27    1
     2    27    19    1
     3    19    20   ar
     4    20    21   ar
     5    21    22   ar
     6    22    23   ar
     7    23    18    1
     8    18     1    1
     9     1     2   ar
    10     2     3   ar
    11     3    11    1
    12    11    12    2
    13    11    13   am
    14    13    15    1
    15    15    16    1
    16    16    17    1
    17     3     4   ar
    18     4     5   ar
    19     5     6   ar
    20     6     7   ar
    21     7     8    1
    22     7     9   ar
    23     9    10   ar
    24    23    24   ar
    25    24    25    1
    26    24    19   ar
    27    10     1   ar
    28    10     4   ar
    29    13    14    1
@<TRIPOS>MOLECULE
*****
 27 29 0 0 0
SMALL
GASTEIGER

@<TRIPOS>ATOM
      1 N          -6.1190  -18.5430   22.2819 N.ar    1  UNL1       -0.3190
      2 C          -7.3167  -18.8055   21.4179 C.ar    1  UNL1        0.0823
      3 C          -8.3839  -17.8205   21.7932 C.ar    1  UNL1        0.0895
      4 C          -7.8457  -16.9492   22.8892 C.ar    1  UNL1        0.1028
      5 N          -8.4495  -15.8069   23.6512 N.ar    1  UNL1       -0.2425
      6 C          -7.6534  -15.1112   24.7152 C.ar    1  UNL1        0.0946
      7 C          -6.2536  -15.5577   25.0173 C.ar    1  UNL1       -0.0013
      8 C          -5.4576  -14.8619   26.0814 C.3     1  UNL1        0.0327
      9 C          -5.6499  -16.7000   24.2553 C.ar    1  UNL1        0.0160
     10 C          -6.4460  -17.3957   23.1913 C.ar    1  UNL1        0.0780
     11 C          -9.7495  -17.7238   21.1802 C.2     1  UNL1        0.2489
     12 O         -10.2956  -18.8693   20.3807 O.2     1  UNL1       -0.2700
     13 N         -10.5690  -16.4813   21.3667 N.am    1  UNL1       -0.2981
     14 H         -10.2106  -15.7293   21.8915 H       1  UNL1        0.1498
     15 C         -11.9346  -16.3845   20.7537 C.3     1  UNL1        0.1280
     16 C         -12.1203  -15.6772   19.4441 C.3     1  UNL1        0.2144
     17 F         -10.9242  -15.2628   18.6393 F       1  UNL1       -0.2324
     18 C          -4.8220  -19.2956   22.2434 C.3     1  UNL1        0.1518
     19 C          -1.6404  -17.8500   20.3624 C.ar    1  UNL1        0.2234
     20 N          -1.8230  -18.4456   18.9978 N.ar    1  UNL1       -0.1896
     21 C          -3.0052  -19.3245   18.7152 C.ar    1  UNL1        0.2012
     22 N          -4.0049  -19.6078   19.7969 N.ar    1  UNL1       -0.2265
     23 C          -3.8223  -19.0123   21.1615 C.ar    1  UNL1        0.0841
     24 C          -2.6401  -18.1334   21.4442 C.ar    1  UNL1        0.0468
     25 C          -2.4576  -17.5378   22.8088 C.3     1  UNL1        0.0372
     26 C           0.8989  -17.3516   20.1317 C.3     1  UNL1        0.2542
     27 O          -0.4582  -16.9712   20.6451 O.3     1  UNL1       -0.4563
@<TRIPOS>BOND
     1    26    27    1
     2    27    19    1
     3    19    20   ar
     4    20    21   ar
     5    21    22   ar
     6    22    23   ar
     7    23    18    1
     8    18     1    1
     9     1     2   ar
    10     2     3   ar
    11     3    11    1
    12    11    12    2
    13    11    13   am
    14    13    15    1
    15    15    16    1
    16    16    17    1
    17     3     4   ar
    18     4     5   ar
    19     5     6   ar
    20     6     7   ar
    21     7     8    1
    22     7     9   ar
    23     9    10   ar
    24    23    24   ar
    25    24    25    1
    26    24    19   ar
    27    10     1   ar
    28    10     4   ar
    29    13    14    1
@<TRIPOS>MOLECULE
*****
 27 29 0 0 0
SMALL
GASTEIGER

@<TRIPOS>ATOM
      1 N          -7.1813  -17.3059   23.0081 N.ar    1  UNL1       -0.3190
      2 C          -5.7026  -17.2305   23.2482 C.ar    1  UNL1        0.0823
      3 C          -5.0213  -18.0753   22.2128 C.ar    1  UNL1        0.0895
      4 C          -6.0789  -18.6728   21.3328 C.ar    1  UNL1        0.1028
      5 N          -5.9989  -19.5884   20.1474 N.ar    1  UNL1       -0.2425
      6 C          -7.2538  -20.0285   19.4536 C.ar    1  UNL1        0.0946
      7 C          -8.5888  -19.5529   19.9452 C.ar    1  UNL1       -0.0013
      8 C          -9.8438  -19.9931   19.2513 C.3     1  UNL1        0.0327
      9 C          -8.6689  -18.6373   21.1305 C.ar    1  UNL1        0.0160
     10 C          -7.4139  -18.1972   21.8244 C.ar    1  UNL1        0.0780
     11 C          -3.5420  -18.2857   22.0806 C.2     1  UNL1        0.2489
     12 O          -2.6439  -18.0602   23.2605 O.2     1  UNL1       -0.2700
     13 N          -2.9608  -18.7217   20.7682 N.am    1  UNL1       -0.2981
     14 H          -3.5503  -18.8697   19.9936 H       1  UNL1        0.1498
     15 C          -1.4815  -18.9321   20.6359 C.3     1  UNL1        0.1280
     16 C          -0.6779  -18.0544   19.7228 C.3     1  UNL1        0.2144
     17 F           0.5729  -17.3959   20.2247 F       1  UNL1       -0.2324
     18 C          -8.2414  -16.6117   23.8109 C.3     1  UNL1        0.1518
     19 C         -12.0116  -17.8499   23.7602 C.ar    1  UNL1        0.2234
     20 N         -12.5697  -17.0135   22.6470 N.ar    1  UNL1       -0.1896
     21 C         -11.6850  -16.0433   21.9218 C.ar    1  UNL1        0.2012
     22 N         -10.2422  -15.9093   22.3097 N.ar    1  UNL1       -0.2265
     23 C          -9.6842  -16.7457   23.4229 C.ar    1  UNL1        0.0841
     24 C         -10.5689  -17.7159   24.1481 C.ar    1  UNL1        0.0468
     25 C         -10.0108  -18.5522   25.2613 C.3     1  UNL1        0.0372
     26 C         -14.2833  -18.4144   24.8874 C.3     1  UNL1        0.2542
     27 O         -12.8963  -18.8201   24.4854 O.3     1  UNL1       -0.4563
@<TRIPOS>BOND
     1    26    27    1
     2    27    19    1
     3    19    20   ar
     4    20    21   ar
     5    21    22   ar
     6    22    23   ar
     7    23    18    1
     8    18     1    1
     9     1     2   ar
    10     2     3   ar
    11     3    11    1
    12    11    12    2
    13    11    13   am
    14    13    15    1
    15    15    16    1
    16    16    17    1
    17     3     4   ar
    18     4     5   ar
    19     5     6   ar
    20     6     7   ar
    21     7     8    1
    22     7     9   ar
    23     9    10   ar
    24    23    24   ar
    25    24    25    1
    26    24    19   ar
    27    10     1   ar
    28    10     4   ar
    29    13    14    1
@<TRIPOS>MOLECULE
*****
 27 29 0 0 0
SMALL
GASTEIGER

@<TRIPOS>ATOM
      1 N         -14.0483   -4.4286   19.9494 N.ar    1  UNL1       -0.3190
      2 C         -15.3580   -5.1594   19.9696 C.ar    1  UNL1        0.0823
      3 C         -15.1541   -6.4942   19.3164 C.ar    1  UNL1        0.0895
      4 C         -13.7183   -6.5884   18.8925 C.ar    1  UNL1        0.1028
      5 N         -12.9449   -7.6716   18.2008 N.ar    1  UNL1       -0.2425
      6 C         -11.4881   -7.4782   17.9004 C.ar    1  UNL1        0.0946
      7 C         -10.8047   -6.2016   18.2916 C.ar    1  UNL1       -0.0013
      8 C          -9.3478   -6.0082   17.9911 C.3     1  UNL1        0.0327
      9 C         -11.5781   -5.1183   18.9833 C.ar    1  UNL1        0.0160
     10 C         -13.0348   -5.3117   19.2837 C.ar    1  UNL1        0.0780
     11 C         -16.2019   -7.5497   19.1213 C.2     1  UNL1        0.2489
     12 O         -17.3364   -7.3133   18.1691 O.2     1  UNL1       -0.2700
     13 N         -16.1153   -8.8416   19.8786 N.am    1  UNL1       -0.2981
     14 H         -15.3706   -8.9969   20.5037 H       1  UNL1        0.1498
     15 C         -17.1631   -9.8971   19.6836 C.3     1  UNL1        0.1280
     16 C         -17.0060  -10.9178   18.5957 C.3     1  UNL1        0.2144
     17 F         -16.7119  -12.3466   18.9448 F       1  UNL1       -0.2324
     18 C         -13.7961   -3.0557   20.4985 C.3     1  UNL1        0.1518
     19 C         -13.4423    0.1235   18.1494 C.ar    1  UNL1        0.2234
     20 N         -14.8708    0.5734   18.0643 N.ar    1  UNL1       -0.1896
     21 C         -15.9409   -0.1864   18.7905 C.ar    1  UNL1        0.2012
     22 N         -15.5828   -1.3960   19.6019 N.ar    1  UNL1       -0.2265
     23 C         -14.1544   -1.8459   19.6870 C.ar    1  UNL1        0.0841
     24 C         -13.0842   -1.0861   18.9608 C.ar    1  UNL1        0.0468
     25 C         -11.6558   -1.5361   19.0460 C.3     1  UNL1        0.0372
     26 C         -12.0692    0.5661   15.9888 C.3     1  UNL1        0.2542
     27 O         -12.3722    0.8833   17.4232 O.3     1  UNL1       -0.4563
@<TRIPOS>BOND
     1    26    27    1
     2    27    19    1
     3    19    20   ar
     4    20    21   ar
     5    21    22   ar
     6    22    23   ar
     7    23    18    1
     8    18     1    1
     9     1     2   ar
    10     2     3   ar
    11     3    11    1
    12    11    12    2
    13    11    13   am
    14    13    15    1
    15    15    16    1
    16    16    17    1
    17     3     4   ar
    18     4     5   ar
    19     5     6   ar
    20     6     7   ar
    21     7     8    1
    22     7     9   ar
    23     9    10   ar
    24    23    24   ar
    25    24    25    1
    26    24    19   ar
    27    10     1   ar
    28    10     4   ar
    29    13    14    1
@<TRIPOS>MOLECULE
*****
 27 29 0 0 0
SMALL
GASTEIGER

@<TRIPOS>ATOM
      1 N         -13.8099   -4.3681   19.9348 N.ar    1  UNL1       -0.3190
      2 C         -15.1427   -5.0409   20.0794 C.ar    1  UNL1        0.0823
      3 C         -15.0364   -6.4130   19.4826 C.ar    1  UNL1        0.0895
      4 C         -13.6380   -6.5881   18.9692 C.ar    1  UNL1        0.1028
      5 N         -12.9569   -7.7351   18.2834 N.ar    1  UNL1       -0.2425
      6 C         -11.5177   -7.6183   17.8769 C.ar    1  UNL1        0.0946
      7 C         -10.7597   -6.3545   18.1564 C.ar    1  UNL1       -0.0013
      8 C          -9.3205   -6.2377   17.7499 C.3     1  UNL1        0.0327
      9 C         -11.4408   -5.2075   18.8422 C.ar    1  UNL1        0.0160
     10 C         -12.8799   -5.3243   19.2486 C.ar    1  UNL1        0.0780
     11 C         -16.1356   -7.4312   19.4118 C.2     1  UNL1        0.2489
     12 O         -17.5283   -7.0075   19.0501 O.2     1  UNL1       -0.2700
     13 N         -15.8421   -8.8733   19.7026 N.am    1  UNL1       -0.2981
     14 H         -14.9280   -9.1514   19.9400 H       1  UNL1        0.1498
     15 C         -16.9413   -9.8915   19.6317 C.3     1  UNL1        0.1280
     16 C         -16.9209  -10.9438   18.5630 C.3     1  UNL1        0.2144
     17 F         -16.7159  -12.3833   18.9318 F       1  UNL1       -0.2324
     18 C         -13.4673   -2.9823   20.3954 C.3     1  UNL1        0.1518
     19 C         -14.2627    0.0657   17.9814 C.ar    1  UNL1        0.2234
     20 N         -12.9092    0.3157   17.3851 N.ar    1  UNL1       -0.1896
     21 C         -11.7418   -0.5336   17.7922 C.ar    1  UNL1        0.2012
     22 N         -11.9277   -1.6329   18.7956 N.ar    1  UNL1       -0.2265
     23 C         -13.2812   -1.8829   19.3919 C.ar    1  UNL1        0.0841
     24 C         -14.4487   -1.0336   18.9848 C.ar    1  UNL1        0.0468
     25 C         -15.8021   -1.2837   19.5812 C.3     1  UNL1        0.0372
     26 C         -15.4450    1.5732   16.2265 C.3     1  UNL1        0.2542
     27 O         -15.4301    0.9151   17.5743 O.3     1  UNL1       -0.4563
@<TRIPOS>BOND
     1    26    27    1
     2    27    19    1
     3    19    20   ar
     4    20    21   ar
     5    21    22   ar
     6    22    23   ar
     7    23    18    1
     8    18     1    1
     9     1     2   ar
    10     2     3   ar
    11     3    11    1
    12    11    12    2
    13    11    13   am
    14    13    15    1
    15    15    16    1
    16    16    17    1
    17     3     4   ar
    18     4     5   ar
    19     5     6   ar
    20     6     7   ar
    21     7     8    1
    22     7     9   ar
    23     9    10   ar
    24    23    24   ar
    25    24    25    1
    26    24    19   ar
    27    10     1   ar
    28    10     4   ar
    29    13    14    1
