@<TRIPOS>MOLECULE
*****
 22 24 0 0 0
SMALL
GASTEIGER

@<TRIPOS>ATOM
      1 C          -8.6339  -17.0270   22.6536 C.3     1  UNL1        0.0846
      2 N          -7.8268  -18.0556   21.9183 N.3     1  UNL1       -0.2676
      3 C          -8.4051  -18.7457   20.7186 C.3     1  UNL1        0.0896
      4 C          -7.5980  -19.7742   19.9834 C.3     1  UNL1        0.0862
      5 N          -6.2126  -20.1128   20.4479 N.3     1  UNL1       -0.2951
      6 C          -5.6342  -19.4227   21.6476 C.3     1  UNL1        0.0862
      7 C          -6.4413  -18.3942   22.3828 C.3     1  UNL1        0.0896
      8 H          -5.5851  -19.9210   19.6670 H       1  UNL1        0.1233
      9 C         -10.0863  -17.2742   22.9351 C.ar    1  UNL1       -0.0075
     10 C         -11.1342  -16.4456   22.2530 C.ar    1  UNL1       -0.0030
     11 C         -12.5867  -16.6929   22.5346 C.ar    1  UNL1       -0.0003
     12 C         -12.9912  -17.7688   23.4983 C.ar    1  UNL1       -0.0000
     13 C         -11.9433  -18.5975   24.1804 C.ar    1  UNL1       -0.0003
     14 C         -10.4909  -18.3502   23.8988 C.ar    1  UNL1       -0.0030
     15 C          -7.9886  -15.7511   23.1072 C.3     1  UNL1        0.0477
     16 CL         -5.0951  -15.3631   23.7979 Cl      1  UNL1       -0.0826
     17 C          -6.1281  -15.3940   24.8851 C.ar    1  UNL1        0.0537
     18 C          -5.7144  -15.2308   26.3177 C.ar    1  UNL1        0.0111
     19 C          -6.7474  -15.2617   27.4048 C.ar    1  UNL1        0.0008
     20 C          -8.1941  -15.4557   27.0594 C.ar    1  UNL1       -0.0003
     21 C          -8.6079  -15.6188   25.6269 C.ar    1  UNL1       -0.0034
     22 C          -7.5749  -15.5880   24.5398 C.ar    1  UNL1       -0.0099
@<TRIPOS>BOND
     1    16    17    1
     2    17    18   ar
     3    18    19   ar
     4    19    20   ar
     5    20    21   ar
     6    21    22   ar
     7    22    15    1
     8    15     1    1
     9     1     9    1
    10     9    10   ar
    11    10    11   ar
    12    11    12   ar
    13    12    13   ar
    14    13    14   ar
    15     1     2    1
    16     2     3    1
    17     3     4    1
    18     4     5    1
    19     5     6    1
    20     6     7    1
    21    22    17   ar
    22    14     9   ar
    23     7     2    1
    24     5     8    1
@<TRIPOS>MOLECULE
*****
 22 24 0 0 0
SMALL
GASTEIGER

@<TRIPOS>ATOM
      1 C          -8.5170  -17.0347   22.5006 C.3     1  UNL1        0.0846
      2 N          -9.9955  -17.1951   22.6967 N.3     1  UNL1       -0.2676
      3 C         -10.9505  -16.2973   21.9673 C.3     1  UNL1        0.0896
      4 C         -12.4290  -16.4577   22.1634 C.3     1  UNL1        0.0862
      5 N         -12.9524  -17.5158   23.0887 N.3     1  UNL1       -0.2951
      6 C         -11.9973  -18.4136   23.8181 C.3     1  UNL1        0.0862
      7 C         -10.5189  -18.2532   23.6220 C.3     1  UNL1        0.0896
      8 H         -13.5580  -18.1197   22.5330 H       1  UNL1        0.1233
      9 C          -7.7274  -18.1192   21.8295 C.ar    1  UNL1       -0.0075
     10 C          -6.3715  -18.4922   22.3513 C.ar    1  UNL1       -0.0030
     11 C          -5.5819  -19.5767   21.6802 C.ar    1  UNL1       -0.0003
     12 C          -6.1482  -20.2882   20.4873 C.ar    1  UNL1       -0.0000
     13 C          -7.5042  -19.9152   19.9655 C.ar    1  UNL1       -0.0003
     14 C          -8.2938  -18.8307   20.6366 C.ar    1  UNL1       -0.0030
     15 C          -7.8282  -15.7897   22.9756 C.3     1  UNL1        0.0477
     16 CL         -4.9591  -15.4857   23.7978 Cl      1  UNL1       -0.0826
     17 C          -6.0414  -15.4822   24.8365 C.ar    1  UNL1        0.0537
     18 C          -5.6891  -15.3266   26.2862 C.ar    1  UNL1        0.0111
     19 C          -6.7713  -15.3230   27.3248 C.ar    1  UNL1        0.0008
     20 C          -8.2058  -15.4750   26.9137 C.ar    1  UNL1       -0.0003
     21 C          -8.5581  -15.6306   25.4640 C.ar    1  UNL1       -0.0034
     22 C          -7.4759  -15.6342   24.4254 C.ar    1  UNL1       -0.0099
@<TRIPOS>BOND
     1    16    17    1
     2    17    18   ar
     3    18    19   ar
     4    19    20   ar
     5    20    21   ar
     6    21    22   ar
     7    22    15    1
     8    15     1    1
     9     1     9    1
    10     9    10   ar
    11    10    11   ar
    12    11    12   ar
    13    12    13   ar
    14    13    14   ar
    15     1     2    1
    16     2     3    1
    17     3     4    1
    18     4     5    1
    19     5     6    1
    20     6     7    1
    21    22    17   ar
    22    14     9   ar
    23     7     2    1
    24     5     8    1
@<TRIPOS>MOLECULE
*****
 22 24 0 0 0
SMALL
GASTEIGER

@<TRIPOS>ATOM
      1 C          -6.0523  -18.6688   22.3168 C.3     1  UNL1        0.0846
      2 N          -6.3089  -17.3246   22.9311 N.3     1  UNL1       -0.2676
      3 C          -5.2283  -16.6391   23.7138 C.3     1  UNL1        0.0896
      4 C          -5.4848  -15.2950   24.3281 C.3     1  UNL1        0.0862
      5 N          -6.8218  -14.6363   24.1598 N.3     1  UNL1       -0.2951
      6 C          -7.9024  -15.3218   23.3772 C.3     1  UNL1        0.0862
      7 C          -7.6459  -16.6659   22.7629 C.3     1  UNL1        0.0896
      8 H          -6.6529  -13.7391   23.7051 H       1  UNL1        0.1233
      9 C          -4.7679  -18.9268   21.5863 C.ar    1  UNL1       -0.0075
     10 C          -4.7487  -18.9456   20.0865 C.ar    1  UNL1       -0.0030
     11 C          -3.4642  -19.2036   19.3561 C.ar    1  UNL1       -0.0003
     12 C          -2.1989  -19.4427   20.1254 C.ar    1  UNL1       -0.0000
     13 C          -2.2181  -19.4238   21.6251 C.ar    1  UNL1       -0.0003
     14 C          -3.5025  -19.1659   22.3556 C.ar    1  UNL1       -0.0030
     15 C          -7.0803  -19.7550   22.4329 C.3     1  UNL1        0.0477
     16 CL         -9.6585  -20.0187   23.9440 Cl      1  UNL1       -0.0826
     17 C          -9.6782  -19.7612   22.4663 C.ar    1  UNL1        0.0537
     18 C         -10.9869  -19.6356   21.7442 C.ar    1  UNL1        0.0111
     19 C         -11.0065  -19.3781   20.2667 C.ar    1  UNL1        0.0008
     20 C          -9.7174  -19.2462   19.5112 C.ar    1  UNL1       -0.0003
     21 C          -8.4087  -19.3719   20.2332 C.ar    1  UNL1       -0.0034
     22 C          -8.3891  -19.6294   21.7108 C.ar    1  UNL1       -0.0099
@<TRIPOS>BOND
     1    16    17    1
     2    17    18   ar
     3    18    19   ar
     4    19    20   ar
     5    20    21   ar
     6    21    22   ar
     7    22    15    1
     8    15     1    1
     9     1     9    1
    10     9    10   ar
    11    10    11   ar
    12    11    12   ar
    13    12    13   ar
    14    13    14   ar
    15     1     2    1
    16     2     3    1
    17     3     4    1
    18     4     5    1
    19     5     6    1
    20     6     7    1
    21    22    17   ar
    22    14     9   ar
    23     7     2    1
    24     5     8    1
@<TRIPOS>MOLECULE
*****
 22 24 0 0 0
SMALL
GASTEIGER

@<TRIPOS>ATOM
      1 C          -7.4640  -17.8309   22.3257 C.3     1  UNL1        0.0846
      2 N          -8.7550  -18.5940   22.2920 N.3     1  UNL1       -0.2676
      3 C          -9.0908  -19.5492   23.3988 C.3     1  UNL1        0.0896
      4 C         -10.3817  -20.3122   23.3652 C.3     1  UNL1        0.0862
      5 N         -11.3369  -20.1202   22.2247 N.3     1  UNL1       -0.2951
      6 C         -11.0012  -19.1650   21.1180 C.3     1  UNL1        0.0862
      7 C          -9.7103  -18.4020   21.1516 C.3     1  UNL1        0.0896
      8 H         -12.2184  -19.8042   22.6291 H       1  UNL1        0.1233
      9 C          -6.1896  -18.4937   21.8937 C.ar    1  UNL1       -0.0075
     10 C          -6.1213  -19.1979   20.5711 C.ar    1  UNL1       -0.0030
     11 C          -4.8468  -19.8606   20.1392 C.ar    1  UNL1       -0.0003
     12 C          -3.6407  -19.8192   21.0299 C.ar    1  UNL1       -0.0000
     13 C          -3.7090  -19.1149   22.3526 C.ar    1  UNL1       -0.0003
     14 C          -4.9834  -18.4522   22.7845 C.ar    1  UNL1       -0.0030
     15 C          -7.4475  -16.4051   22.7913 C.3     1  UNL1        0.0477
     16 CL         -4.8699  -15.2702   23.8245 Cl      1  UNL1       -0.0826
     17 C          -6.0077  -15.5271   24.7676 C.ar    1  UNL1        0.0537
     18 C          -5.8566  -15.2165   26.2273 C.ar    1  UNL1        0.0111
     19 C          -6.9944  -15.4734   27.1704 C.ar    1  UNL1        0.0008
     20 C          -8.2832  -16.0409   26.6538 C.ar    1  UNL1       -0.0003
     21 C          -8.4343  -16.3515   25.1941 C.ar    1  UNL1       -0.0034
     22 C          -7.2965  -16.0946   24.2510 C.ar    1  UNL1       -0.0099
@<TRIPOS>BOND
     1    16    17    1
     2    17    18   ar
     3    18    19   ar
     4    19    20   ar
     5    20    21   ar
     6    21    22   ar
     7    22    15    1
     8    15     1    1
     9     1     9    1
    10     9    10   ar
    11    10    11   ar
    12    11    12   ar
    13    12    13   ar
    14    13    14   ar
    15     1     2    1
    16     2     3    1
    17     3     4    1
    18     4     5    1
    19     5     6    1
    20     6     7    1
    21    22    17   ar
    22    14     9   ar
    23     7     2    1
    24     5     8    1
@<TRIPOS>MOLECULE
*****
 22 24 0 0 0
SMALL
GASTEIGER

@<TRIPOS>ATOM
      1 C          -9.2836  -17.9984   23.6877 C.3     1  UNL1        0.0846
      2 N          -8.4347  -16.8961   24.2482 N.3     1  UNL1       -0.2676
      3 C          -7.3498  -16.2855   23.4114 C.3     1  UNL1        0.0896
      4 C          -6.5009  -15.1832   23.9719 C.3     1  UNL1        0.0862
      5 N          -6.7368  -14.6915   25.3692 N.3     1  UNL1       -0.2951
      6 C          -7.8216  -15.3021   26.2061 C.3     1  UNL1        0.0862
      7 C          -8.6705  -16.4044   25.6456 C.3     1  UNL1        0.0896
      8 H          -6.9441  -13.6952   25.2998 H       1  UNL1        0.1233
      9 C         -10.7789  -17.8868   23.7257 C.ar    1  UNL1       -0.0075
     10 C         -11.5749  -18.7789   24.6316 C.ar    1  UNL1       -0.0030
     11 C         -13.0703  -18.6672   24.6696 C.ar    1  UNL1       -0.0003
     12 C         -13.7697  -17.6634   23.8017 C.ar    1  UNL1       -0.0000
     13 C         -12.9737  -16.7712   22.8959 C.ar    1  UNL1       -0.0003
     14 C         -11.4784  -16.8829   22.8579 C.ar    1  UNL1       -0.0030
     15 C          -8.6372  -19.2124   23.0891 C.3     1  UNL1        0.0477
     16 CL         -6.0701  -19.3605   21.5437 Cl      1  UNL1       -0.0826
     17 C          -7.3832  -19.4967   20.8314 C.ar    1  UNL1        0.0537
     18 C          -7.4127  -19.7069   19.3466 C.ar    1  UNL1        0.0111
     19 C          -8.7258  -19.8432   18.6344 C.ar    1  UNL1        0.0008
     20 C         -10.0093  -19.7691   19.4071 C.ar    1  UNL1       -0.0003
     21 C          -9.9798  -19.5589   20.8919 C.ar    1  UNL1       -0.0034
     22 C          -8.6667  -19.4227   21.6041 C.ar    1  UNL1       -0.0099
@<TRIPOS>BOND
     1    16    17    1
     2    17    18   ar
     3    18    19   ar
     4    19    20   ar
     5    20    21   ar
     6    21    22   ar
     7    22    15    1
     8    15     1    1
     9     1     9    1
    10     9    10   ar
    11    10    11   ar
    12    11    12   ar
    13    12    13   ar
    14    13    14   ar
    15     1     2    1
    16     2     3    1
    17     3     4    1
    18     4     5    1
    19     5     6    1
    20     6     7    1
    21    22    17   ar
    22    14     9   ar
    23     7     2    1
    24     5     8    1
@<TRIPOS>MOLECULE
*****
 22 24 0 0 0
SMALL
GASTEIGER

@<TRIPOS>ATOM
      1 C          -7.2264  -17.8991   22.2733 C.3     1  UNL1        0.0846
      2 N          -8.5229  -18.6528   22.3066 N.3     1  UNL1       -0.2676
      3 C          -9.5170  -18.4845   21.1960 C.3     1  UNL1        0.0896
      4 C         -10.8134  -19.2382   21.2293 C.3     1  UNL1        0.0862
      5 N         -11.1158  -20.1602   22.3731 N.3     1  UNL1       -0.2951
      6 C         -10.1217  -20.3285   23.4837 C.3     1  UNL1        0.0862
      7 C          -8.8253  -19.5748   23.4505 C.3     1  UNL1        0.0896
      8 H         -11.2694  -21.0856   21.9727 H       1  UNL1        0.1233
      9 C          -5.9686  -18.5894   21.8361 C.ar    1  UNL1       -0.0075
     10 C          -4.7390  -18.5213   22.6926 C.ar    1  UNL1       -0.0030
     11 C          -3.4811  -19.2117   22.2553 C.ar    1  UNL1       -0.0003
     12 C          -3.4528  -19.9702   20.9615 C.ar    1  UNL1       -0.0000
     13 C          -4.6824  -20.0384   20.1050 C.ar    1  UNL1       -0.0003
     14 C          -5.9402  -19.3480   20.5423 C.ar    1  UNL1       -0.0030
     15 C          -7.1878  -16.4550   22.6773 C.3     1  UNL1        0.0477
     16 CL         -9.6345  -16.2140   24.3965 Cl      1  UNL1       -0.0826
     17 C          -8.2772  -15.9639   24.9843 C.ar    1  UNL1        0.0537
     18 C          -8.1433  -15.5934   26.4316 C.ar    1  UNL1        0.0111
     19 C          -6.7861  -15.3433   27.0192 C.ar    1  UNL1        0.0008
     20 C          -5.5627  -15.4638   26.1596 C.ar    1  UNL1       -0.0003
     21 C          -5.6966  -15.8344   24.7123 C.ar    1  UNL1       -0.0034
     22 C          -7.0539  -16.0844   24.1246 C.ar    1  UNL1       -0.0099
@<TRIPOS>BOND
     1    16    17    1
     2    17    18   ar
     3    18    19   ar
     4    19    20   ar
     5    20    21   ar
     6    21    22   ar
     7    22    15    1
     8    15     1    1
     9     1     9    1
    10     9    10   ar
    11    10    11   ar
    12    11    12   ar
    13    12    13   ar
    14    13    14   ar
    15     1     2    1
    16     2     3    1
    17     3     4    1
    18     4     5    1
    19     5     6    1
    20     6     7    1
    21    22    17   ar
    22    14     9   ar
    23     7     2    1
    24     5     8    1
@<TRIPOS>MOLECULE
*****
 22 24 0 0 0
SMALL
GASTEIGER

@<TRIPOS>ATOM
      1 C          -7.8755  -18.7214   22.5694 C.3     1  UNL1        0.0846
      2 N          -7.9242  -17.3016   23.0509 N.3     1  UNL1       -0.2676
      3 C          -7.9370  -16.1742   22.0617 C.3     1  UNL1        0.0896
      4 C          -7.9857  -14.7544   22.5432 C.3     1  UNL1        0.0862
      5 N          -8.0217  -14.4621   24.0139 N.3     1  UNL1       -0.2951
      6 C          -8.0090  -15.5896   25.0032 C.3     1  UNL1        0.0862
      7 C          -7.9602  -17.0093   24.5217 C.3     1  UNL1        0.0896
      8 H          -8.8732  -13.9280   24.1872 H       1  UNL1        0.1233
      9 C          -6.6303  -19.2518   21.9227 C.ar    1  UNL1       -0.0075
     10 C          -5.2849  -18.7690   22.3778 C.ar    1  UNL1       -0.0030
     11 C          -4.0397  -19.2994   21.7311 C.ar    1  UNL1       -0.0003
     12 C          -4.1398  -20.3124   20.6294 C.ar    1  UNL1       -0.0000
     13 C          -5.4852  -20.7951   20.1744 C.ar    1  UNL1       -0.0003
     14 C          -6.7304  -20.2648   20.8210 C.ar    1  UNL1       -0.0030
     15 C          -9.0720  -19.6109   22.7345 C.3     1  UNL1        0.0477
     16 CL        -10.3956  -18.6014   20.2387 Cl      1  UNL1       -0.0826
     17 C         -11.1083  -18.5092   21.5554 C.ar    1  UNL1        0.0537
     18 C         -12.4826  -17.9123   21.6242 C.ar    1  UNL1        0.0111
     19 C         -13.1952  -17.8202   22.9409 C.ar    1  UNL1        0.0008
     20 C         -12.5334  -18.3249   24.1888 C.ar    1  UNL1       -0.0003
     21 C         -11.1590  -18.9218   24.1200 C.ar    1  UNL1       -0.0034
     22 C         -10.4465  -19.0139   22.8033 C.ar    1  UNL1       -0.0099
@<TRIPOS>BOND
     1    16    17    1
     2    17    18   ar
     3    18    19   ar
     4    19    20   ar
     5    20    21   ar
     6    21    22   ar
     7    22    15    1
     8    15     1    1
     9     1     9    1
    10     9    10   ar
    11    10    11   ar
    12    11    12   ar
    13    12    13   ar
    14    13    14   ar
    15     1     2    1
    16     2     3    1
    17     3     4    1
    18     4     5    1
    19     5     6    1
    20     6     7    1
    21    22    17   ar
    22    14     9   ar
    23     7     2    1
    24     5     8    1
@<TRIPOS>MOLECULE
*****
 22 24 0 0 0
SMALL
GASTEIGER

@<TRIPOS>ATOM
      1 C          -9.3925  -18.0541   23.7017 C.3     1  UNL1        0.0846
      2 N          -8.5315  -16.9400   24.2191 N.3     1  UNL1       -0.2676
      3 C          -8.6665  -16.4871   25.6427 C.3     1  UNL1        0.0896
      4 C          -7.8056  -15.3730   26.1601 C.3     1  UNL1        0.0862
      5 N          -6.8097  -14.7120   25.2539 N.3     1  UNL1       -0.2951
      6 C          -6.6748  -15.1649   23.8303 C.3     1  UNL1        0.0862
      7 C          -7.5357  -16.2789   23.3129 C.3     1  UNL1        0.0896
      8 H          -5.8940  -14.8283   25.6879 H       1  UNL1        0.1233
      9 C         -10.8867  -17.9321   23.7511 C.ar    1  UNL1       -0.0075
     10 C         -11.5892  -16.9520   22.8590 C.ar    1  UNL1       -0.0030
     11 C         -13.0834  -16.8301   22.9085 C.ar    1  UNL1       -0.0003
     12 C         -13.8752  -17.6883   23.8500 C.ar    1  UNL1       -0.0000
     13 C         -13.1727  -18.6684   24.7422 C.ar    1  UNL1       -0.0003
     14 C         -11.6785  -18.7904   24.6927 C.ar    1  UNL1       -0.0030
     15 C          -8.7592  -19.2901   23.1349 C.3     1  UNL1        0.0477
     16 CL        -11.0495  -20.0449   21.3503 Cl      1  UNL1       -0.0826
     17 C          -9.6930  -19.7907   20.7626 C.ar    1  UNL1        0.0537
     18 C          -9.4817  -19.9139   19.2827 C.ar    1  UNL1        0.0111
     19 C          -8.1252  -19.6597   18.6951 C.ar    1  UNL1        0.0008
     20 C          -6.9801  -19.2823   19.5874 C.ar    1  UNL1       -0.0003
     21 C          -7.1914  -19.1591   21.0673 C.ar    1  UNL1       -0.0034
     22 C          -8.5479  -19.4133   21.6549 C.ar    1  UNL1       -0.0099
@<TRIPOS>BOND
     1    16    17    1
     2    17    18   ar
     3    18    19   ar
     4    19    20   ar
     5    20    21   ar
     6    21    22   ar
     7    22    15    1
     8    15     1    1
     9     1     9    1
    10     9    10   ar
    11    10    11   ar
    12    11    12   ar
    13    12    13   ar
    14    13    14   ar
    15     1     2    1
    16     2     3    1
    17     3     4    1
    18     4     5    1
    19     5     6    1
    20     6     7    1
    21    22    17   ar
    22    14     9   ar
    23     7     2    1
    24     5     8    1
@<TRIPOS>MOLECULE
*****
 22 24 0 0 0
SMALL
GASTEIGER

@<TRIPOS>ATOM
      1 C          -7.7388  -18.6931   22.4376 C.3     1  UNL1        0.0846
      2 N          -7.8254  -17.2888   22.9580 N.3     1  UNL1       -0.2676
      3 C          -7.7824  -17.0324   24.4353 C.3     1  UNL1        0.0896
      4 C          -7.8690  -15.6283   24.9557 C.3     1  UNL1        0.0862
      5 N          -7.9985  -14.4805   23.9987 N.3     1  UNL1       -0.2951
      6 C          -8.0414  -14.7369   22.5214 C.3     1  UNL1        0.0862
      7 C          -7.9549  -16.1410   22.0010 C.3     1  UNL1        0.0896
      8 H          -7.2029  -13.8650   24.1677 H       1  UNL1        0.1233
      9 C          -6.4538  -19.1977   21.8512 C.ar    1  UNL1       -0.0075
     10 C          -6.4804  -20.2249   20.7585 C.ar    1  UNL1       -0.0030
     11 C          -5.1952  -20.7296   20.1720 C.ar    1  UNL1       -0.0003
     12 C          -3.8836  -20.2070   20.6784 C.ar    1  UNL1       -0.0000
     13 C          -3.8570  -19.1798   21.7711 C.ar    1  UNL1       -0.0003
     14 C          -5.1420  -18.6751   22.3575 C.ar    1  UNL1       -0.0030
     15 C          -8.9373  -19.5926   22.5038 C.3     1  UNL1        0.0477
     16 CL        -10.2723  -19.5820   25.1903 Cl      1  UNL1       -0.0826
     17 C         -10.9763  -18.9994   24.0008 C.ar    1  UNL1        0.0537
     18 C         -12.3476  -18.4114   24.1545 C.ar    1  UNL1        0.0111
     19 C         -13.0515  -17.8288   22.9650 C.ar    1  UNL1        0.0008
     20 C         -12.3840  -17.8341   21.6217 C.ar    1  UNL1       -0.0003
     21 C         -11.0127  -18.4220   21.4680 C.ar    1  UNL1       -0.0034
     22 C         -10.3088  -19.0046   22.6575 C.ar    1  UNL1       -0.0099
@<TRIPOS>BOND
     1    16    17    1
     2    17    18   ar
     3    18    19   ar
     4    19    20   ar
     5    20    21   ar
     6    21    22   ar
     7    22    15    1
     8    15     1    1
     9     1     9    1
    10     9    10   ar
    11    10    11   ar
    12    11    12   ar
    13    12    13   ar
    14    13    14   ar
    15     1     2    1
    16     2     3    1
    17     3     4    1
    18     4     5    1
    19     5     6    1
    20     6     7    1
    21    22    17   ar
    22    14     9   ar
    23     7     2    1
    24     5     8    1
