@<TRIPOS>MOLECULE
*****
 26 28 0 0 0
SMALL
GASTEIGER

@<TRIPOS>ATOM
      1 N          -7.8147  -19.8733   22.4208 N.am    1  UNL1       -0.3004
      2 C          -8.6065  -18.8523   21.6587 C.2     1  UNL1        0.2252
      3 O          -8.2415  -18.5255   20.2410 O.2     1  UNL1       -0.2750
      4 H          -8.0543  -20.0877   23.3513 H       1  UNL1        0.1497
      5 C          -6.6580  -20.5674   21.7651 C.3     1  UNL1        0.1163
      6 C          -2.8556  -18.3086   20.9348 C.ar    1  UNL1        0.0479
      7 C          -3.4376  -19.2087   19.8855 C.ar    1  UNL1        0.0142
      8 C          -4.7050  -19.9616   20.1623 C.ar    1  UNL1       -0.0014
      9 C          -5.3905  -19.8145   21.4883 C.ar    1  UNL1       -0.0025
     10 C          -4.8085  -18.9144   22.5377 C.ar    1  UNL1       -0.0014
     11 C          -3.5410  -18.1614   22.2609 C.ar    1  UNL1        0.0142
     12 C          -0.5363  -18.1572   19.7739 C.3     1  UNL1        0.1122
     13 N          -1.5881  -17.5556   20.6580 N.pl3   1  UNL1       -0.3041
     14 C          -1.3726  -16.2011   21.2654 C.3     1  UNL1        0.1122
     15 C          -9.7634  -18.1581   22.3144 C.3     1  UNL1        0.1154
     16 C          -9.9681  -18.2777   23.7955 C.3     1  UNL1        0.1377
     17 C         -11.0339  -19.2602   23.4101 C.3     1  UNL1        0.0335
     18 C          -8.8594  -17.2702   23.8712 C.3     1  UNL1        0.0613
     19 C          -8.6016  -16.9724   25.3187 C.3     1  UNL1        0.1290
     20 C          -8.4584  -16.7770   26.7989 C.3     1  UNL1        0.0305
     21 C          -7.4316  -15.8232   27.3336 C.3     1  UNL1        0.0025
     22 C          -6.5480  -15.0649   26.3880 C.3     1  UNL1        0.0002
     23 C          -6.6912  -15.2603   24.9078 C.3     1  UNL1        0.0025
     24 C          -7.7180  -16.2141   24.3731 C.3     1  UNL1        0.0305
     25 O          -9.5510  -17.7960   26.1375 O.3     1  UNL1       -0.2256
     26 O         -10.3956  -18.6027   25.1961 O.3     1  UNL1       -0.2251
@<TRIPOS>BOND
     1    12    13    1
     2    13    14    1
     3    13     6    1
     4     6     7   ar
     5     7     8   ar
     6     8     9   ar
     7     9     5    1
     8     5     1    1
     9     1     2   am
    10     2     3    2
    11     2    15    1
    12    15    16    1
    13    16    17    1
    14    16    18    1
    15    18    19    1
    16    19    20    1
    17    20    21    1
    18    21    22    1
    19    22    23    1
    20    23    24    1
    21    19    25    1
    22    25    26    1
    23     9    10   ar
    24    10    11   ar
    25    11     6   ar
    26    26    16    1
    27    24    19    1
    28     1     4    1
@<TRIPOS>MOLECULE
*****
 26 28 0 0 0
SMALL
GASTEIGER

@<TRIPOS>ATOM
      1 N          -5.3427  -16.3559   24.3510 N.am    1  UNL1       -0.3004
      2 C          -4.3169  -15.8345   23.3887 C.2     1  UNL1        0.2252
      3 O          -4.5606  -14.5482   22.6567 O.2     1  UNL1       -0.2750
      4 H          -5.1827  -17.2002   24.8315 H       1  UNL1        0.1497
      5 C          -6.6123  -15.5909   24.5811 C.3     1  UNL1        0.1163
      6 C         -10.4696  -17.0355   22.7690 C.ar    1  UNL1        0.0479
      7 C          -9.4712  -16.3030   21.9223 C.ar    1  UNL1        0.0142
      8 C          -8.1855  -15.8215   22.5264 C.ar    1  UNL1       -0.0014
      9 C          -7.8980  -16.0724   23.9771 C.ar    1  UNL1       -0.0025
     10 C          -8.8964  -16.8049   24.8237 C.ar    1  UNL1       -0.0014
     11 C         -10.1822  -17.2864   24.2195 C.ar    1  UNL1        0.0142
     12 C         -11.8430  -17.7669   20.6884 C.3     1  UNL1        0.1122
     13 N         -11.7554  -17.5170   22.1648 N.pl3   1  UNL1       -0.3041
     14 C         -12.9534  -17.7487   23.0372 C.3     1  UNL1        0.1122
     15 C          -3.0473  -16.5995   23.1585 C.3     1  UNL1        0.1154
     16 C          -2.7833  -17.2302   21.8235 C.3     1  UNL1        0.1377
     17 C          -1.6760  -16.2216   21.7420 C.3     1  UNL1        0.0335
     18 C          -3.9458  -18.1070   22.1840 C.3     1  UNL1        0.0613
     19 C          -4.1688  -19.0688   21.0547 C.3     1  UNL1        0.1290
     20 C          -4.2704  -19.9615   19.8537 C.3     1  UNL1        0.0305
     21 C          -5.3317  -21.0198   19.7935 C.3     1  UNL1        0.0025
     22 C          -6.2914  -21.1853   20.9344 C.3     1  UNL1        0.0002
     23 C          -6.1898  -20.2925   22.1354 C.3     1  UNL1        0.0025
     24 C          -5.1285  -19.2343   22.1956 C.3     1  UNL1        0.0305
     25 O          -3.1442  -18.7864   19.9962 O.3     1  UNL1       -0.2256
     26 O          -2.2879  -17.6501   20.4713 O.3     1  UNL1       -0.2251
@<TRIPOS>BOND
     1    12    13    1
     2    13    14    1
     3    13     6    1
     4     6     7   ar
     5     7     8   ar
     6     8     9   ar
     7     9     5    1
     8     5     1    1
     9     1     2   am
    10     2     3    2
    11     2    15    1
    12    15    16    1
    13    16    17    1
    14    16    18    1
    15    18    19    1
    16    19    20    1
    17    20    21    1
    18    21    22    1
    19    22    23    1
    20    23    24    1
    21    19    25    1
    22    25    26    1
    23     9    10   ar
    24    10    11   ar
    25    11     6   ar
    26    26    16    1
    27    24    19    1
    28     1     4    1
@<TRIPOS>MOLECULE
*****
 26 28 0 0 0
SMALL
GASTEIGER

@<TRIPOS>ATOM
      1 N          -7.8504  -18.3237   22.5331 N.am    1  UNL1       -0.3004
      2 C          -7.2348  -19.1046   21.4099 C.2     1  UNL1        0.2252
      3 O          -7.7666  -18.9583   20.0151 O.2     1  UNL1       -0.2750
      4 H          -7.5013  -18.4198   23.4486 H       1  UNL1        0.1497
      5 C          -8.9977  -17.3965   22.2613 C.3     1  UNL1        0.1163
      6 C         -13.0075  -18.1636   24.1540 C.ar    1  UNL1        0.0479
      7 C         -12.8881  -17.1914   23.0180 C.ar    1  UNL1        0.0142
      8 C         -11.5515  -16.9357   22.3871 C.ar    1  UNL1       -0.0014
      9 C         -10.3343  -17.6522   22.8922 C.ar    1  UNL1       -0.0025
     10 C         -10.4538  -18.6244   24.0282 C.ar    1  UNL1       -0.0014
     11 C         -11.7905  -18.8801   24.6590 C.ar    1  UNL1        0.0142
     12 C         -15.5536  -18.6258   23.9219 C.3     1  UNL1        0.1122
     13 N         -14.3443  -18.4193   24.7848 N.pl3   1  UNL1       -0.3041
     14 C         -14.4714  -18.4684   26.2786 C.3     1  UNL1        0.1122
     15 C          -6.0874  -20.0319   21.6818 C.3     1  UNL1        0.1154
     16 C          -5.0034  -20.2034   20.6594 C.3     1  UNL1        0.1377
     17 C          -5.8256  -21.3764   20.2144 C.3     1  UNL1        0.0335
     18 C          -4.4078  -18.9945   21.3181 C.3     1  UNL1        0.0613
     19 C          -3.1275  -18.6641   20.6097 C.3     1  UNL1        0.1290
     20 C          -1.8763  -18.4572   19.8088 C.3     1  UNL1        0.0305
     21 C          -0.9537  -17.3215   20.1390 C.3     1  UNL1        0.0025
     22 C          -1.2824  -16.3927   21.2701 C.3     1  UNL1        0.0002
     23 C          -2.5336  -16.5997   22.0710 C.3     1  UNL1        0.0025
     24 C          -3.4562  -17.7353   21.7408 C.3     1  UNL1        0.0305
     25 O          -2.9318  -19.6688   19.5132 O.3     1  UNL1       -0.2256
     26 O          -4.0912  -20.6202   19.5439 O.3     1  UNL1       -0.2251
@<TRIPOS>BOND
     1    12    13    1
     2    13    14    1
     3    13     6    1
     4     6     7   ar
     5     7     8   ar
     6     8     9   ar
     7     9     5    1
     8     5     1    1
     9     1     2   am
    10     2     3    2
    11     2    15    1
    12    15    16    1
    13    16    17    1
    14    16    18    1
    15    18    19    1
    16    19    20    1
    17    20    21    1
    18    21    22    1
    19    22    23    1
    20    23    24    1
    21    19    25    1
    22    25    26    1
    23     9    10   ar
    24    10    11   ar
    25    11     6   ar
    26    26    16    1
    27    24    19    1
    28     1     4    1
@<TRIPOS>MOLECULE
*****
 26 28 0 0 0
SMALL
GASTEIGER

@<TRIPOS>ATOM
      1 N          -9.9465  -16.4952   24.1752 N.am    1  UNL1       -0.3004
      2 C         -10.3218  -17.8243   24.7606 C.2     1  UNL1        0.2252
      3 O          -9.4741  -18.4365   25.8359 O.2     1  UNL1       -0.2750
      4 H         -10.5029  -16.0933   23.4694 H       1  UNL1        0.1497
      5 C          -8.7234  -15.7783   24.6652 C.3     1  UNL1        0.1163
      6 C          -4.6652  -16.9171   23.0892 C.ar    1  UNL1        0.0479
      7 C          -5.8837  -17.6630   22.6320 C.ar    1  UNL1        0.0142
      8 C          -7.2364  -17.2834   23.1574 C.ar    1  UNL1       -0.0014
      9 C          -7.3707  -16.1579   24.1399 C.ar    1  UNL1       -0.0025
     10 C          -6.1522  -15.4121   24.5970 C.ar    1  UNL1       -0.0014
     11 C          -4.7995  -15.7917   24.0716 C.ar    1  UNL1        0.0142
     12 C          -2.9420  -18.7433   22.4218 C.3     1  UNL1        0.1122
     13 N          -3.3125  -17.2968   22.5638 N.pl3   1  UNL1       -0.3041
     14 C          -2.3304  -16.2299   22.1803 C.3     1  UNL1        0.1122
     15 C         -11.5450  -18.5412   24.2706 C.3     1  UNL1        0.1154
     16 C         -11.9930  -18.3741   22.8489 C.3     1  UNL1        0.1377
     17 C         -13.2592  -17.8669   23.4729 C.3     1  UNL1        0.0335
     18 C         -10.6331  -18.9162   22.5221 C.3     1  UNL1        0.0613
     19 C         -10.5053  -18.9782   21.0288 C.3     1  UNL1        0.1290
     20 C         -10.5234  -18.9823   19.5289 C.3     1  UNL1        0.0305
     21 C          -9.3251  -19.4636   18.7658 C.3     1  UNL1        0.0025
     22 C          -8.1087  -19.9407   19.5025 C.3     1  UNL1        0.0002
     23 C          -8.0906  -19.9366   21.0024 C.3     1  UNL1        0.0025
     24 C          -9.2889  -19.4553   21.7655 C.3     1  UNL1        0.0305
     25 O         -11.7862  -18.4743   20.4327 O.3     1  UNL1       -0.2256
     26 O         -12.7057  -18.1010   21.5576 O.3     1  UNL1       -0.2251
@<TRIPOS>BOND
     1    12    13    1
     2    13    14    1
     3    13     6    1
     4     6     7   ar
     5     7     8   ar
     6     8     9   ar
     7     9     5    1
     8     5     1    1
     9     1     2   am
    10     2     3    2
    11     2    15    1
    12    15    16    1
    13    16    17    1
    14    16    18    1
    15    18    19    1
    16    19    20    1
    17    20    21    1
    18    21    22    1
    19    22    23    1
    20    23    24    1
    21    19    25    1
    22    25    26    1
    23     9    10   ar
    24    10    11   ar
    25    11     6   ar
    26    26    16    1
    27    24    19    1
    28     1     4    1
@<TRIPOS>MOLECULE
*****
 26 28 0 0 0
SMALL
GASTEIGER

@<TRIPOS>ATOM
      1 N          -7.9995  -16.5260   22.7474 N.am    1  UNL1       -0.3004
      2 C          -6.9102  -17.5384   22.9443 C.2     1  UNL1        0.2252
      3 O          -7.0396  -18.9060   22.3420 O.2     1  UNL1       -0.2750
      4 H          -7.9146  -15.6284   23.1428 H       1  UNL1        0.1497
      5 C          -9.2181  -16.8814   21.9483 C.3     1  UNL1        0.1163
      6 C         -13.0362  -18.0059   24.0477 C.ar    1  UNL1        0.0479
      7 C         -13.0429  -16.9266   23.0060 C.ar    1  UNL1        0.0142
      8 C         -11.7702  -16.5518   22.3062 C.ar    1  UNL1       -0.0014
      9 C         -10.4908  -17.2563   22.6481 C.ar    1  UNL1       -0.0025
     10 C         -10.4841  -18.3355   23.6898 C.ar    1  UNL1       -0.0014
     11 C         -11.7569  -18.7104   24.3895 C.ar    1  UNL1        0.0142
     12 C         -14.3384  -18.4897   26.2431 C.3     1  UNL1        0.1122
     13 N         -14.3090  -18.3807   24.7474 N.pl3   1  UNL1       -0.3041
     14 C         -15.5522  -18.6465   23.9514 C.3     1  UNL1        0.1122
     15 C          -5.6915  -17.1830   23.7434 C.3     1  UNL1        0.1154
     16 C          -4.6689  -16.2448   23.1744 C.3     1  UNL1        0.1377
     17 C          -5.4746  -15.1918   23.8759 C.3     1  UNL1        0.0335
     18 C          -4.0770  -17.4939   22.5919 C.3     1  UNL1        0.0613
     19 C          -2.8569  -17.1075   21.8094 C.3     1  UNL1        0.1290
     20 C          -1.6672  -16.5727   21.0687 C.3     1  UNL1        0.0305
     21 C          -0.7673  -17.5097   20.3190 C.3     1  UNL1        0.0025
     22 C          -1.0571  -18.9815   20.3099 C.3     1  UNL1        0.0002
     23 C          -2.2468  -19.5162   21.0506 C.3     1  UNL1        0.0025
     24 C          -3.1467  -18.5792   21.8004 C.3     1  UNL1        0.0305
     25 O          -2.6948  -15.6195   21.9083 O.3     1  UNL1       -0.2256
     26 O          -3.8147  -15.0863   22.7520 O.3     1  UNL1       -0.2251
@<TRIPOS>BOND
     1    12    13    1
     2    13    14    1
     3    13     6    1
     4     6     7   ar
     5     7     8   ar
     6     8     9   ar
     7     9     5    1
     8     5     1    1
     9     1     2   am
    10     2     3    2
    11     2    15    1
    12    15    16    1
    13    16    17    1
    14    16    18    1
    15    18    19    1
    16    19    20    1
    17    20    21    1
    18    21    22    1
    19    22    23    1
    20    23    24    1
    21    19    25    1
    22    25    26    1
    23     9    10   ar
    24    10    11   ar
    25    11     6   ar
    26    26    16    1
    27    24    19    1
    28     1     4    1
@<TRIPOS>MOLECULE
*****
 26 28 0 0 0
SMALL
GASTEIGER

@<TRIPOS>ATOM
      1 N          -0.2179    1.7430   21.8961 N.am    1  UNL1       -0.3004
      2 C           1.0014    1.0858   21.3203 C.2     1  UNL1        0.2252
      3 O           2.3623    1.4440   21.8395 O.2     1  UNL1       -0.2750
      4 H          -1.1111    1.5079   21.5554 H       1  UNL1        0.1497
      5 C          -0.0762    2.7584   22.9911 C.3     1  UNL1        0.1163
      6 C          -0.4819    1.5001   27.2925 C.ar    1  UNL1        0.0479
      7 C           0.6386    0.9585   26.4551 C.ar    1  UNL1        0.0142
      8 C           0.7738    1.3779   25.0213 C.ar    1  UNL1       -0.0014
      9 C          -0.2114    2.3389   24.4249 C.ar    1  UNL1       -0.0025
     10 C          -1.3319    2.8806   25.2623 C.ar    1  UNL1       -0.0014
     11 C          -1.4670    2.4611   26.6961 C.ar    1  UNL1        0.0142
     12 C          -1.6073    0.0204   29.1074 C.3     1  UNL1        0.1122
     13 N          -0.6170    1.0806   28.7264 N.pl3   1  UNL1       -0.3041
     14 C           0.2381    1.7214   29.7790 C.3     1  UNL1        0.1122
     15 C           0.8597    0.0704   20.2253 C.3     1  UNL1        0.1154
     16 C           1.7939    0.0974   19.0521 C.3     1  UNL1        0.1377
     17 C           0.9708    1.2761   18.6241 C.3     1  UNL1        0.0335
     18 C           2.4217   -1.0869   19.7254 C.3     1  UNL1        0.0613
     19 C           3.5720   -1.5456   18.8787 C.3     1  UNL1        0.1290
     20 C           4.6859   -1.8871   17.9341 C.3     1  UNL1        0.0305
     21 C           5.5936   -3.0435   18.2317 C.3     1  UNL1        0.0025
     22 C           5.3874   -3.8585   19.4740 C.3     1  UNL1        0.0002
     23 C           4.2735   -3.5170   20.4187 C.3     1  UNL1        0.0025
     24 C           3.3658   -2.3605   20.1211 C.3     1  UNL1        0.0305
     25 O           3.6550   -0.6447   17.6823 O.3     1  UNL1       -0.2256
     26 O           2.5561    0.3708   17.7894 O.3     1  UNL1       -0.2251
@<TRIPOS>BOND
     1    12    13    1
     2    13    14    1
     3    13     6    1
     4     6     7   ar
     5     7     8   ar
     6     8     9   ar
     7     9     5    1
     8     5     1    1
     9     1     2   am
    10     2     3    2
    11     2    15    1
    12    15    16    1
    13    16    17    1
    14    16    18    1
    15    18    19    1
    16    19    20    1
    17    20    21    1
    18    21    22    1
    19    22    23    1
    20    23    24    1
    21    19    25    1
    22    25    26    1
    23     9    10   ar
    24    10    11   ar
    25    11     6   ar
    26    26    16    1
    27    24    19    1
    28     1     4    1
@<TRIPOS>MOLECULE
*****
 26 28 0 0 0
SMALL
GASTEIGER

@<TRIPOS>ATOM
      1 N           4.7227   -3.3528   22.3210 N.am    1  UNL1       -0.3004
      2 C           5.4879   -2.7945   21.1578 C.2     1  UNL1        0.2252
      3 O           6.5813   -1.7944   21.3900 O.2     1  UNL1       -0.2750
      4 H           4.0050   -4.0092   22.1686 H       1  UNL1        0.1497
      5 C           5.0511   -2.9108   23.7163 C.3     1  UNL1        0.1163
      6 C           2.7164    0.4281   25.6269 C.ar    1  UNL1        0.0479
      7 C           2.5788    0.1622   24.1571 C.ar    1  UNL1        0.0142
      8 C           3.3570   -0.9507   23.5202 C.ar    1  UNL1       -0.0014
      9 C           4.2728   -1.7978   24.3531 C.ar    1  UNL1       -0.0025
     10 C           4.4104   -1.5319   25.8229 C.ar    1  UNL1       -0.0014
     11 C           3.6321   -0.4189   26.4598 C.ar    1  UNL1        0.0142
     12 C           1.7463    1.5667   27.7511 C.3     1  UNL1        0.1122
     13 N           1.9381    1.5412   26.2637 N.pl3   1  UNL1       -0.3041
     14 C           1.3518    2.6286   25.4130 C.3     1  UNL1        0.1122
     15 C           5.1595   -3.2364   19.7624 C.3     1  UNL1        0.1154
     16 C           4.9362   -2.2164   18.6857 C.3     1  UNL1        0.1377
     17 C           6.1921   -2.7903   18.0998 C.3     1  UNL1        0.0335
     18 C           3.7270   -1.8557   19.4967 C.3     1  UNL1        0.0613
     19 C           3.0187   -0.7326   18.7987 C.3     1  UNL1        0.1290
     20 C           2.4233    0.3828   17.9917 C.3     1  UNL1        0.0305
     21 C           1.1646    1.0545   18.4548 C.3     1  UNL1        0.0025
     22 C           0.5014    0.6108   19.7250 C.3     1  UNL1        0.0002
     23 C           1.0968   -0.5046   20.5320 C.3     1  UNL1        0.0025
     24 C           2.3555   -1.1763   20.0689 C.3     1  UNL1        0.0305
     25 O           3.7903   -0.3991   17.5563 O.3     1  UNL1       -0.2256
     26 O           4.9754   -1.3162   17.4865 O.3     1  UNL1       -0.2251
@<TRIPOS>BOND
     1    12    13    1
     2    13    14    1
     3    13     6    1
     4     6     7   ar
     5     7     8   ar
     6     8     9   ar
     7     9     5    1
     8     5     1    1
     9     1     2   am
    10     2     3    2
    11     2    15    1
    12    15    16    1
    13    16    17    1
    14    16    18    1
    15    18    19    1
    16    19    20    1
    17    20    21    1
    18    21    22    1
    19    22    23    1
    20    23    24    1
    21    19    25    1
    22    25    26    1
    23     9    10   ar
    24    10    11   ar
    25    11     6   ar
    26    26    16    1
    27    24    19    1
    28     1     4    1
@<TRIPOS>MOLECULE
*****
 26 28 0 0 0
SMALL
GASTEIGER

@<TRIPOS>ATOM
      1 N           6.0123   -4.0408   21.5461 N.am    1  UNL1       -0.3004
      2 C           5.3677   -2.8217   20.9557 C.2     1  UNL1        0.2252
      3 O           5.9548   -1.4651   21.2103 O.2     1  UNL1       -0.2750
      4 H           5.6270   -4.9312   21.3790 H       1  UNL1        0.1497
      5 C           7.2440   -3.9031   22.3911 C.3     1  UNL1        0.1163
      6 C           7.7114   -6.3939   26.1096 C.ar    1  UNL1        0.0479
      7 C           6.9610   -5.0963   26.1656 C.ar    1  UNL1        0.0142
      8 C           6.8052   -4.2660   24.9261 C.ar    1  UNL1       -0.0014
      9 C           7.3998   -4.7334   23.6306 C.ar    1  UNL1       -0.0025
     10 C           8.1501   -6.0310   23.5747 C.ar    1  UNL1       -0.0014
     11 C           8.3059   -6.8612   24.8143 C.ar    1  UNL1        0.0142
     12 C           8.1077   -8.7005   27.2377 C.3     1  UNL1        0.1122
     13 N           7.8672   -7.2242   27.3492 N.pl3   1  UNL1       -0.3041
     14 C           7.7823   -6.5780   28.7002 C.3     1  UNL1        0.1122
     15 C           4.1360   -2.9594   20.1107 C.3     1  UNL1        0.1154
     16 C           3.9052   -2.0215   18.9632 C.3     1  UNL1        0.1377
     17 C           4.9762   -2.8293   18.2922 C.3     1  UNL1        0.0335
     18 C           2.8824   -1.4097   19.8740 C.3     1  UNL1        0.0613
     19 C           2.2432   -0.2624   19.1491 C.3     1  UNL1        0.1290
     20 C           1.6984    0.8502   18.3034 C.3     1  UNL1        0.0305
     21 C           0.6207    1.7434   18.8427 C.3     1  UNL1        0.0025
     22 C           0.0879    1.5239   20.2276 C.3     1  UNL1        0.0002
     23 C           0.6327    0.4113   21.0732 C.3     1  UNL1        0.0025
     24 C           1.7104   -0.4819   20.5339 C.3     1  UNL1        0.0305
     25 O           2.8711   -0.1652   17.7902 O.3     1  UNL1       -0.2256
     26 O           3.8982   -1.2524   17.6753 O.3     1  UNL1       -0.2251
@<TRIPOS>BOND
     1    12    13    1
     2    13    14    1
     3    13     6    1
     4     6     7   ar
     5     7     8   ar
     6     8     9   ar
     7     9     5    1
     8     5     1    1
     9     1     2   am
    10     2     3    2
    11     2    15    1
    12    15    16    1
    13    16    17    1
    14    16    18    1
    15    18    19    1
    16    19    20    1
    17    20    21    1
    18    21    22    1
    19    22    23    1
    20    23    24    1
    21    19    25    1
    22    25    26    1
    23     9    10   ar
    24    10    11   ar
    25    11     6   ar
    26    26    16    1
    27    24    19    1
    28     1     4    1
@<TRIPOS>MOLECULE
*****
 26 28 0 0 0
SMALL
GASTEIGER

@<TRIPOS>ATOM
      1 N          -8.8713  -18.3541   20.8757 N.am    1  UNL1       -0.3004
      2 C          -7.3926  -18.4249   21.1182 C.2     1  UNL1        0.2252
      3 O          -6.7530  -17.5137   22.1234 O.2     1  UNL1       -0.2750
      4 H          -9.2911  -18.9522   20.2159 H       1  UNL1        0.1497
      5 C          -9.7101  -17.3722   21.6386 C.3     1  UNL1        0.1163
      6 C          -8.3787  -15.9488   25.6945 C.ar    1  UNL1        0.0479
      7 C          -9.0962  -17.2589   25.5578 C.ar    1  UNL1        0.0142
      8 C          -9.5400  -17.7334   24.2058 C.ar    1  UNL1       -0.0014
      9 C          -9.2663  -16.8977   22.9906 C.ar    1  UNL1       -0.0025
     10 C          -8.5488  -15.5876   23.1273 C.ar    1  UNL1       -0.0014
     11 C          -8.1050  -15.1131   24.4794 C.ar    1  UNL1        0.0142
     12 C          -8.8646  -14.6626   27.8990 C.3     1  UNL1        0.1122
     13 N          -7.9349  -15.4743   27.0466 N.pl3   1  UNL1       -0.3041
     14 C          -6.5613  -15.8118   27.5461 C.3     1  UNL1        0.1122
     15 C          -6.5537  -19.4069   20.3553 C.3     1  UNL1        0.1154
     16 C          -5.2928  -19.9469   20.9624 C.3     1  UNL1        0.1377
     17 C          -6.2304  -20.8041   21.7599 C.3     1  UNL1        0.0335
     18 C          -4.6188  -18.9768   20.0379 C.3     1  UNL1        0.0613
     19 C          -3.1373  -19.0964   20.2404 C.3     1  UNL1        0.1290
     20 C          -1.6878  -19.3261   20.5503 C.3     1  UNL1        0.0305
     21 C          -0.6331  -18.5397   19.8297 C.3     1  UNL1        0.0025
     22 C          -1.0280  -17.5237   18.7992 C.3     1  UNL1        0.0002
     23 C          -2.4775  -17.2941   18.4894 C.3     1  UNL1        0.0025
     24 C          -3.5322  -18.0804   19.2100 C.3     1  UNL1        0.0305
     25 O          -2.8957  -20.1405   21.2900 O.3     1  UNL1       -0.2256
     26 O          -4.2279  -20.6661   21.7362 O.3     1  UNL1       -0.2251
@<TRIPOS>BOND
     1    12    13    1
     2    13    14    1
     3    13     6    1
     4     6     7   ar
     5     7     8   ar
     6     8     9   ar
     7     9     5    1
     8     5     1    1
     9     1     2   am
    10     2     3    2
    11     2    15    1
    12    15    16    1
    13    16    17    1
    14    16    18    1
    15    18    19    1
    16    19    20    1
    17    20    21    1
    18    21    22    1
    19    22    23    1
    20    23    24    1
    21    19    25    1
    22    25    26    1
    23     9    10   ar
    24    10    11   ar
    25    11     6   ar
    26    26    16    1
    27    24    19    1
    28     1     4    1
