@<TRIPOS>MOLECULE
*****
 39 44 0 0 0
SMALL
GASTEIGER

@<TRIPOS>ATOM
      1 C           3.3664    1.0852   32.9089 C.ar    1  UNL1        0.1669
      2 N           3.4620    1.6687   34.2874 N.ar    1  UNL1       -0.2221
      3 C           2.5269    2.8392   34.3611 C.ar    1  UNL1        0.1307
      4 C           2.2016    3.7957   35.4698 C.ar    1  UNL1        0.0777
      5 C           1.2029    4.8922   35.2455 C.ar    1  UNL1        0.0893
      6 CL          0.8776    5.8488   36.3542 Cl      1  UNL1       -0.0794
      7 C           0.5294    5.0321   33.9125 C.ar    1  UNL1        0.0863
      8 N           0.8547    4.0756   32.8038 N.ar    1  UNL1       -0.3354
      9 C           1.8534    2.9791   33.0281 C.ar    1  UNL1        0.1613
     10 N           2.3723    1.8951   32.1305 N.ar    1  UNL1       -0.2080
     11 H           0.4126    4.1674   31.9289 H       1  UNL1        0.1675
     12 C           4.8745   -0.0098   31.0987 C.ar    1  UNL1        0.1428
     13 C           5.6389   -1.1952   30.5881 C.ar    1  UNL1        0.0515
     14 C           5.6596   -2.4708   31.3770 C.ar    1  UNL1        0.0510
     15 C           4.9159   -2.5612   32.6765 C.ar    1  UNL1        0.0148
     16 C           4.1515   -1.3758   33.1870 C.ar    1  UNL1        0.0074
     17 C           4.1308   -0.1001   32.3982 C.ar    1  UNL1        0.0698
     18 N           6.4240   -3.6561   30.8663 N.pl3   1  UNL1       -0.3027
     19 C           6.7177   -3.7845   29.4010 C.3     1  UNL1        0.1231
     20 C           7.4821   -4.9698   28.8903 C.3     1  UNL1        0.1636
     21 O           7.9527   -6.0267   29.8449 O.3     1  UNL1       -0.3501
     22 C           7.6590   -5.8983   31.3104 C.3     1  UNL1        0.1636
     23 C           6.8946   -4.7130   31.8210 C.3     1  UNL1        0.1231
     24 C           5.3020    1.2697   28.8783 C.3     1  UNL1        0.2525
     25 O           4.8539    1.2658   30.3098 O.3     1  UNL1       -0.4713
     26 N           2.8751    3.6558   36.8028 N.pl3   1  UNL1       -0.3313
     27 H           3.6243    4.2487   37.0405 H       1  UNL1        0.1469
     28 C           2.4071    2.6127   37.7738 C.3     1  UNL1        0.0819
     29 C           3.1223    1.3381   38.1111 C.3     1  UNL1        0.0983
     30 C           2.2989    0.5986   39.1237 C.3     1  UNL1        0.0323
     31 C           1.0336    0.6469   39.9277 C.2     1  UNL1       -0.0304
     32 C           0.3183    1.9215   39.5904 C.2     1  UNL1       -0.0294
     33 C           1.1417    2.6610   38.5778 C.3     1  UNL1        0.0404
     34 C           2.3658    1.8434   38.2894 C.3     1  UNL1        0.0109
     35 C           4.4311    0.8828   37.5368 C.2     1  UNL1        0.2208
     36 N           4.4718   -0.2850   36.5963 N.am    1  UNL1       -0.3288
     37 O           5.6992    1.5955   37.9029 O.2     1  UNL1       -0.2753
     38 H           3.6395   -0.7527   36.3560 H       1  UNL1        0.1449
     39 H           5.3308   -0.5838   36.2194 H       1  UNL1        0.1449
@<TRIPOS>BOND
     1    24    25    1
     2    25    12    1
     3    12    13   ar
     4    13    14   ar
     5    14    18    1
     6    18    19    1
     7    19    20    1
     8    20    21    1
     9    21    22    1
    10    22    23    1
    11    14    15   ar
    12    15    16   ar
    13    16    17   ar
    14    17     1    1
    15     1     2   ar
    16     2     3   ar
    17     3     4   ar
    18     4    26    1
    19    28    26    1
    20    28    29    1
    21    29    35    1
    22    35    36   am
    23    35    37    2
    24    29    30    1
    25    30    31    1
    26    31    32    2
    27    33    32    1
    28    33    34    1
    29     4     5   ar
    30     5     6    1
    31     5     7   ar
    32     7     8   ar
    33     8     9   ar
    34     9    10   ar
    35    17    12   ar
    36    10     1   ar
    37    23    18    1
    38     9     3    1
    39    33    28    1
    40    34    30    1
    41    26    27    1
    42    36    38    1
    43    36    39    1
    44     8    11    1
@<TRIPOS>MOLECULE
*****
 39 44 0 0 0
SMALL
GASTEIGER

@<TRIPOS>ATOM
      1 C           4.4371   -1.2309   24.1450 C.ar    1  UNL1        0.1669
      2 N           3.6731   -1.5122   22.8852 N.ar    1  UNL1       -0.2221
      3 C           4.6478   -1.9851   21.8478 C.ar    1  UNL1        0.1307
      4 C           4.4676   -2.4072   20.4197 C.ar    1  UNL1        0.0777
      5 C           5.6539   -2.8403   19.6103 C.ar    1  UNL1        0.0893
      6 CL          5.4738   -3.2623   18.1821 Cl      1  UNL1       -0.0794
      7 C           7.0203   -2.8514   20.2289 C.ar    1  UNL1        0.0863
      8 N           7.2005   -2.4293   21.6570 N.ar    1  UNL1       -0.3354
      9 C           6.0142   -1.9962   22.4664 C.ar    1  UNL1        0.1613
     10 N           5.8841   -1.5301   23.8862 N.ar    1  UNL1       -0.2080
     11 H           8.0973   -2.4366   22.0630 H       1  UNL1        0.1675
     12 C           3.1373    0.5784   25.4816 C.ar    1  UNL1        0.1428
     13 C           2.5565    1.0721   26.7735 C.ar    1  UNL1        0.0515
     14 C           2.6946    0.2501   28.0206 C.ar    1  UNL1        0.0510
     15 C           3.4136   -1.0655   27.9759 C.ar    1  UNL1        0.0148
     16 C           3.9945   -1.5592   26.6840 C.ar    1  UNL1        0.0074
     17 C           3.8563   -0.7372   25.4369 C.ar    1  UNL1        0.0698
     18 N           2.1138    0.7439   29.3125 N.pl3   1  UNL1       -0.3027
     19 C           0.7566    1.3825   29.3289 C.3     1  UNL1        0.1231
     20 C           0.1758    1.8762   30.6208 C.3     1  UNL1        0.1636
     21 O           0.9520    1.7313   31.8961 O.3     1  UNL1       -0.3501
     22 C           2.3092    1.0926   31.8796 C.3     1  UNL1        0.1636
     23 C           2.8900    0.5989   30.5878 C.3     1  UNL1        0.1231
     24 C           1.6524    1.5767   23.5978 C.3     1  UNL1        0.2525
     25 O           2.9991    1.4005   24.2346 O.3     1  UNL1       -0.4713
     26 N           3.1011   -2.3961   19.8010 N.pl3   1  UNL1       -0.3313
     27 H           2.6550   -3.2448   19.5777 H       1  UNL1        0.1469
     28 C           2.4145   -1.0919   19.5225 C.3     1  UNL1        0.0819
     29 C           2.8013   -0.0999   18.4660 C.3     1  UNL1        0.0983
     30 C           1.8463    1.0544   18.5421 C.3     1  UNL1        0.0323
     31 C           0.6523    1.5955   19.2712 C.2     1  UNL1       -0.0304
     32 C           0.2655    0.6034   20.3277 C.2     1  UNL1       -0.0294
     33 C           1.2205   -0.5508   20.2516 C.3     1  UNL1        0.0404
     34 C           2.1975   -0.2722   19.1481 C.3     1  UNL1        0.0109
     35 C           3.9427   -0.2378   17.5025 C.2     1  UNL1        0.2208
     36 N           5.2571    0.4218   17.7976 N.am    1  UNL1       -0.3288
     37 O           3.7696   -1.0355   16.2441 O.2     1  UNL1       -0.2753
     38 H           5.3707    0.9454   18.6235 H       1  UNL1        0.1449
     39 H           6.0062    0.3313   17.1652 H       1  UNL1        0.1449
@<TRIPOS>BOND
     1    24    25    1
     2    25    12    1
     3    12    13   ar
     4    13    14   ar
     5    14    18    1
     6    18    19    1
     7    19    20    1
     8    20    21    1
     9    21    22    1
    10    22    23    1
    11    14    15   ar
    12    15    16   ar
    13    16    17   ar
    14    17     1    1
    15     1     2   ar
    16     2     3   ar
    17     3     4   ar
    18     4    26    1
    19    28    26    1
    20    28    29    1
    21    29    35    1
    22    35    36   am
    23    35    37    2
    24    29    30    1
    25    30    31    1
    26    31    32    2
    27    33    32    1
    28    33    34    1
    29     4     5   ar
    30     5     6    1
    31     5     7   ar
    32     7     8   ar
    33     8     9   ar
    34     9    10   ar
    35    17    12   ar
    36    10     1   ar
    37    23    18    1
    38     9     3    1
    39    33    28    1
    40    34    30    1
    41    26    27    1
    42    36    38    1
    43    36    39    1
    44     8    11    1
@<TRIPOS>MOLECULE
*****
 39 44 0 0 0
SMALL
GASTEIGER

@<TRIPOS>ATOM
      1 C          -0.4264    2.4375   20.1873 C.ar    1  UNL1        0.1669
      2 N          -1.8394    2.5026   20.6867 N.ar    1  UNL1       -0.2221
      3 C          -2.4488    3.7793   20.1879 C.ar    1  UNL1        0.1307
      4 C          -3.8135    4.3762   20.3648 C.ar    1  UNL1        0.0777
      5 C          -4.1418    5.6970   19.7340 C.ar    1  UNL1        0.0893
      6 CL         -5.5066    6.2939   19.9109 Cl      1  UNL1       -0.0794
      7 C          -3.1056    6.4207   18.9264 C.ar    1  UNL1        0.0863
      8 N          -1.7409    5.8238   18.7496 N.ar    1  UNL1       -0.3354
      9 C          -1.4125    4.5031   19.3803 C.ar    1  UNL1        0.1613
     10 N          -0.1626    3.6738   19.3800 N.ar    1  UNL1       -0.2080
     11 H          -1.0608    6.2989   18.2195 H       1  UNL1        0.1675
     12 C           1.0670    1.0985   21.8386 C.ar    1  UNL1        0.1428
     13 C           2.0446   -0.0087   22.1006 C.ar    1  UNL1        0.0515
     14 C           2.5062   -0.8840   20.9734 C.ar    1  UNL1        0.0510
     15 C           1.9902   -0.6522   19.5841 C.ar    1  UNL1        0.0148
     16 C           1.0127    0.4549   19.3222 C.ar    1  UNL1        0.0074
     17 C           0.5511    1.3303   20.4494 C.ar    1  UNL1        0.0698
     18 N           3.4837   -1.9912   21.2354 N.pl3   1  UNL1       -0.3027
     19 C           3.9168   -2.8899   20.1153 C.3     1  UNL1        0.1231
     20 C           4.8943   -3.9971   20.3773 C.3     1  UNL1        0.1636
     21 O           5.4387   -4.2055   21.7593 O.3     1  UNL1       -0.3501
     22 C           5.0057   -3.3067   22.8795 C.3     1  UNL1        0.1636
     23 C           4.0281   -2.1995   22.6175 C.3     1  UNL1        0.1231
     24 C           0.6363    1.4606   24.3750 C.3     1  UNL1        0.2525
     25 O           0.6055    1.9738   22.9659 O.3     1  UNL1       -0.4713
     26 N          -4.8498    3.6524   21.1724 N.pl3   1  UNL1       -0.3313
     27 H          -5.5278    3.0993   20.7210 H       1  UNL1        0.1469
     28 C          -4.8533    3.7713   22.6676 C.3     1  UNL1        0.0819
     29 C          -6.0398    4.1040   23.5228 C.3     1  UNL1        0.0983
     30 C          -5.5907    4.1168   24.9540 C.3     1  UNL1        0.0323
     31 C          -4.4082    3.9240   25.8565 C.2     1  UNL1       -0.0304
     32 C          -3.2217    3.5913   25.0013 C.2     1  UNL1       -0.0294
     33 C          -3.6708    3.5785   23.5701 C.3     1  UNL1        0.0404
     34 C          -5.1349    3.9033   23.5409 C.3     1  UNL1        0.0109
     35 C          -7.4312    4.3762   23.0330 C.2     1  UNL1        0.2208
     36 N          -8.6006    3.6944   23.6791 N.am    1  UNL1       -0.3288
     37 O          -7.6532    5.3303   21.8969 O.2     1  UNL1       -0.2753
     38 H          -8.4549    3.0682   24.4247 H       1  UNL1        0.1449
     39 H          -9.5138    3.8730   23.3576 H       1  UNL1        0.1449
@<TRIPOS>BOND
     1    24    25    1
     2    25    12    1
     3    12    13   ar
     4    13    14   ar
     5    14    18    1
     6    18    19    1
     7    19    20    1
     8    20    21    1
     9    21    22    1
    10    22    23    1
    11    14    15   ar
    12    15    16   ar
    13    16    17   ar
    14    17     1    1
    15     1     2   ar
    16     2     3   ar
    17     3     4   ar
    18     4    26    1
    19    28    26    1
    20    28    29    1
    21    29    35    1
    22    35    36   am
    23    35    37    2
    24    29    30    1
    25    30    31    1
    26    31    32    2
    27    33    32    1
    28    33    34    1
    29     4     5   ar
    30     5     6    1
    31     5     7   ar
    32     7     8   ar
    33     8     9   ar
    34     9    10   ar
    35    17    12   ar
    36    10     1   ar
    37    23    18    1
    38     9     3    1
    39    33    28    1
    40    34    30    1
    41    26    27    1
    42    36    38    1
    43    36    39    1
    44     8    11    1
@<TRIPOS>MOLECULE
*****
 39 44 0 0 0
SMALL
GASTEIGER

@<TRIPOS>ATOM
      1 C           6.6765   -3.5366   22.6679 C.ar    1  UNL1        0.1669
      2 N           5.3538   -3.0888   22.1203 N.ar    1  UNL1       -0.2221
      3 C           5.5587   -2.6767   20.6927 C.ar    1  UNL1        0.1307
      4 C           4.6128   -2.1506   19.6543 C.ar    1  UNL1        0.0777
      5 C           5.1163   -1.8175   18.2811 C.ar    1  UNL1        0.0893
      6 CL          4.1703   -1.2914   17.2426 Cl      1  UNL1       -0.0794
      7 C           6.5656   -2.0106   17.9464 C.ar    1  UNL1        0.0863
      8 N           7.5115   -2.5367   18.9848 N.ar    1  UNL1       -0.3354
      9 C           7.0081   -2.8698   20.3580 C.ar    1  UNL1        0.1613
     10 N           7.6990   -3.4012   21.5787 N.ar    1  UNL1       -0.2080
     11 H           8.4628   -2.6634   18.7651 H       1  UNL1        0.1675
     12 C           7.5529   -5.3813   24.2739 C.ar    1  UNL1        0.1428
     13 C           7.8084   -5.8773   25.6663 C.ar    1  UNL1        0.0515
     14 C           7.4430   -5.0247   26.8451 C.ar    1  UNL1        0.0510
     15 C           6.8222   -3.6760   26.6315 C.ar    1  UNL1        0.0148
     16 C           6.5667   -3.1800   25.2391 C.ar    1  UNL1        0.0074
     17 C           6.9321   -4.0326   24.0603 C.ar    1  UNL1        0.0698
     18 N           7.6986   -5.5207   28.2374 N.pl3   1  UNL1       -0.3027
     19 C           8.9157   -6.3480   28.5272 C.3     1  UNL1        0.1231
     20 C           9.1712   -6.8441   29.9196 C.3     1  UNL1        0.1636
     21 O           8.2097   -6.5129   31.0220 O.3     1  UNL1       -0.3501
     22 C           6.9924   -5.6856   30.7323 C.3     1  UNL1        0.1636
     23 C           6.7369   -5.1895   29.3399 C.3     1  UNL1        0.1231
     24 C           8.9588   -7.3049   23.2379 C.3     1  UNL1        0.2525
     25 O           7.9183   -6.2339   23.0951 O.3     1  UNL1       -0.4713
     26 N           3.1634   -1.9575   19.9889 N.pl3   1  UNL1       -0.3313
     27 H           2.4864   -2.5667   19.6150 H       1  UNL1        0.1469
     28 C           2.7454   -0.8363   20.8934 C.3     1  UNL1        0.0819
     29 C           2.2287    0.5025   20.4570 C.3     1  UNL1        0.0983
     30 C           1.9347    1.3093   21.6869 C.3     1  UNL1        0.0323
     31 C           1.9599    1.2885   23.1866 C.2     1  UNL1       -0.0304
     32 C           2.4765   -0.0503   23.6230 C.2     1  UNL1       -0.0294
     33 C           2.7706   -0.8571   22.3930 C.3     1  UNL1        0.0404
     34 C           2.4357   -0.0168   21.1965 C.3     1  UNL1        0.0109
     35 C           2.0394    0.9553   19.0395 C.2     1  UNL1        0.2208
     36 N           3.0739    1.8215   18.3843 N.am    1  UNL1       -0.3288
     37 O           0.8154    0.5417   18.2772 O.2     1  UNL1       -0.2753
     38 H           3.8772    2.0929   18.8845 H       1  UNL1        0.1449
     39 H           2.9496    2.1186   17.4539 H       1  UNL1        0.1449
@<TRIPOS>BOND
     1    24    25    1
     2    25    12    1
     3    12    13   ar
     4    13    14   ar
     5    14    18    1
     6    18    19    1
     7    19    20    1
     8    20    21    1
     9    21    22    1
    10    22    23    1
    11    14    15   ar
    12    15    16   ar
    13    16    17   ar
    14    17     1    1
    15     1     2   ar
    16     2     3   ar
    17     3     4   ar
    18     4    26    1
    19    28    26    1
    20    28    29    1
    21    29    35    1
    22    35    36   am
    23    35    37    2
    24    29    30    1
    25    30    31    1
    26    31    32    2
    27    33    32    1
    28    33    34    1
    29     4     5   ar
    30     5     6    1
    31     5     7   ar
    32     7     8   ar
    33     8     9   ar
    34     9    10   ar
    35    17    12   ar
    36    10     1   ar
    37    23    18    1
    38     9     3    1
    39    33    28    1
    40    34    30    1
    41    26    27    1
    42    36    38    1
    43    36    39    1
    44     8    11    1
@<TRIPOS>MOLECULE
*****
 39 44 0 0 0
SMALL
GASTEIGER

@<TRIPOS>ATOM
      1 C           6.3536   -3.8395   26.0134 C.ar    1  UNL1        0.1669
      2 N           6.2694   -2.8701   27.1550 N.ar    1  UNL1       -0.2221
      3 C           6.4973   -3.6313   28.4272 C.ar    1  UNL1        0.1307
      4 C           6.5289   -3.1994   29.8633 C.ar    1  UNL1        0.0777
      5 C           6.7856   -4.2074   30.9442 C.ar    1  UNL1        0.0893
      6 CL          6.8173   -3.7755   32.3804 Cl      1  UNL1       -0.0794
      7 C           7.0106   -5.6472   30.5889 C.ar    1  UNL1        0.0863
      8 N           6.9790   -6.0791   29.1528 N.ar    1  UNL1       -0.3354
      9 C           6.7223   -5.0712   28.0720 C.ar    1  UNL1        0.1613
     10 N           6.6335   -5.1998   26.5801 N.ar    1  UNL1       -0.2080
     11 H           7.1267   -7.0241   28.9196 H       1  UNL1        0.1675
     12 C           5.1158   -2.5502   24.1277 C.ar    1  UNL1        0.1428
     13 C           4.9494   -2.2177   22.6745 C.ar    1  UNL1        0.0515
     14 C           5.8543   -2.8419   21.6539 C.ar    1  UNL1        0.0510
     15 C           6.9255   -3.7985   22.0864 C.ar    1  UNL1        0.0148
     16 C           7.0919   -4.1310   23.5396 C.ar    1  UNL1        0.0074
     17 C           6.1871   -3.5069   24.5603 C.ar    1  UNL1        0.0698
     18 N           5.6878   -2.5093   20.2007 N.pl3   1  UNL1       -0.3027
     19 C           6.8863   -2.4631   19.2999 C.3     1  UNL1        0.1231
     20 C           6.7198   -2.1306   17.8467 C.3     1  UNL1        0.1636
     21 O           5.3550   -1.8442   17.2944 O.3     1  UNL1       -0.3501
     22 C           4.1564   -1.8904   18.1952 C.3     1  UNL1        0.1636
     23 C           4.3229   -2.2230   19.6484 C.3     1  UNL1        0.1231
     24 C           3.5758   -0.5953   24.8736 C.3     1  UNL1        0.2525
     25 O           4.2110   -1.9261   25.1483 O.3     1  UNL1       -0.4713
     26 N           6.3039   -1.7595   30.2187 N.pl3   1  UNL1       -0.3313
     27 H           7.0684   -1.1848   30.4519 H       1  UNL1        0.1469
     28 C           4.9140   -1.1954   30.2188 C.3     1  UNL1        0.0819
     29 C           4.0470   -0.9875   31.4250 C.3     1  UNL1        0.0983
     30 C           2.7442   -0.4038   30.9643 C.3     1  UNL1        0.0323
     31 C           1.9774    0.0515   29.7582 C.2     1  UNL1       -0.0304
     32 C           2.8444   -0.1565   28.5520 C.2     1  UNL1       -0.0294
     33 C           4.1472   -0.7402   29.0126 C.3     1  UNL1        0.0404
     34 C           4.0853   -0.8931   30.5035 C.3     1  UNL1        0.0109
     35 C           4.4176   -1.3072   32.8429 C.2     1  UNL1        0.2208
     36 N           5.3467   -0.4031   33.5973 N.am    1  UNL1       -0.3288
     37 O           3.8590   -2.5310   33.5064 O.2     1  UNL1       -0.2753
     38 H           5.7134    0.4002   33.1619 H       1  UNL1        0.1449
     39 H           5.5900   -0.6129   34.5280 H       1  UNL1        0.1449
@<TRIPOS>BOND
     1    24    25    1
     2    25    12    1
     3    12    13   ar
     4    13    14   ar
     5    14    18    1
     6    18    19    1
     7    19    20    1
     8    20    21    1
     9    21    22    1
    10    22    23    1
    11    14    15   ar
    12    15    16   ar
    13    16    17   ar
    14    17     1    1
    15     1     2   ar
    16     2     3   ar
    17     3     4   ar
    18     4    26    1
    19    28    26    1
    20    28    29    1
    21    29    35    1
    22    35    36   am
    23    35    37    2
    24    29    30    1
    25    30    31    1
    26    31    32    2
    27    33    32    1
    28    33    34    1
    29     4     5   ar
    30     5     6    1
    31     5     7   ar
    32     7     8   ar
    33     8     9   ar
    34     9    10   ar
    35    17    12   ar
    36    10     1   ar
    37    23    18    1
    38     9     3    1
    39    33    28    1
    40    34    30    1
    41    26    27    1
    42    36    38    1
    43    36    39    1
    44     8    11    1
@<TRIPOS>MOLECULE
*****
 39 44 0 0 0
SMALL
GASTEIGER

@<TRIPOS>ATOM
      1 C           4.5406   -0.1744   32.4138 C.ar    1  UNL1        0.1669
      2 N           3.1915    0.3134   31.9756 N.ar    1  UNL1       -0.2221
      3 C           2.8591    1.5379   32.7757 C.ar    1  UNL1        0.1307
      4 C           1.6627    2.4428   32.7754 C.ar    1  UNL1        0.0777
      5 C           1.6101    3.6167   33.7079 C.ar    1  UNL1        0.0893
      6 CL          0.4137    4.5216   33.7077 Cl      1  UNL1       -0.0794
      7 C           2.7537    3.8856   34.6404 C.ar    1  UNL1        0.0863
      8 N           3.9500    2.9808   34.6406 N.ar    1  UNL1       -0.3354
      9 C           4.0027    1.8070   33.7082 C.ar    1  UNL1        0.1613
     10 N           5.0420    0.7487   33.4846 N.ar    1  UNL1       -0.2080
     11 H           4.7007    3.1574   35.2527 H       1  UNL1        0.1675
     12 C           5.5592   -1.4754   30.4089 C.ar    1  UNL1        0.1428
     13 C           6.2804   -2.6756   29.8708 C.ar    1  UNL1        0.0515
     14 C           6.7040   -3.7748   30.7993 C.ar    1  UNL1        0.0510
     15 C           6.4065   -3.6739   32.2661 C.ar    1  UNL1        0.0148
     16 C           5.6853   -2.4737   32.8041 C.ar    1  UNL1        0.0074
     17 C           5.2617   -1.3745   31.8756 C.ar    1  UNL1        0.0698
     18 N           7.4252   -4.9750   30.2612 N.pl3   1  UNL1       -0.3027
     19 C           7.0817   -5.5093   28.9023 C.3     1  UNL1        0.1231
     20 C           7.8028   -6.7095   28.3642 C.3     1  UNL1        0.1636
     21 O           8.8673   -7.3752   29.1847 O.3     1  UNL1       -0.3501
     22 C           9.2109   -6.8408   30.5436 C.3     1  UNL1        0.1636
     23 C           8.4897   -5.6407   31.0818 C.3     1  UNL1        0.1231
     24 C           5.4907   -0.4457   28.0246 C.3     1  UNL1        0.2525
     25 O           5.1356   -0.3763   29.4803 O.3     1  UNL1       -0.4713
     26 N           0.5190    2.1738   31.8429 N.pl3   1  UNL1       -0.3313
     27 H          -0.3018    1.7478   32.1806 H       1  UNL1        0.1469
     28 C           0.6259    2.5540   30.3958 C.3     1  UNL1        0.0819
     29 C           0.6888    1.6037   29.2370 C.3     1  UNL1        0.0983
     30 C           0.7904    2.4135   27.9784 C.3     1  UNL1        0.0323
     31 C           0.8531    3.8106   27.4361 C.2     1  UNL1       -0.0304
     32 C           0.7902    4.7609   28.5950 C.2     1  UNL1       -0.0294
     33 C           0.6886    3.9511   29.8535 C.3     1  UNL1        0.0404
     34 C           0.6887    2.5003   29.4725 C.3     1  UNL1        0.0109
     35 C           0.6559    0.1064   29.3217 C.2     1  UNL1        0.2208
     36 N           1.9351   -0.6656   29.4546 N.am    1  UNL1       -0.3288
     37 O          -0.6563   -0.6188   29.2736 O.2     1  UNL1       -0.2753
     38 H           2.7963   -0.1896   29.4861 H       1  UNL1        0.1449
     39 H           1.9134   -1.6483   29.5102 H       1  UNL1        0.1449
@<TRIPOS>BOND
     1    24    25    1
     2    25    12    1
     3    12    13   ar
     4    13    14   ar
     5    14    18    1
     6    18    19    1
     7    19    20    1
     8    20    21    1
     9    21    22    1
    10    22    23    1
    11    14    15   ar
    12    15    16   ar
    13    16    17   ar
    14    17     1    1
    15     1     2   ar
    16     2     3   ar
    17     3     4   ar
    18     4    26    1
    19    28    26    1
    20    28    29    1
    21    29    35    1
    22    35    36   am
    23    35    37    2
    24    29    30    1
    25    30    31    1
    26    31    32    2
    27    33    32    1
    28    33    34    1
    29     4     5   ar
    30     5     6    1
    31     5     7   ar
    32     7     8   ar
    33     8     9   ar
    34     9    10   ar
    35    17    12   ar
    36    10     1   ar
    37    23    18    1
    38     9     3    1
    39    33    28    1
    40    34    30    1
    41    26    27    1
    42    36    38    1
    43    36    39    1
    44     8    11    1
@<TRIPOS>MOLECULE
*****
 39 44 0 0 0
SMALL
GASTEIGER

@<TRIPOS>ATOM
      1 C           7.6843   -1.6824   21.9350 C.ar    1  UNL1        0.1669
      2 N           6.7025   -1.7913   20.8062 N.ar    1  UNL1       -0.2221
      3 C           7.1241   -0.8340   19.7312 C.ar    1  UNL1        0.1307
      4 C           6.5372   -0.5097   18.3894 C.ar    1  UNL1        0.0777
      5 C           7.1928    0.5153   17.5120 C.ar    1  UNL1        0.0893
      6 CL          6.6059    0.8396   16.1701 Cl      1  UNL1       -0.0794
      7 C           8.4351    1.2158   17.9763 C.ar    1  UNL1        0.0863
      8 N           9.0220    0.8915   19.3181 N.ar    1  UNL1       -0.3354
      9 C           8.3665   -0.1334   20.1955 C.ar    1  UNL1        0.1613
     10 N           8.7127   -0.6577   21.5576 N.ar    1  UNL1       -0.2080
     11 H           9.8374    1.3514   19.6229 H       1  UNL1        0.1675
     12 C           7.4835   -3.9523   23.1829 C.ar    1  UNL1        0.1428
     13 C           7.4439   -4.7312   24.4642 C.ar    1  UNL1        0.0515
     14 C           7.5655   -4.0192   25.7789 C.ar    1  UNL1        0.0510
     15 C           7.7268   -2.5283   25.8122 C.ar    1  UNL1        0.0148
     16 C           7.7664   -1.7494   24.5309 C.ar    1  UNL1        0.0074
     17 C           7.6447   -2.4614   23.2162 C.ar    1  UNL1        0.0698
     18 N           7.5259   -4.7982   27.0601 N.pl3   1  UNL1       -0.3027
     19 C           6.7531   -4.2730   28.2335 C.3     1  UNL1        0.1231
     20 C           6.7135   -5.0520   29.5148 C.3     1  UNL1        0.1636
     21 O           7.4467   -6.3560   29.6227 O.3     1  UNL1       -0.3501
     22 C           8.2196   -6.8813   28.4493 C.3     1  UNL1        0.1636
     23 C           8.2592   -6.1023   27.1680 C.3     1  UNL1        0.1231
     24 C           8.5889   -5.1870   21.1820 C.3     1  UNL1        0.2525
     25 O           7.3618   -4.6643   21.8683 O.3     1  UNL1       -0.4713
     26 N           5.2948   -1.2103   17.9250 N.pl3   1  UNL1       -0.3313
     27 H           5.3373   -1.8370   17.1669 H       1  UNL1        0.1469
     28 C           3.9878   -0.9560   18.6155 C.3     1  UNL1        0.0819
     29 C           3.2509   -1.9244   19.4924 C.3     1  UNL1        0.0983
     30 C           1.9958   -1.2556   19.9693 C.3     1  UNL1        0.0323
     31 C           1.1961    0.0118   19.9042 C.2     1  UNL1       -0.0304
     32 C           1.9330    0.9803   19.0272 C.2     1  UNL1       -0.0294
     33 C           3.1881    0.3114   18.5504 C.3     1  UNL1        0.0404
     34 C           3.2269   -1.0704   19.1326 C.3     1  UNL1        0.0109
     35 C           3.6917   -3.3173   19.8328 C.2     1  UNL1        0.2208
     36 N           4.4366   -3.5775   21.1085 N.am    1  UNL1       -0.3288
     37 O           3.3876   -4.4498   18.8974 O.2     1  UNL1       -0.2753
     38 H           4.6361   -2.8342   21.7224 H       1  UNL1        0.1449
     39 H           4.7259   -4.4917   21.3319 H       1  UNL1        0.1449
@<TRIPOS>BOND
     1    24    25    1
     2    25    12    1
     3    12    13   ar
     4    13    14   ar
     5    14    18    1
     6    18    19    1
     7    19    20    1
     8    20    21    1
     9    21    22    1
    10    22    23    1
    11    14    15   ar
    12    15    16   ar
    13    16    17   ar
    14    17     1    1
    15     1     2   ar
    16     2     3   ar
    17     3     4   ar
    18     4    26    1
    19    28    26    1
    20    28    29    1
    21    29    35    1
    22    35    36   am
    23    35    37    2
    24    29    30    1
    25    30    31    1
    26    31    32    2
    27    33    32    1
    28    33    34    1
    29     4     5   ar
    30     5     6    1
    31     5     7   ar
    32     7     8   ar
    33     8     9   ar
    34     9    10   ar
    35    17    12   ar
    36    10     1   ar
    37    23    18    1
    38     9     3    1
    39    33    28    1
    40    34    30    1
    41    26    27    1
    42    36    38    1
    43    36    39    1
    44     8    11    1
@<TRIPOS>MOLECULE
*****
 39 44 0 0 0
SMALL
GASTEIGER

@<TRIPOS>ATOM
      1 C           3.5572   -0.5984   24.2126 C.ar    1  UNL1        0.1669
      2 N           3.3792   -1.2304   22.8640 N.ar    1  UNL1       -0.2221
      3 C           2.6400   -0.2598   21.9913 C.ar    1  UNL1        0.1307
      4 C           2.1848   -0.3385   20.5642 C.ar    1  UNL1        0.0777
      5 C           1.4507    0.8147   19.9465 C.ar    1  UNL1        0.0893
      6 CL          0.9954    0.7360   18.5194 Cl      1  UNL1       -0.0794
      7 C           1.1720    2.0464   20.7558 C.ar    1  UNL1        0.0863
      8 N           1.6273    2.1251   22.1829 N.ar    1  UNL1       -0.3354
      9 C           2.3613    0.9720   22.8006 C.ar    1  UNL1        0.1613
     10 N           2.9282    0.7627   24.1735 N.ar    1  UNL1       -0.2080
     11 H           1.4443    2.9336   22.7140 H       1  UNL1        0.1675
     12 C           5.5290   -1.9689   25.2046 C.ar    1  UNL1        0.1428
     13 C           6.2156   -2.5892   26.3853 C.ar    1  UNL1        0.0515
     14 C           5.6171   -2.4593   27.7545 C.ar    1  UNL1        0.0510
     15 C           4.3319   -1.7091   27.9432 C.ar    1  UNL1        0.0148
     16 C           3.6454   -1.0888   26.7625 C.ar    1  UNL1        0.0074
     17 C           4.2439   -1.2187   25.3932 C.ar    1  UNL1        0.0698
     18 N           6.3037   -3.0796   28.9351 N.pl3   1  UNL1       -0.3027
     19 C           6.7112   -2.2261   30.0993 C.3     1  UNL1        0.1231
     20 C           7.3978   -2.8464   31.2799 C.3     1  UNL1        0.1636
     21 O           7.6769   -4.3200   31.2963 O.3     1  UNL1       -0.3501
     22 C           7.2694   -5.1736   30.1320 C.3     1  UNL1        0.1636
     23 C           6.5828   -4.5533   28.9514 C.3     1  UNL1        0.1231
     24 C           7.5470   -2.5576   23.6777 C.3     1  UNL1        0.2525
     25 O           6.1276   -2.0989   23.8354 O.3     1  UNL1       -0.4713
     26 N           2.4635   -1.5703   19.7548 N.pl3   1  UNL1       -0.3313
     27 H           1.7299   -2.1862   19.5273 H       1  UNL1        0.1469
     28 C           3.8598   -1.8636   19.2921 C.3     1  UNL1        0.0819
     29 C           4.7021   -3.0303   19.7155 C.3     1  UNL1        0.0983
     30 C           6.0219   -2.9295   19.0098 C.3     1  UNL1        0.0323
     31 C           6.8211   -2.1076   18.0425 C.2     1  UNL1       -0.0304
     32 C           5.9788   -0.9409   17.6191 C.2     1  UNL1       -0.0294
     33 C           4.6590   -1.0417   18.3248 C.3     1  UNL1        0.0404
     34 C           4.6856   -2.2707   19.1843 C.3     1  UNL1        0.0109
     35 C           4.2959   -4.1086   20.6760 C.2     1  UNL1        0.2208
     36 N           4.5090   -3.9203   22.1487 N.am    1  UNL1       -0.3288
     37 O           3.6767   -5.3751   20.1636 O.2     1  UNL1       -0.2753
     38 H           4.9154   -3.0891   22.4850 H       1  UNL1        0.1449
     39 H           4.2424   -4.6280   22.7791 H       1  UNL1        0.1449
@<TRIPOS>BOND
     1    24    25    1
     2    25    12    1
     3    12    13   ar
     4    13    14   ar
     5    14    18    1
     6    18    19    1
     7    19    20    1
     8    20    21    1
     9    21    22    1
    10    22    23    1
    11    14    15   ar
    12    15    16   ar
    13    16    17   ar
    14    17     1    1
    15     1     2   ar
    16     2     3   ar
    17     3     4   ar
    18     4    26    1
    19    28    26    1
    20    28    29    1
    21    29    35    1
    22    35    36   am
    23    35    37    2
    24    29    30    1
    25    30    31    1
    26    31    32    2
    27    33    32    1
    28    33    34    1
    29     4     5   ar
    30     5     6    1
    31     5     7   ar
    32     7     8   ar
    33     8     9   ar
    34     9    10   ar
    35    17    12   ar
    36    10     1   ar
    37    23    18    1
    38     9     3    1
    39    33    28    1
    40    34    30    1
    41    26    27    1
    42    36    38    1
    43    36    39    1
    44     8    11    1
@<TRIPOS>MOLECULE
*****
 39 44 0 0 0
SMALL
GASTEIGER

@<TRIPOS>ATOM
      1 C           6.5875   -3.4763   22.5880 C.ar    1  UNL1        0.1669
      2 N           5.2475   -3.0793   22.0432 N.ar    1  UNL1       -0.2221
      3 C           5.4357   -2.6469   20.6193 C.ar    1  UNL1        0.1307
      4 C           4.4691   -2.1518   19.5846 C.ar    1  UNL1        0.0777
      5 C           4.9589   -1.7863   18.2147 C.ar    1  UNL1        0.0893
      6 CL          3.9923   -1.2911   17.1799 Cl      1  UNL1       -0.0794
      7 C           6.4151   -1.9159   17.8795 C.ar    1  UNL1        0.0863
      8 N           7.3817   -2.4111   18.9141 N.ar    1  UNL1       -0.3354
      9 C           6.8920   -2.7765   20.2840 C.ar    1  UNL1        0.1613
     10 N           7.6039   -3.2891   21.5008 N.ar    1  UNL1       -0.2080
     11 H           8.3375   -2.4961   18.6941 H       1  UNL1        0.1675
     12 C           6.5884   -3.0899   25.1572 C.ar    1  UNL1        0.1428
     13 C           6.8638   -3.5869   26.5454 C.ar    1  UNL1        0.0515
     14 C           7.4136   -4.9670   26.7528 C.ar    1  UNL1        0.0510
     15 C           7.6881   -5.8502   25.5719 C.ar    1  UNL1        0.0148
     16 C           7.4127   -5.3532   24.1836 C.ar    1  UNL1        0.0074
     17 C           6.8629   -3.9731   23.9762 C.ar    1  UNL1        0.0698
     18 N           7.6890   -5.4638   28.1411 N.pl3   1  UNL1       -0.3027
     19 C           6.7032   -5.2013   29.2408 C.3     1  UNL1        0.1231
     20 C           6.9786   -5.6982   30.6291 C.3     1  UNL1        0.1636
     21 O           8.2395   -6.4575   30.9176 O.3     1  UNL1       -0.3501
     22 C           9.2253   -6.7200   29.8179 C.3     1  UNL1        0.1636
     23 C           8.9500   -6.2231   28.4296 C.3     1  UNL1        0.1231
     24 C           5.4327   -0.9631   26.1011 C.3     1  UNL1        0.2525
     25 O           6.0386   -1.7098   24.9499 O.3     1  UNL1       -0.4713
     26 N           3.0128   -2.0221   19.9198 N.pl3   1  UNL1       -0.3313
     27 H           2.4483   -2.8263   19.9814 H       1  UNL1        0.1469
     28 C           2.4165   -0.6670   20.1610 C.3     1  UNL1        0.0819
     29 C           2.6089    0.1752   21.3872 C.3     1  UNL1        0.0983
     30 C           1.8344    1.4465   21.2025 C.3     1  UNL1        0.0323
     31 C           0.9410    2.1972   20.2600 C.2     1  UNL1       -0.0304
     32 C           0.7486    1.3549   19.0338 C.2     1  UNL1       -0.0294
     33 C           1.5231    0.0837   19.2185 C.3     1  UNL1        0.0404
     34 C           2.1941    0.1402   20.5588 C.3     1  UNL1        0.0109
     35 C           3.4313   -0.1897   22.5874 C.2     1  UNL1        0.2208
     36 N           4.9015    0.1073   22.6077 N.am    1  UNL1       -0.3288
     37 O           2.7836   -0.8516   23.7674 O.2     1  UNL1       -0.2753
     38 H           5.3266    0.5418   21.8332 H       1  UNL1        0.1449
     39 H           5.4412   -0.1322   23.3954 H       1  UNL1        0.1449
@<TRIPOS>BOND
     1    24    25    1
     2    25    12    1
     3    12    13   ar
     4    13    14   ar
     5    14    18    1
     6    18    19    1
     7    19    20    1
     8    20    21    1
     9    21    22    1
    10    22    23    1
    11    14    15   ar
    12    15    16   ar
    13    16    17   ar
    14    17     1    1
    15     1     2   ar
    16     2     3   ar
    17     3     4   ar
    18     4    26    1
    19    28    26    1
    20    28    29    1
    21    29    35    1
    22    35    36   am
    23    35    37    2
    24    29    30    1
    25    30    31    1
    26    31    32    2
    27    33    32    1
    28    33    34    1
    29     4     5   ar
    30     5     6    1
    31     5     7   ar
    32     7     8   ar
    33     8     9   ar
    34     9    10   ar
    35    17    12   ar
    36    10     1   ar
    37    23    18    1
    38     9     3    1
    39    33    28    1
    40    34    30    1
    41    26    27    1
    42    36    38    1
    43    36    39    1
    44     8    11    1
