@<TRIPOS>MOLECULE
*****
 35 38 0 0 0
SMALL
GASTEIGER

@<TRIPOS>ATOM
      1 C           4.5944   -2.6366   23.3113 C.ar    1  UNL1        0.2266
      2 C           4.1753   -2.2543   21.9228 C.ar    1  UNL1        0.0617
      3 C           3.3504   -1.0213   21.7011 C.ar    1  UNL1        0.0805
      4 C           2.9445   -0.1706   22.8680 C.ar    1  UNL1        0.0590
      5 C           2.1392    1.0918   22.9578 C.ar    1  UNL1        0.1038
      6 N           2.0605    1.4895   24.4020 N.ar    1  UNL1       -0.1679
      7 N           2.8172    0.4731   25.2046 N.ar    1  UNL1       -0.2319
      8 C           2.9962    0.4812   26.6939 C.3     1  UNL1        0.1554
      9 C           3.3636   -0.5529   24.2565 C.ar    1  UNL1        0.1639
     10 N           4.1885   -1.7859   24.4782 N.ar    1  UNL1       -0.1928
     11 C           1.5211    1.8271   21.8058 C.ar    1  UNL1        0.0194
     12 C           2.3171    2.8559   21.0589 C.ar    1  UNL1        0.0016
     13 C           1.6989    3.5913   19.9069 C.ar    1  UNL1        0.0000
     14 C           0.2848    3.2978   19.5018 C.ar    1  UNL1        0.0000
     15 C          -0.5112    2.2690   20.2487 C.ar    1  UNL1        0.0000
     16 C           0.1070    1.5337   21.4007 C.ar    1  UNL1        0.0016
     17 C           2.9313   -0.6389   20.3125 C.3     1  UNL1        0.4189
     18 F           2.5123   -0.2565   18.9239 F       1  UNL1       -0.1659
     19 F           4.2589    0.0244   20.0945 F       1  UNL1       -0.1659
     20 F           1.6037   -1.3021   20.5304 F       1  UNL1       -0.1659
     21 O           5.4193   -3.8697   23.5331 O.3     1  UNL1       -0.4501
     22 C           6.8610   -3.8919   23.1197 C.3     1  UNL1        0.2910
     23 N           7.3752   -2.4112   21.0476 N.am    1  UNL1       -0.3022
     24 C           7.2277   -3.7678   21.6704 C.2     1  UNL1        0.2671
     25 O           7.4468   -5.0003   20.8441 O.2     1  UNL1       -0.2711
     26 H           7.2313   -1.6023   21.5900 H       1  UNL1        0.1495
     27 C           7.7418   -2.2871   19.5985 C.3     1  UNL1        0.0823
     28 C           9.1144   -2.6773   19.1360 C.3     1  UNL1        0.0220
     29 C           7.8648    0.5850   18.0539 C.3     1  UNL1        0.0496
     30 C           6.7924   -0.4528   17.9017 C.2     1  UNL1        0.0652
     31 N           5.5883   -0.3525   17.0128 N.2     1  UNL1       -0.1569
     32 N           4.7876   -1.6108   17.1734 N.2     1  UNL1       -0.1569
     33 C           5.4968   -2.4886   18.1615 C.2     1  UNL1        0.0652
     34 C           5.0462   -3.8442   18.6193 C.3     1  UNL1        0.0496
     35 C           6.7359   -1.7729   18.6116 C.3     1  UNL1        0.0935
@<TRIPOS>BOND
     1    29    30    1
     2    30    31    2
     3    31    32    1
     4    32    33    2
     5    33    34    1
     6    33    35    1
     7    35    27    1
     8    27    28    1
     9    27    23    1
    10    23    24   am
    11    24    25    2
    12    24    22    1
    13    22    21    1
    14    21     1    1
    15     1     2   ar
    16     2     3   ar
    17     3    17    1
    18    17    18    1
    19    17    19    1
    20    17    20    1
    21     3     4   ar
    22     4     5   ar
    23     5    11    1
    24    11    12   ar
    25    12    13   ar
    26    13    14   ar
    27    14    15   ar
    28    15    16   ar
    29     5     6   ar
    30     6     7   ar
    31     7     8    1
    32     7     9   ar
    33     9    10   ar
    34    35    30    1
    35    10     1   ar
    36     9     4   ar
    37    16    11   ar
    38    23    26    1
@<TRIPOS>MOLECULE
*****
 35 38 0 0 0
SMALL
GASTEIGER

@<TRIPOS>ATOM
      1 C           3.9860   -0.7002   25.8413 C.ar    1  UNL1        0.2266
      2 C           4.9079   -1.6346   25.1154 C.ar    1  UNL1        0.0617
      3 C           4.7645   -1.8299   23.6351 C.ar    1  UNL1        0.0805
      4 C           3.6992   -1.0908   22.8808 C.ar    1  UNL1        0.0590
      5 C           3.3205   -1.0810   21.4294 C.ar    1  UNL1        0.1038
      6 N           2.1645   -0.1405   21.2584 N.ar    1  UNL1       -0.1679
      7 N           1.8289    0.4309   22.6040 N.ar    1  UNL1       -0.2319
      8 C           0.7365    1.4166   22.8958 C.3     1  UNL1        0.1554
      9 C           2.7774   -0.1564   23.6067 C.ar    1  UNL1        0.1639
     10 N           2.9208    0.0389   25.0870 N.ar    1  UNL1       -0.1928
     11 C           3.9816   -1.8727   20.3403 C.ar    1  UNL1        0.0194
     12 C           3.4764   -3.2426   19.9964 C.ar    1  UNL1        0.0016
     13 C           4.1375   -4.0342   18.9073 C.ar    1  UNL1        0.0000
     14 C           5.3039   -3.4560   18.1621 C.ar    1  UNL1        0.0000
     15 C           5.8091   -2.0861   18.5060 C.ar    1  UNL1        0.0000
     16 C           5.1480   -1.2945   19.5951 C.ar    1  UNL1        0.0016
     17 C           5.6863   -2.7644   22.9091 C.3     1  UNL1        0.4189
     18 F           6.6082   -3.6987   22.1831 F       1  UNL1       -0.1659
     19 F           6.6883   -1.6585   22.7581 F       1  UNL1       -0.1659
     20 F           4.6843   -3.8703   23.0601 F       1  UNL1       -0.1659
     21 O           4.1294   -0.5049   27.3217 O.3     1  UNL1       -0.4501
     22 C           3.1483   -1.1417   28.2607 C.3     1  UNL1        0.2910
     23 N           1.0638    0.2940   27.6744 N.am    1  UNL1       -0.3022
     24 C           1.9270   -0.3866   28.6949 C.2     1  UNL1        0.2671
     25 O           1.5691   -0.3122   30.1497 O.2     1  UNL1       -0.2711
     26 H           1.2987    0.2452   26.7196 H       1  UNL1        0.1495
     27 C          -0.1574    1.0491   28.1087 C.3     1  UNL1        0.0823
     28 C          -1.3479    0.3077   28.6407 C.3     1  UNL1        0.0220
     29 C           1.1525    3.1383   30.2463 C.3     1  UNL1        0.0496
     30 C           0.4140    3.5059   28.9936 C.2     1  UNL1        0.0652
     31 N           0.1480    4.8983   28.5034 N.2     1  UNL1       -0.1569
     32 N          -0.6186    4.7987   27.2178 N.2     1  UNL1       -0.1569
     33 C          -0.8262    3.3446   26.9136 C.2     1  UNL1        0.0652
     34 C          -1.5457    2.7873   25.7211 C.3     1  UNL1        0.0496
     35 C          -0.1880    2.5456   28.0110 C.3     1  UNL1        0.0935
@<TRIPOS>BOND
     1    29    30    1
     2    30    31    2
     3    31    32    1
     4    32    33    2
     5    33    34    1
     6    33    35    1
     7    35    27    1
     8    27    28    1
     9    27    23    1
    10    23    24   am
    11    24    25    2
    12    24    22    1
    13    22    21    1
    14    21     1    1
    15     1     2   ar
    16     2     3   ar
    17     3    17    1
    18    17    18    1
    19    17    19    1
    20    17    20    1
    21     3     4   ar
    22     4     5   ar
    23     5    11    1
    24    11    12   ar
    25    12    13   ar
    26    13    14   ar
    27    14    15   ar
    28    15    16   ar
    29     5     6   ar
    30     6     7   ar
    31     7     8    1
    32     7     9   ar
    33     9    10   ar
    34    35    30    1
    35    10     1   ar
    36     9     4   ar
    37    16    11   ar
    38    23    26    1
@<TRIPOS>MOLECULE
*****
 35 38 0 0 0
SMALL
GASTEIGER

@<TRIPOS>ATOM
      1 C           4.0195   -0.7203   25.8583 C.ar    1  UNL1        0.2266
      2 C           4.9231   -1.6679   25.1265 C.ar    1  UNL1        0.0617
      3 C           4.7690   -1.8593   23.6468 C.ar    1  UNL1        0.0805
      4 C           3.7114   -1.1029   22.8988 C.ar    1  UNL1        0.0590
      5 C           3.3254   -1.0856   21.4494 C.ar    1  UNL1        0.1038
      6 N           2.1832   -0.1271   21.2854 N.ar    1  UNL1       -0.1679
      7 N           1.8634    0.4478   22.6335 N.ar    1  UNL1       -0.2319
      8 C           0.7880    1.4499   22.9320 C.3     1  UNL1        0.1554
      9 C           2.8079   -0.1552   23.6306 C.ar    1  UNL1        0.1639
     10 N           2.9620    0.0361   25.1103 N.ar    1  UNL1       -0.1928
     11 C           3.9686   -1.8861   20.3560 C.ar    1  UNL1        0.0194
     12 C           5.1307   -1.3192   19.5957 C.ar    1  UNL1        0.0016
     13 C           5.7738   -2.1198   18.5023 C.ar    1  UNL1        0.0000
     14 C           5.2548   -3.4871   18.1693 C.ar    1  UNL1        0.0000
     15 C           4.0927   -4.0540   18.9296 C.ar    1  UNL1        0.0000
     16 C           3.4496   -3.2534   20.0230 C.ar    1  UNL1        0.0016
     17 C           5.6726   -2.8070   22.9150 C.3     1  UNL1        0.4189
     18 F           6.5761   -3.7546   22.1832 F       1  UNL1       -0.1659
     19 F           6.6992   -1.7220   22.7777 F       1  UNL1       -0.1659
     20 F           4.6459   -3.8919   23.0523 F       1  UNL1       -0.1659
     21 O           4.1735   -0.5289   27.3381 O.3     1  UNL1       -0.4501
     22 C           3.2016   -1.1716   28.2826 C.3     1  UNL1        0.2910
     23 N           1.0876    0.2215   27.6992 N.am    1  UNL1       -0.3022
     24 C           1.9759   -0.4256   28.7200 C.2     1  UNL1        0.2671
     25 O           1.6386   -0.3268   30.1783 O.2     1  UNL1       -0.2711
     26 H           1.3089    0.1567   26.7421 H       1  UNL1        0.1495
     27 C          -0.1380    0.9675   28.1367 C.3     1  UNL1        0.0823
     28 C          -1.3286    0.2160   28.6541 C.3     1  UNL1        0.0220
     29 C          -1.4995    2.7297   25.7511 C.3     1  UNL1        0.0496
     30 C          -0.7989    3.2749   26.9602 C.2     1  UNL1        0.0652
     31 N          -0.6010    4.7259   27.2850 N.2     1  UNL1       -0.1569
     32 N           0.1470    4.8127   28.5823 N.2     1  UNL1       -0.1569
     33 C           0.4115    3.4154   29.0592 C.2     1  UNL1        0.0652
     34 C           1.1338    3.0351   30.3177 C.3     1  UNL1        0.0496
     35 C          -0.1731    2.4650   28.0567 C.3     1  UNL1        0.0935
@<TRIPOS>BOND
     1    29    30    1
     2    30    31    2
     3    31    32    1
     4    32    33    2
     5    33    34    1
     6    33    35    1
     7    35    27    1
     8    27    28    1
     9    27    23    1
    10    23    24   am
    11    24    25    2
    12    24    22    1
    13    22    21    1
    14    21     1    1
    15     1     2   ar
    16     2     3   ar
    17     3    17    1
    18    17    18    1
    19    17    19    1
    20    17    20    1
    21     3     4   ar
    22     4     5   ar
    23     5    11    1
    24    11    12   ar
    25    12    13   ar
    26    13    14   ar
    27    14    15   ar
    28    15    16   ar
    29     5     6   ar
    30     6     7   ar
    31     7     8    1
    32     7     9   ar
    33     9    10   ar
    34    35    30    1
    35    10     1   ar
    36     9     4   ar
    37    16    11   ar
    38    23    26    1
@<TRIPOS>MOLECULE
*****
 35 38 0 0 0
SMALL
GASTEIGER

@<TRIPOS>ATOM
      1 C           1.1008    1.5462   23.3361 C.ar    1  UNL1        0.2266
      2 C           1.2400    1.2507   21.8721 C.ar    1  UNL1        0.0617
      3 C           2.1694    0.1675   21.4108 C.ar    1  UNL1        0.0805
      4 C           2.9597   -0.6200   22.4134 C.ar    1  UNL1        0.0590
      5 C           3.9470   -1.7386   22.2581 C.ar    1  UNL1        0.1038
      6 N           4.4180   -2.1343   23.6261 N.ar    1  UNL1       -0.1679
      7 N           3.7218   -1.2603   24.6269 N.ar    1  UNL1       -0.2319
      8 C           3.8962   -1.3130   26.1157 C.3     1  UNL1        0.1554
      9 C           2.8205   -0.3245   23.8773 C.ar    1  UNL1        0.1639
     10 N           1.8911    0.7586   24.3387 N.ar    1  UNL1       -0.1928
     11 C           4.3862   -2.3535   20.9623 C.ar    1  UNL1        0.0194
     12 C           5.5672   -1.7916   20.2278 C.ar    1  UNL1        0.0016
     13 C           6.0063   -2.4065   18.9320 C.ar    1  UNL1        0.0000
     14 C           5.2645   -3.5832   18.3707 C.ar    1  UNL1        0.0000
     15 C           4.0834   -4.1451   19.1053 C.ar    1  UNL1        0.0000
     16 C           3.6443   -3.5302   20.4010 C.ar    1  UNL1        0.0016
     17 C           2.3086   -0.1281   19.9467 C.3     1  UNL1        0.4189
     18 F           2.4479   -0.4236   18.4828 F       1  UNL1       -0.1659
     19 F           3.4477    0.8439   19.8589 F       1  UNL1       -0.1659
     20 F           1.1695   -1.1000   20.0346 F       1  UNL1       -0.1659
     21 O           0.1713    2.6294   23.7975 O.3     1  UNL1       -0.4501
     22 C          -0.9287    2.3114   24.7665 C.3     1  UNL1        0.2910
     23 N           0.6968    2.5217   26.7823 N.am    1  UNL1       -0.3022
     24 C          -0.7009    2.4755   26.2400 C.2     1  UNL1        0.2671
     25 O          -1.8710    2.5935   27.1712 O.2     1  UNL1       -0.2711
     26 H           1.4648    2.4443   26.1712 H       1  UNL1        0.1495
     27 C           0.9245    2.6859   28.2558 C.3     1  UNL1        0.0823
     28 C           0.5724    3.9789   28.9297 C.3     1  UNL1        0.0220
     29 C          -0.5448   -0.1533   28.9115 C.3     1  UNL1        0.0496
     30 C           0.8290    0.2520   29.3569 C.2     1  UNL1        0.0652
     31 N           1.7686   -0.5766   30.1818 N.2     1  UNL1       -0.1569
     32 N           3.0248    0.2163   30.3903 N.2     1  UNL1       -0.1569
     33 C           2.8615    1.5349   29.6941 C.2     1  UNL1        0.0652
     34 C           3.8769    2.6379   29.6452 C.3     1  UNL1        0.0496
     35 C           1.5044    1.5569   29.0555 C.3     1  UNL1        0.0935
@<TRIPOS>BOND
     1    29    30    1
     2    30    31    2
     3    31    32    1
     4    32    33    2
     5    33    34    1
     6    33    35    1
     7    35    27    1
     8    27    28    1
     9    27    23    1
    10    23    24   am
    11    24    25    2
    12    24    22    1
    13    22    21    1
    14    21     1    1
    15     1     2   ar
    16     2     3   ar
    17     3    17    1
    18    17    18    1
    19    17    19    1
    20    17    20    1
    21     3     4   ar
    22     4     5   ar
    23     5    11    1
    24    11    12   ar
    25    12    13   ar
    26    13    14   ar
    27    14    15   ar
    28    15    16   ar
    29     5     6   ar
    30     6     7   ar
    31     7     8    1
    32     7     9   ar
    33     9    10   ar
    34    35    30    1
    35    10     1   ar
    36     9     4   ar
    37    16    11   ar
    38    23    26    1
@<TRIPOS>MOLECULE
*****
 35 38 0 0 0
SMALL
GASTEIGER

@<TRIPOS>ATOM
      1 C           6.1103   -3.4508   23.0209 C.ar    1  UNL1        0.2266
      2 C           5.4473   -2.1298   23.2765 C.ar    1  UNL1        0.0617
      3 C           4.4855   -1.5667   22.2726 C.ar    1  UNL1        0.0805
      4 C           4.1868   -2.3245   21.0131 C.ar    1  UNL1        0.0590
      5 C           3.2897   -2.0232   19.8492 C.ar    1  UNL1        0.1038
      6 N           3.3984   -3.1580   18.8743 N.ar    1  UNL1       -0.1679
      7 N           4.3625   -4.1606   19.4357 N.ar    1  UNL1       -0.2319
      8 C           4.7682   -5.4517   18.7888 C.3     1  UNL1        0.1554
      9 C           4.8498   -3.6455   20.7575 C.ar    1  UNL1        0.1639
     10 N           5.8115   -4.2086   21.7614 N.ar    1  UNL1       -0.1928
     11 C           2.4343   -0.8016   19.6885 C.ar    1  UNL1        0.0194
     12 C           2.8997    0.3313   18.8223 C.ar    1  UNL1        0.0016
     13 C           2.0442    1.5528   18.6617 C.ar    1  UNL1        0.0000
     14 C           0.7234    1.6416   19.3671 C.ar    1  UNL1        0.0000
     15 C           0.2580    0.5088   20.2332 C.ar    1  UNL1        0.0000
     16 C           1.1135   -0.7127   20.3939 C.ar    1  UNL1        0.0016
     17 C           3.8225   -0.2456   22.5282 C.3     1  UNL1        0.4189
     18 F           3.1595    1.0754   22.7837 F       1  UNL1       -0.1659
     19 F           4.8566    0.4369   21.6827 F       1  UNL1       -0.1659
     20 F           2.7884   -0.9281   23.3736 F       1  UNL1       -0.1659
     21 O           7.0721   -4.0140   24.0249 O.3     1  UNL1       -0.4501
     22 C           6.5637   -4.5597   25.3263 C.3     1  UNL1        0.2910
     23 N           6.5958   -3.6934   27.7755 N.am    1  UNL1       -0.3022
     24 C           7.3112   -4.2856   26.5977 C.2     1  UNL1        0.2671
     25 O           8.7741   -4.6037   26.6911 O.2     1  UNL1       -0.2711
     26 H           5.6356   -3.4846   27.7142 H       1  UNL1        0.1495
     27 C           7.3432   -3.4193   29.0468 C.3     1  UNL1        0.0823
     28 C           8.3682   -2.3251   29.0932 C.3     1  UNL1        0.0220
     29 C           8.0358   -6.5849   29.4333 C.3     1  UNL1        0.0496
     30 C           7.3841   -5.6945   30.4494 C.2     1  UNL1        0.0652
     31 N           6.9363   -6.1028   31.8215 N.2     1  UNL1       -0.1569
     32 N           6.3411   -4.9002   32.4919 N.2     1  UNL1       -0.1569
     33 C           6.4211   -3.7486   31.5341 C.2     1  UNL1        0.0652
     34 C           5.9409   -2.3513   31.7931 C.3     1  UNL1        0.0496
     35 C           7.0657   -4.2395   30.2717 C.3     1  UNL1        0.0935
@<TRIPOS>BOND
     1    29    30    1
     2    30    31    2
     3    31    32    1
     4    32    33    2
     5    33    34    1
     6    33    35    1
     7    35    27    1
     8    27    28    1
     9    27    23    1
    10    23    24   am
    11    24    25    2
    12    24    22    1
    13    22    21    1
    14    21     1    1
    15     1     2   ar
    16     2     3   ar
    17     3    17    1
    18    17    18    1
    19    17    19    1
    20    17    20    1
    21     3     4   ar
    22     4     5   ar
    23     5    11    1
    24    11    12   ar
    25    12    13   ar
    26    13    14   ar
    27    14    15   ar
    28    15    16   ar
    29     5     6   ar
    30     6     7   ar
    31     7     8    1
    32     7     9   ar
    33     9    10   ar
    34    35    30    1
    35    10     1   ar
    36     9     4   ar
    37    16    11   ar
    38    23    26    1
@<TRIPOS>MOLECULE
*****
 35 38 0 0 0
SMALL
GASTEIGER

@<TRIPOS>ATOM
      1 C         -15.6045   -1.6484   19.6047 C.ar    1  UNL1        0.2266
      2 C         -15.4631   -3.1299   19.7924 C.ar    1  UNL1        0.0617
      3 C         -14.2312   -3.8333   19.3049 C.ar    1  UNL1        0.0805
      4 C         -13.1409   -3.0554   18.6297 C.ar    1  UNL1        0.0590
      5 C         -11.8221   -3.4724   18.0492 C.ar    1  UNL1        0.1038
      6 N         -11.1485   -2.2486   17.5027 N.ar    1  UNL1       -0.1679
      7 N         -12.0511   -1.0753   17.7455 N.ar    1  UNL1       -0.2319
      8 C         -11.7714    0.3469   17.3595 C.3     1  UNL1        0.1554
      9 C         -13.2824   -1.5739   18.4419 C.ar    1  UNL1        0.1639
     10 N         -14.5142   -0.8705   18.9295 N.ar    1  UNL1       -0.1928
     11 C         -11.2732   -4.8680   18.0203 C.ar    1  UNL1        0.0194
     12 C         -11.7213   -5.8283   16.9587 C.ar    1  UNL1        0.0016
     13 C         -11.1724   -7.2239   16.9299 C.ar    1  UNL1        0.0000
     14 C         -10.1755   -7.6593   17.9626 C.ar    1  UNL1        0.0000
     15 C          -9.7274   -6.6990   19.0243 C.ar    1  UNL1        0.0000
     16 C         -10.2763   -5.3034   19.0531 C.ar    1  UNL1        0.0016
     17 C         -14.0897   -5.3149   19.4927 C.3     1  UNL1        0.4189
     18 F         -13.9482   -6.7963   19.6803 F       1  UNL1       -0.1659
     19 F         -14.7589   -5.5463   18.1703 F       1  UNL1       -0.1659
     20 F         -13.4205   -5.0834   20.8150 F       1  UNL1       -0.1659
     21 O         -16.8364   -0.9449   20.0922 O.3     1  UNL1       -0.4501
     22 C         -17.1714    0.4238   19.5782 C.3     1  UNL1        0.2910
     23 N         -17.0746    2.9857   19.9996 N.am    1  UNL1       -0.3022
     24 C         -17.2236    1.5878   20.5229 C.2     1  UNL1        0.2671
     25 O         -17.4249    1.3539   21.9908 O.2     1  UNL1       -0.2711
     26 H         -16.9426    3.1392   19.0362 H       1  UNL1        0.1495
     27 C         -17.1268    4.1496   20.9443 C.3     1  UNL1        0.0823
     28 C         -18.4458    4.7712   21.2964 C.3     1  UNL1        0.0220
     29 C         -14.7858    5.7509   19.3303 C.3     1  UNL1        0.0496
     30 C         -14.7840    5.4280   20.7951 C.2     1  UNL1        0.0652
     31 N         -13.7059    5.7844   21.7752 N.2     1  UNL1       -0.1569
     32 N         -14.1156    5.2687   23.1229 N.2     1  UNL1       -0.1569
     33 C         -15.4470    4.5935   22.9756 C.2     1  UNL1        0.0652
     34 C         -16.2281    3.9354   24.0742 C.3     1  UNL1        0.0496
     35 C         -15.8601    4.6920   21.5370 C.3     1  UNL1        0.0935
@<TRIPOS>BOND
     1    29    30    1
     2    30    31    2
     3    31    32    1
     4    32    33    2
     5    33    34    1
     6    33    35    1
     7    35    27    1
     8    27    28    1
     9    27    23    1
    10    23    24   am
    11    24    25    2
    12    24    22    1
    13    22    21    1
    14    21     1    1
    15     1     2   ar
    16     2     3   ar
    17     3    17    1
    18    17    18    1
    19    17    19    1
    20    17    20    1
    21     3     4   ar
    22     4     5   ar
    23     5    11    1
    24    11    12   ar
    25    12    13   ar
    26    13    14   ar
    27    14    15   ar
    28    15    16   ar
    29     5     6   ar
    30     6     7   ar
    31     7     8    1
    32     7     9   ar
    33     9    10   ar
    34    35    30    1
    35    10     1   ar
    36     9     4   ar
    37    16    11   ar
    38    23    26    1
@<TRIPOS>MOLECULE
*****
 35 38 0 0 0
SMALL
GASTEIGER

@<TRIPOS>ATOM
      1 C           7.3524   -5.1415   24.6036 C.ar    1  UNL1        0.2266
      2 C           7.1514   -3.8945   25.4125 C.ar    1  UNL1        0.0617
      3 C           7.3478   -3.9252   26.8993 C.ar    1  UNL1        0.0805
      4 C           7.7452   -5.2029   27.5771 C.ar    1  UNL1        0.0590
      5 C           8.0092   -5.5360   29.0157 C.ar    1  UNL1        0.1038
      6 N           8.3733   -6.9889   29.0958 N.ar    1  UNL1       -0.1679
      7 N           8.3344   -7.5537   27.7067 N.ar    1  UNL1       -0.2319
      8 C           8.6315   -8.9732   27.3235 C.3     1  UNL1        0.1554
      9 C           7.9462   -6.4500   26.7681 C.ar    1  UNL1        0.1639
     10 N           7.7498   -6.4193   25.2814 N.ar    1  UNL1       -0.1928
     11 C           7.9240   -4.5833   30.1712 C.ar    1  UNL1        0.0194
     12 C           6.6169   -4.3757   30.8773 C.ar    1  UNL1        0.0016
     13 C           6.5318   -3.4231   32.0327 C.ar    1  UNL1        0.0000
     14 C           7.7537   -2.6781   32.4822 C.ar    1  UNL1        0.0000
     15 C           9.0607   -2.8857   31.7761 C.ar    1  UNL1        0.0000
     16 C           9.1459   -3.8383   30.6206 C.ar    1  UNL1        0.0016
     17 C           7.1468   -2.6781   27.7083 C.3     1  UNL1        0.4189
     18 F           6.9459   -1.4310   28.5172 F       1  UNL1       -0.1659
     19 F           8.5943   -2.3282   27.5285 F       1  UNL1       -0.1659
     20 F           5.6994   -3.0279   27.8881 F       1  UNL1       -0.1659
     21 O           7.1560   -5.1109   23.1168 O.3     1  UNL1       -0.4501
     22 C           6.8617   -3.8125   22.4258 C.3     1  UNL1        0.2910
     23 N           5.4863   -2.8760   20.4304 N.am    1  UNL1       -0.3022
     24 C           5.5446   -3.6114   21.7365 C.2     1  UNL1        0.2671
     25 O           4.2860   -4.1456   22.3533 O.2     1  UNL1       -0.2711
     26 H           6.3123   -2.5254   20.0256 H       1  UNL1        0.1495
     27 C           4.1693   -2.6749   19.7412 C.3     1  UNL1        0.0823
     28 C           3.4379   -3.8502   19.1635 C.3     1  UNL1        0.0220
     29 C           3.9136   -0.9149   17.0050 C.3     1  UNL1        0.0496
     30 C           3.4661   -0.4895   18.3720 C.2     1  UNL1        0.0652
     31 N           2.8224    0.8196   18.7213 N.2     1  UNL1       -0.1569
     32 N           2.5421    0.8197   20.1950 N.2     1  UNL1       -0.1569
     33 C           3.0125   -0.4893   20.7563 C.2     1  UNL1        0.0652
     34 C           2.9270   -0.9146   22.1923 C.3     1  UNL1        0.0496
     35 C           3.5836   -1.2984   19.6297 C.3     1  UNL1        0.0935
@<TRIPOS>BOND
     1    29    30    1
     2    30    31    2
     3    31    32    1
     4    32    33    2
     5    33    34    1
     6    33    35    1
     7    35    27    1
     8    27    28    1
     9    27    23    1
    10    23    24   am
    11    24    25    2
    12    24    22    1
    13    22    21    1
    14    21     1    1
    15     1     2   ar
    16     2     3   ar
    17     3    17    1
    18    17    18    1
    19    17    19    1
    20    17    20    1
    21     3     4   ar
    22     4     5   ar
    23     5    11    1
    24    11    12   ar
    25    12    13   ar
    26    13    14   ar
    27    14    15   ar
    28    15    16   ar
    29     5     6   ar
    30     6     7   ar
    31     7     8    1
    32     7     9   ar
    33     9    10   ar
    34    35    30    1
    35    10     1   ar
    36     9     4   ar
    37    16    11   ar
    38    23    26    1
@<TRIPOS>MOLECULE
*****
 35 38 0 0 0
SMALL
GASTEIGER

@<TRIPOS>ATOM
      1 C           4.9406   -1.2306   26.1918 C.ar    1  UNL1        0.2266
      2 C           4.4174   -0.7017   24.8894 C.ar    1  UNL1        0.0617
      3 C           4.7219   -1.4235   23.6102 C.ar    1  UNL1        0.0805
      4 C           5.5495   -2.6743   23.6335 C.ar    1  UNL1        0.0590
      5 C           6.0094   -3.5940   22.5414 C.ar    1  UNL1        0.1038
      6 N           6.8168   -4.6914   23.1689 N.ar    1  UNL1       -0.1679
      7 N           6.8559   -4.4499   24.6488 N.ar    1  UNL1       -0.2319
      8 C           7.5555   -5.3049   25.6635 C.3     1  UNL1        0.1554
      9 C           6.0727   -3.2033   24.9360 C.ar    1  UNL1        0.1639
     10 N           5.7682   -2.4814   26.2151 N.ar    1  UNL1       -0.1928
     11 C           5.7137   -3.4428   21.0786 C.ar    1  UNL1        0.0194
     12 C           6.6735   -2.7065   20.1916 C.ar    1  UNL1        0.0016
     13 C           6.3778   -2.5554   18.7289 C.ar    1  UNL1        0.0000
     14 C           5.1224   -3.1405   18.1531 C.ar    1  UNL1        0.0000
     15 C           4.1626   -3.8768   19.0401 C.ar    1  UNL1        0.0000
     16 C           4.4583   -4.0279   20.5028 C.ar    1  UNL1        0.0016
     17 C           4.1987   -0.8945   22.3077 C.3     1  UNL1        0.4189
     18 F           3.6755   -0.3655   21.0052 F       1  UNL1       -0.1659
     19 F           5.5087   -0.2069   22.0608 F       1  UNL1       -0.1659
     20 F           2.8886   -1.5821   22.5546 F       1  UNL1       -0.1659
     21 O           4.6362   -0.5088   27.4710 O.3     1  UNL1       -0.4501
     22 C           3.7647   -1.1542   28.5073 C.3     1  UNL1        0.2910
     23 N           1.5828    0.0557   27.7823 N.am    1  UNL1       -0.3022
     24 C           2.4391   -0.5456   28.8571 C.2     1  UNL1        0.2671
     25 O           1.9697   -0.5383   30.2818 O.2     1  UNL1       -0.2711
     26 H           1.8909    0.0509   26.8473 H       1  UNL1        0.1495
     27 C           0.2573    0.6643   28.1322 C.3     1  UNL1        0.0823
     28 C          -0.8876   -0.2150   28.5397 C.3     1  UNL1        0.0220
     29 C           1.1473    2.7955   30.4378 C.3     1  UNL1        0.0496
     30 C           0.4856    3.1319   29.1343 C.2     1  UNL1        0.0652
     31 N           0.1168    4.5069   28.6618 N.2     1  UNL1       -0.1569
     32 N          -0.5202    4.3772   27.3099 N.2     1  UNL1       -0.1569
     33 C          -0.5451    2.9219   26.9471 C.2     1  UNL1        0.0652
     34 C          -1.0951    2.3387   25.6792 C.3     1  UNL1        0.0496
     35 C           0.0765    2.1523   28.0746 C.3     1  UNL1        0.0935
@<TRIPOS>BOND
     1    29    30    1
     2    30    31    2
     3    31    32    1
     4    32    33    2
     5    33    34    1
     6    33    35    1
     7    35    27    1
     8    27    28    1
     9    27    23    1
    10    23    24   am
    11    24    25    2
    12    24    22    1
    13    22    21    1
    14    21     1    1
    15     1     2   ar
    16     2     3   ar
    17     3    17    1
    18    17    18    1
    19    17    19    1
    20    17    20    1
    21     3     4   ar
    22     4     5   ar
    23     5    11    1
    24    11    12   ar
    25    12    13   ar
    26    13    14   ar
    27    14    15   ar
    28    15    16   ar
    29     5     6   ar
    30     6     7   ar
    31     7     8    1
    32     7     9   ar
    33     9    10   ar
    34    35    30    1
    35    10     1   ar
    36     9     4   ar
    37    16    11   ar
    38    23    26    1
@<TRIPOS>MOLECULE
*****
 35 38 0 0 0
SMALL
GASTEIGER

@<TRIPOS>ATOM
      1 C           0.8402    3.2347   20.1344 C.ar    1  UNL1        0.2266
      2 C           1.5040    2.5311   18.9880 C.ar    1  UNL1        0.0617
      3 C           2.2703    1.2642   19.2280 C.ar    1  UNL1        0.0805
      4 C           2.3729    0.7010   20.6145 C.ar    1  UNL1        0.0590
      5 C           3.0552   -0.5215   21.1532 C.ar    1  UNL1        0.1038
      6 N           2.8131   -0.5733   22.6326 N.ar    1  UNL1       -0.1679
      7 N           1.9812    0.6170   23.0082 N.ar    1  UNL1       -0.2319
      8 C           1.5049    0.9597   24.3886 C.3     1  UNL1        0.1554
      9 C           1.7092    1.4046   21.7609 C.ar    1  UNL1        0.1639
     10 N           0.9428    2.6714   21.5209 N.ar    1  UNL1       -0.1928
     11 C           3.8415   -1.5172   20.3531 C.ar    1  UNL1        0.0194
     12 C           3.1477   -2.6876   19.7216 C.ar    1  UNL1        0.0016
     13 C           3.9340   -3.6832   18.9214 C.ar    1  UNL1        0.0000
     14 C           5.4142   -3.5085   18.7527 C.ar    1  UNL1        0.0000
     15 C           6.1081   -2.3381   19.3842 C.ar    1  UNL1        0.0000
     16 C           5.3217   -1.3425   20.1844 C.ar    1  UNL1        0.0016
     17 C           2.9342    0.5606   18.0816 C.3     1  UNL1        0.4189
     18 F           3.5980   -0.1430   16.9352 F       1  UNL1       -0.1659
     19 F           4.2254    1.2518   18.4050 F       1  UNL1       -0.1659
     20 F           1.6429   -0.1307   17.7581 F       1  UNL1       -0.1659
     21 O           0.0738    4.5017   19.8944 O.3     1  UNL1       -0.4501
     22 C          -1.0442    4.8881   20.8168 C.3     1  UNL1        0.2910
     23 N          -3.6043    5.0628   20.4100 N.am    1  UNL1       -0.3022
     24 C          -2.3864    4.2314   20.6847 C.2     1  UNL1        0.2671
     25 O          -2.5106    2.7434   20.8273 O.2     1  UNL1       -0.2711
     26 H          -3.5228    6.0394   20.3164 H       1  UNL1        0.1495
     27 C          -4.9464    4.4061   20.2779 C.3     1  UNL1        0.0823
     28 C          -5.2534    3.5619   19.0766 C.3     1  UNL1        0.0220
     29 C          -7.6000    6.2942   20.0688 C.3     1  UNL1        0.0496
     30 C          -7.2013    5.4614   21.2510 C.2     1  UNL1        0.0652
     31 N          -7.9524    5.3504   22.5446 N.2     1  UNL1       -0.1569
     32 N          -7.1969    4.4138   23.4403 N.2     1  UNL1       -0.1569
     33 C          -5.9789    3.9462   22.7002 C.2     1  UNL1        0.0652
     34 C          -4.9404    2.9975   23.2216 C.3     1  UNL1        0.0496
     35 C          -5.9816    4.5936   21.3471 C.3     1  UNL1        0.0935
@<TRIPOS>BOND
     1    29    30    1
     2    30    31    2
     3    31    32    1
     4    32    33    2
     5    33    34    1
     6    33    35    1
     7    35    27    1
     8    27    28    1
     9    27    23    1
    10    23    24   am
    11    24    25    2
    12    24    22    1
    13    22    21    1
    14    21     1    1
    15     1     2   ar
    16     2     3   ar
    17     3    17    1
    18    17    18    1
    19    17    19    1
    20    17    20    1
    21     3     4   ar
    22     4     5   ar
    23     5    11    1
    24    11    12   ar
    25    12    13   ar
    26    13    14   ar
    27    14    15   ar
    28    15    16   ar
    29     5     6   ar
    30     6     7   ar
    31     7     8    1
    32     7     9   ar
    33     9    10   ar
    34    35    30    1
    35    10     1   ar
    36     9     4   ar
    37    16    11   ar
    38    23    26    1
