@<TRIPOS>MOLECULE
*****
 34 37 0 0 0
SMALL
GASTEIGER

@<TRIPOS>ATOM
      1 N           2.8727    1.6948   19.2936 N.am    1  UNL1       -0.2683
      2 C           1.4130    1.9426   19.0530 C.2     1  UNL1        0.3047
      3 O           0.5272    0.8214   18.5965 O.2     1  UNL1       -0.2525
      4 N           0.8390    3.3115   19.2689 N.am    1  UNL1       -0.2863
      5 H           3.4541    2.4307   19.5932 H       1  UNL1        0.1564
      6 H           1.4204    4.0474   19.5685 H       1  UNL1        0.1512
      7 C          -0.6207    3.5592   19.0283 C.3     1  UNL1        0.1020
      8 C          -1.1248    3.7737   17.6320 C.3     1  UNL1        0.0642
      9 C          -2.5846    4.0214   17.3914 C.3     1  UNL1        0.1353
     10 C          -3.8671    4.2899   16.6613 C.3     1  UNL1        0.0437
     11 C          -2.0745    4.0814   15.9821 C.3     1  UNL1        0.0437
     12 O          -3.5401    4.0546   18.5472 O.3     1  UNL1       -0.4805
     13 C          -3.0359    3.8402   19.9436 C.ar    1  UNL1        0.1629
     14 C          -1.5762    3.5925   20.1841 C.ar    1  UNL1        0.0319
     15 C          -1.0721    3.3780   21.5805 C.ar    1  UNL1        0.0004
     16 C          -2.0275    3.4113   22.7363 C.ar    1  UNL1        0.0061
     17 C          -3.4872    3.6590   22.4957 C.ar    1  UNL1        0.1018
     18 C          -3.9914    3.8734   21.0993 C.ar    1  UNL1        0.1774
     19 F          -5.4512    4.1211   20.8588 F       1  UNL1       -0.2010
     20 C          -4.4428    3.6922   23.6515 C.3     1  UNL1        0.4208
     21 F          -5.3984    3.7255   24.8072 F       1  UNL1       -0.1658
     22 F          -3.8035    4.9567   24.1437 F       1  UNL1       -0.1658
     23 F          -5.0821    2.4278   23.1593 F       1  UNL1       -0.1658
     24 C           3.0946   -0.6254   24.1739 C.3     1  UNL1        0.0521
     25 C           3.4695   -1.0720   22.7919 C.ar    1  UNL1        0.0594
     26 C           3.2706   -0.1498   21.6258 C.ar    1  UNL1        0.0160
     27 C           3.6456   -0.5964   20.2438 C.ar    1  UNL1        0.0162
     28 C           3.4466    0.3259   19.0777 C.ar    1  UNL1        0.0516
     29 C           3.8216   -0.1207   17.6957 C.ar    1  UNL1        0.0147
     30 C           4.3956   -1.4897   17.4798 C.ar    1  UNL1        0.0013
     31 C           4.5945   -2.4120   18.6459 C.ar    1  UNL1        0.0016
     32 C           4.2195   -1.9653   20.0279 C.ar    1  UNL1        0.0204
     33 C           4.4185   -2.8876   21.1940 C.ar    1  UNL1        0.0984
     34 N           4.0435   -2.4409   22.5760 N.ar    1  UNL1       -0.2481
@<TRIPOS>BOND
     1    24    25    1
     2    25    26   ar
     3    26    27   ar
     4    27    28   ar
     5    28     1    1
     6     1     2   am
     7     2     3    2
     8     2     4   am
     9     7     4    1
    10     7     8    1
    11     8     9    1
    12     9    10    1
    13     9    11    1
    14     9    12    1
    15    12    13    1
    16    13    14   ar
    17    14    15   ar
    18    15    16   ar
    19    16    17   ar
    20    17    20    1
    21    20    21    1
    22    20    22    1
    23    20    23    1
    24    17    18   ar
    25    18    19    1
    26    28    29   ar
    27    29    30   ar
    28    30    31   ar
    29    31    32   ar
    30    32    33   ar
    31    33    34   ar
    32    34    25   ar
    33    32    27   ar
    34    14     7    1
    35    18    13   ar
    36     1     5    1
    37     4     6    1
@<TRIPOS>MOLECULE
*****
 34 37 0 0 0
SMALL
GASTEIGER

@<TRIPOS>ATOM
      1 N           3.0331    1.5471   20.1594 N.am    1  UNL1       -0.2683
      2 C           1.5973    1.8156   19.8180 C.2     1  UNL1        0.3047
      3 O           0.6764    0.6754   19.4992 O.2     1  UNL1       -0.2525
      4 N           1.0826    3.2243   19.7954 N.am    1  UNL1       -0.2863
      5 H           3.6376    2.2955   20.3686 H       1  UNL1        0.1564
      6 H           1.6871    3.9727   20.0047 H       1  UNL1        0.1512
      7 C          -0.3531    3.4928   19.4541 C.3     1  UNL1        0.1020
      8 C          -0.7579    3.7012   18.0248 C.3     1  UNL1        0.0642
      9 C          -2.1937    3.9697   17.6835 C.3     1  UNL1        0.1353
     10 C          -3.4192    4.2512   16.8656 C.3     1  UNL1        0.0437
     11 C          -1.5884    4.0074   16.3116 C.3     1  UNL1        0.0437
     12 O          -3.2247    4.0297   18.7714 O.3     1  UNL1       -0.4805
     13 C          -2.8199    3.8213   20.2006 C.ar    1  UNL1        0.1629
     14 C          -1.3842    3.5528   20.5420 C.ar    1  UNL1        0.0319
     15 C          -0.9794    3.3444   21.9712 C.ar    1  UNL1        0.0004
     16 C          -2.0103    3.4045   23.0591 C.ar    1  UNL1        0.0061
     17 C          -3.4460    3.6729   22.7177 C.ar    1  UNL1        0.1018
     18 C          -3.8508    3.8813   21.2885 C.ar    1  UNL1        0.1774
     19 F          -5.2867    4.1498   20.9471 F       1  UNL1       -0.2010
     20 C          -4.4771    3.7330   23.8056 C.3     1  UNL1        0.4208
     21 F          -5.5080    3.7931   24.8935 F       1  UNL1       -0.1658
     22 F          -5.0159    2.4031   23.3685 F       1  UNL1       -0.1658
     23 F          -3.9383    5.0628   24.2427 F       1  UNL1       -0.1658
     24 C           6.6183    1.1955   16.1254 C.3     1  UNL1        0.0521
     25 C           6.1081    0.2268   17.1508 C.ar    1  UNL1        0.0594
     26 C           5.0831    0.6669   18.1536 C.ar    1  UNL1        0.0160
     27 C           4.5729   -0.3017   19.1790 C.ar    1  UNL1        0.0162
     28 C           3.5479    0.1384   20.1819 C.ar    1  UNL1        0.0516
     29 C           3.0377   -0.8302   21.2073 C.ar    1  UNL1        0.0147
     30 C           3.5525   -2.2390   21.2298 C.ar    1  UNL1        0.0013
     31 C           4.5774   -2.6790   20.2270 C.ar    1  UNL1        0.0016
     32 C           5.0877   -1.7104   19.2016 C.ar    1  UNL1        0.0204
     33 C           6.1126   -2.1505   18.1987 C.ar    1  UNL1        0.0984
     34 N           6.6228   -1.1818   17.1733 N.ar    1  UNL1       -0.2481
@<TRIPOS>BOND
     1    24    25    1
     2    25    26   ar
     3    26    27   ar
     4    27    28   ar
     5    28     1    1
     6     1     2   am
     7     2     3    2
     8     2     4   am
     9     7     4    1
    10     7     8    1
    11     8     9    1
    12     9    10    1
    13     9    11    1
    14     9    12    1
    15    12    13    1
    16    13    14   ar
    17    14    15   ar
    18    15    16   ar
    19    16    17   ar
    20    17    20    1
    21    20    21    1
    22    20    22    1
    23    20    23    1
    24    17    18   ar
    25    18    19    1
    26    28    29   ar
    27    29    30   ar
    28    30    31   ar
    29    31    32   ar
    30    32    33   ar
    31    33    34   ar
    32    34    25   ar
    33    32    27   ar
    34    14     7    1
    35    18    13   ar
    36     1     5    1
    37     4     6    1
@<TRIPOS>MOLECULE
*****
 34 37 0 0 0
SMALL
GASTEIGER

@<TRIPOS>ATOM
      1 N          -0.6256    3.8686   24.9337 N.am    1  UNL1       -0.2683
      2 C           0.1222    2.5768   25.0834 C.2     1  UNL1        0.3047
      3 O          -0.6166    1.3184   25.4306 O.2     1  UNL1       -0.2525
      4 N           1.6087    2.5436   24.8858 N.am    1  UNL1       -0.2863
      5 H          -0.1408    4.6945   24.7058 H       1  UNL1        0.1564
      6 H           2.0936    3.3695   24.6579 H       1  UNL1        0.1512
      7 C           2.3564    1.2519   25.0354 C.3     1  UNL1        0.1020
      8 C           2.7847    0.7865   26.3956 C.3     1  UNL1        0.0642
      9 C           3.5325   -0.5053   26.5452 C.3     1  UNL1        0.1353
     10 C           4.2566   -1.6478   27.1934 C.3     1  UNL1        0.0437
     11 C           3.4646   -0.0758   27.9808 C.3     1  UNL1        0.0437
     12 O           3.8519   -1.3315   25.3347 O.3     1  UNL1       -0.4805
     13 C           3.4236   -0.8661   23.9746 C.ar    1  UNL1        0.1629
     14 C           2.6759    0.4256   23.8249 C.ar    1  UNL1        0.0319
     15 C           2.2476    0.8911   22.4648 C.ar    1  UNL1        0.0004
     16 C           2.5670    0.0649   21.2543 C.ar    1  UNL1        0.0061
     17 C           3.3147   -1.2268   21.4040 C.ar    1  UNL1        0.1018
     18 C           3.7430   -1.6923   22.7641 C.ar    1  UNL1        0.1774
     19 F           4.4908   -2.9840   22.9137 F       1  UNL1       -0.2010
     20 C           3.6342   -2.0531   20.1935 C.3     1  UNL1        0.4208
     21 F           3.9536   -2.8794   18.9830 F       1  UNL1       -0.1658
     22 F           5.0941   -1.9829   20.5307 F       1  UNL1       -0.1658
     23 F           2.1743   -2.1234   19.8562 F       1  UNL1       -0.1658
     24 C          -2.8048    3.3706   20.0089 C.3     1  UNL1        0.0521
     25 C          -3.3749    3.5200   21.3883 C.ar    1  UNL1        0.0594
     26 C          -2.4585    3.6362   22.5701 C.ar    1  UNL1        0.0160
     27 C          -3.0286    3.7856   23.9494 C.ar    1  UNL1        0.0162
     28 C          -2.1122    3.9018   25.1313 C.ar    1  UNL1        0.0516
     29 C          -2.6823    4.0512   26.5106 C.ar    1  UNL1        0.0147
     30 C          -4.1689    4.0845   26.7082 C.ar    1  UNL1        0.0013
     31 C          -5.0853    3.9683   25.5264 C.ar    1  UNL1        0.0016
     32 C          -4.5152    3.8189   24.1470 C.ar    1  UNL1        0.0204
     33 C          -5.4316    3.7027   22.9652 C.ar    1  UNL1        0.0984
     34 N          -4.8614    3.5533   21.5859 N.ar    1  UNL1       -0.2481
@<TRIPOS>BOND
     1    24    25    1
     2    25    26   ar
     3    26    27   ar
     4    27    28   ar
     5    28     1    1
     6     1     2   am
     7     2     3    2
     8     2     4   am
     9     7     4    1
    10     7     8    1
    11     8     9    1
    12     9    10    1
    13     9    11    1
    14     9    12    1
    15    12    13    1
    16    13    14   ar
    17    14    15   ar
    18    15    16   ar
    19    16    17   ar
    20    17    20    1
    21    20    21    1
    22    20    22    1
    23    20    23    1
    24    17    18   ar
    25    18    19    1
    26    28    29   ar
    27    29    30   ar
    28    30    31   ar
    29    31    32   ar
    30    32    33   ar
    31    33    34   ar
    32    34    25   ar
    33    32    27   ar
    34    14     7    1
    35    18    13   ar
    36     1     5    1
    37     4     6    1
@<TRIPOS>MOLECULE
*****
 34 37 0 0 0
SMALL
GASTEIGER

@<TRIPOS>ATOM
      1 N           6.5568   -2.1734   22.3988 N.am    1  UNL1       -0.2683
      2 C           6.5602   -3.2966   23.3931 C.2     1  UNL1        0.3047
      3 O           5.6897   -4.4977   23.1707 O.2     1  UNL1       -0.2525
      4 N           7.4342   -3.2186   24.6096 N.am    1  UNL1       -0.2863
      5 H           7.1282   -1.3851   22.5447 H       1  UNL1        0.1564
      6 H           8.0056   -2.4303   24.7556 H       1  UNL1        0.1512
      7 C           7.4376   -4.3417   25.6039 C.3     1  UNL1        0.1020
      8 C           7.6921   -5.7475   25.1465 C.3     1  UNL1        0.0642
      9 C           7.6955   -6.8706   26.1408 C.3     1  UNL1        0.1353
     10 C           7.7986   -8.2594   26.6981 C.3     1  UNL1        0.0437
     11 C           7.9824   -7.6356   24.8828 C.3     1  UNL1        0.0437
     12 O           7.4444   -6.5881   27.5924 O.3     1  UNL1       -0.4805
     13 C           7.1899   -5.1823   28.0497 C.ar    1  UNL1        0.1629
     14 C           7.1865   -4.0592   27.0555 C.ar    1  UNL1        0.0319
     15 C           6.9320   -2.6535   27.5128 C.ar    1  UNL1        0.0004
     16 C           6.6808   -2.3709   28.9644 C.ar    1  UNL1        0.0061
     17 C           6.6842   -3.4940   29.9586 C.ar    1  UNL1        0.1018
     18 C           6.9388   -4.8997   29.5012 C.ar    1  UNL1        0.1774
     19 F           6.9422   -6.0229   30.4956 F       1  UNL1       -0.2010
     20 C           6.4331   -3.2115   31.4102 C.3     1  UNL1        0.4208
     21 F           6.1821   -2.9289   32.8618 F       1  UNL1       -0.1658
     22 F           5.1201   -2.5766   31.0596 F       1  UNL1       -0.1658
     23 F           7.7461   -3.8463   31.7609 F       1  UNL1       -0.1658
     24 C           2.0356    0.5298   23.6241 C.3     1  UNL1        0.0521
     25 C           2.5104   -0.2045   22.4053 C.ar    1  UNL1        0.0594
     26 C           3.8592   -0.8608   22.4031 C.ar    1  UNL1        0.0160
     27 C           4.3340   -1.5951   21.1844 C.ar    1  UNL1        0.0162
     28 C           5.6828   -2.2514   21.1822 C.ar    1  UNL1        0.0516
     29 C           6.1576   -2.9857   19.9635 C.ar    1  UNL1        0.0147
     30 C           5.2836   -3.0637   18.7469 C.ar    1  UNL1        0.0013
     31 C           3.9348   -2.4074   18.7491 C.ar    1  UNL1        0.0016
     32 C           3.4600   -1.6731   19.9678 C.ar    1  UNL1        0.0204
     33 C           2.1113   -1.0168   19.9700 C.ar    1  UNL1        0.0984
     34 N           1.6365   -0.2825   21.1888 N.ar    1  UNL1       -0.2481
@<TRIPOS>BOND
     1    24    25    1
     2    25    26   ar
     3    26    27   ar
     4    27    28   ar
     5    28     1    1
     6     1     2   am
     7     2     3    2
     8     2     4   am
     9     7     4    1
    10     7     8    1
    11     8     9    1
    12     9    10    1
    13     9    11    1
    14     9    12    1
    15    12    13    1
    16    13    14   ar
    17    14    15   ar
    18    15    16   ar
    19    16    17   ar
    20    17    20    1
    21    20    21    1
    22    20    22    1
    23    20    23    1
    24    17    18   ar
    25    18    19    1
    26    28    29   ar
    27    29    30   ar
    28    30    31   ar
    29    31    32   ar
    30    32    33   ar
    31    33    34   ar
    32    34    25   ar
    33    32    27   ar
    34    14     7    1
    35    18    13   ar
    36     1     5    1
    37     4     6    1
@<TRIPOS>MOLECULE
*****
 34 37 0 0 0
SMALL
GASTEIGER

@<TRIPOS>ATOM
      1 N           0.4237    3.5536   19.8423 N.am    1  UNL1       -0.2683
      2 C           1.3977    2.6721   19.1180 C.2     1  UNL1        0.3047
      3 O           0.9664    1.9300   17.8879 O.2     1  UNL1       -0.2525
      4 N           2.8028    2.5328   19.6240 N.am    1  UNL1       -0.2863
      5 H           0.7067    4.0407   20.6497 H       1  UNL1        0.1564
      6 H           3.0859    3.0198   20.4314 H       1  UNL1        0.1512
      7 C           3.7767    1.6513   18.8998 C.3     1  UNL1        0.1020
      8 C           4.8071    2.2578   17.9939 C.3     1  UNL1        0.0642
      9 C           5.7810    1.3762   17.2696 C.3     1  UNL1        0.1353
     10 C           6.9108    0.9616   16.3743 C.3     1  UNL1        0.0437
     11 C           6.2298    2.7201   16.7770 C.3     1  UNL1        0.0437
     12 O           5.7245   -0.1116   17.4513 O.3     1  UNL1       -0.4805
     13 C           4.6942   -0.7180   18.3572 C.ar    1  UNL1        0.1629
     14 C           3.7203    0.1634   19.0814 C.ar    1  UNL1        0.0319
     15 C           2.6899   -0.4430   19.9873 C.ar    1  UNL1        0.0004
     16 C           2.6335   -1.9309   20.1689 C.ar    1  UNL1        0.0061
     17 C           3.6074   -2.8123   19.4447 C.ar    1  UNL1        0.1018
     18 C           4.6377   -2.2059   18.5388 C.ar    1  UNL1        0.1774
     19 F           5.6117   -3.0874   17.8146 F       1  UNL1       -0.2010
     20 C           3.5509   -4.3003   19.6264 C.3     1  UNL1        0.4208
     21 F           3.4946   -5.7881   19.8080 F       1  UNL1       -0.1658
     22 F           2.4533   -4.3831   18.6075 F       1  UNL1       -0.1658
     23 F           4.6486   -4.2175   20.6453 F       1  UNL1       -0.1658
     24 C          -2.7606    3.4573   24.2128 C.3     1  UNL1        0.0521
     25 C          -3.0184    3.5859   22.7407 C.ar    1  UNL1        0.0594
     26 C          -1.8711    3.5751   21.7746 C.ar    1  UNL1        0.0160
     27 C          -2.1289    3.7037   20.3025 C.ar    1  UNL1        0.0162
     28 C          -0.9815    3.6929   19.3363 C.ar    1  UNL1        0.0516
     29 C          -1.2393    3.8215   17.8643 C.ar    1  UNL1        0.0147
     30 C          -2.6446    3.9609   17.3583 C.ar    1  UNL1        0.0013
     31 C          -3.7919    3.9717   18.3245 C.ar    1  UNL1        0.0016
     32 C          -3.5341    3.8431   19.7965 C.ar    1  UNL1        0.0204
     33 C          -4.6814    3.8538   20.7627 C.ar    1  UNL1        0.0984
     34 N          -4.4236    3.7253   22.2347 N.ar    1  UNL1       -0.2481
@<TRIPOS>BOND
     1    24    25    1
     2    25    26   ar
     3    26    27   ar
     4    27    28   ar
     5    28     1    1
     6     1     2   am
     7     2     3    2
     8     2     4   am
     9     7     4    1
    10     7     8    1
    11     8     9    1
    12     9    10    1
    13     9    11    1
    14     9    12    1
    15    12    13    1
    16    13    14   ar
    17    14    15   ar
    18    15    16   ar
    19    16    17   ar
    20    17    20    1
    21    20    21    1
    22    20    22    1
    23    20    23    1
    24    17    18   ar
    25    18    19    1
    26    28    29   ar
    27    29    30   ar
    28    30    31   ar
    29    31    32   ar
    30    32    33   ar
    31    33    34   ar
    32    34    25   ar
    33    32    27   ar
    34    14     7    1
    35    18    13   ar
    36     1     5    1
    37     4     6    1
@<TRIPOS>MOLECULE
*****
 34 37 0 0 0
SMALL
GASTEIGER

@<TRIPOS>ATOM
      1 N           0.2440    3.2817   21.5561 N.am    1  UNL1       -0.2683
      2 C           0.8465    2.0199   22.0993 C.2     1  UNL1        0.3047
      3 O          -0.0363    0.8618   22.4592 O.2     1  UNL1       -0.2525
      4 N           2.3316    1.9163   22.2827 N.am    1  UNL1       -0.2863
      5 H           0.8234    4.0418   21.3198 H       1  UNL1        0.1564
      6 H           2.9110    2.6764   22.0464 H       1  UNL1        0.1512
      7 C           2.9340    0.6546   22.8259 C.3     1  UNL1        0.1020
      8 C           3.2179    0.5304   24.2935 C.3     1  UNL1        0.0642
      9 C           3.8203   -0.7314   24.8368 C.3     1  UNL1        0.1353
     10 C           4.3795   -1.7169   25.8196 C.3     1  UNL1        0.0437
     11 C           3.6960    0.0639   26.1025 C.3     1  UNL1        0.0437
     12 O           4.1387   -1.8689   23.9124 O.3     1  UNL1       -0.4805
     13 C           3.8548   -1.7448   22.4447 C.ar    1  UNL1        0.1629
     14 C           3.2524   -0.4830   21.9015 C.ar    1  UNL1        0.0319
     15 C           2.9685   -0.3588   20.4338 C.ar    1  UNL1        0.0004
     16 C           3.2869   -1.4964   19.5094 C.ar    1  UNL1        0.0061
     17 C           3.8893   -2.7581   20.0527 C.ar    1  UNL1        0.1018
     18 C           4.1732   -2.8823   21.5203 C.ar    1  UNL1        0.1774
     19 F           4.7756   -4.1441   22.0635 F       1  UNL1       -0.2010
     20 C           4.2078   -3.8957   19.1283 C.3     1  UNL1        0.4208
     21 F           4.5263   -5.0333   18.2039 F       1  UNL1       -0.1658
     22 F           2.7809   -4.3528   19.1991 F       1  UNL1       -0.1658
     23 F           5.6346   -3.4386   19.0574 F       1  UNL1       -0.1658
     24 C          -1.8527    3.7277   26.5214 C.3     1  UNL1        0.0521
     25 C          -2.4424    3.6939   25.1426 C.ar    1  UNL1        0.0594
     26 C          -1.5469    3.5565   23.9471 C.ar    1  UNL1        0.0160
     27 C          -2.1366    3.5227   22.5683 C.ar    1  UNL1        0.0162
     28 C          -1.2411    3.3853   21.3727 C.ar    1  UNL1        0.0516
     29 C          -1.8307    3.3516   19.9939 C.ar    1  UNL1        0.0147
     30 C          -3.3159    3.4552   19.8106 C.ar    1  UNL1        0.0013
     31 C          -4.2114    3.5926   21.0061 C.ar    1  UNL1        0.0016
     32 C          -3.6217    3.6264   22.3849 C.ar    1  UNL1        0.0204
     33 C          -4.5172    3.7637   23.5804 C.ar    1  UNL1        0.0984
     34 N          -3.9275    3.7975   24.9593 N.ar    1  UNL1       -0.2481
@<TRIPOS>BOND
     1    24    25    1
     2    25    26   ar
     3    26    27   ar
     4    27    28   ar
     5    28     1    1
     6     1     2   am
     7     2     3    2
     8     2     4   am
     9     7     4    1
    10     7     8    1
    11     8     9    1
    12     9    10    1
    13     9    11    1
    14     9    12    1
    15    12    13    1
    16    13    14   ar
    17    14    15   ar
    18    15    16   ar
    19    16    17   ar
    20    17    20    1
    21    20    21    1
    22    20    22    1
    23    20    23    1
    24    17    18   ar
    25    18    19    1
    26    28    29   ar
    27    29    30   ar
    28    30    31   ar
    29    31    32   ar
    30    32    33   ar
    31    33    34   ar
    32    34    25   ar
    33    32    27   ar
    34    14     7    1
    35    18    13   ar
    36     1     5    1
    37     4     6    1
@<TRIPOS>MOLECULE
*****
 34 37 0 0 0
SMALL
GASTEIGER

@<TRIPOS>ATOM
      1 N           3.8933   -0.6038   27.6835 N.am    1  UNL1       -0.2683
      2 C           3.5276   -0.2100   26.2830 C.2     1  UNL1        0.3047
      3 O           3.0066    1.1686   26.0034 O.2     1  UNL1       -0.2525
      4 N           3.6829   -1.1946   25.1622 N.am    1  UNL1       -0.2863
      5 H           4.2352   -1.5086   27.8670 H       1  UNL1        0.1564
      6 H           4.0249   -2.0994   25.3457 H       1  UNL1        0.1512
      7 C           3.3172   -0.8007   23.7618 C.3     1  UNL1        0.1020
      8 C           2.6429    0.5142   23.5044 C.3     1  UNL1        0.0642
      9 C           2.2773    0.9081   22.1039 C.3     1  UNL1        0.1353
     10 C           1.7396    1.7198   20.9629 C.3     1  UNL1        0.0437
     11 C           1.7819    2.1110   22.8506 C.3     1  UNL1        0.0437
     12 O           2.5859   -0.0130   20.9610 O.3     1  UNL1       -0.4805
     13 C           3.2602   -1.3279   21.2184 C.ar    1  UNL1        0.1629
     14 C           3.6259   -1.7218   22.6188 C.ar    1  UNL1        0.0319
     15 C           4.3002   -3.0367   22.8762 C.ar    1  UNL1        0.0004
     16 C           4.6088   -3.9578   21.7333 C.ar    1  UNL1        0.0061
     17 C           4.2432   -3.5639   20.3329 C.ar    1  UNL1        0.1018
     18 C           3.5689   -2.2490   20.0755 C.ar    1  UNL1        0.1774
     19 F           3.2032   -1.8551   18.6750 F       1  UNL1       -0.2010
     20 C           4.5518   -4.4850   19.1898 C.3     1  UNL1        0.4208
     21 F           4.8604   -5.4060   18.0469 F       1  UNL1       -0.1658
     22 F           5.6748   -3.5847   18.7675 F       1  UNL1       -0.1658
     23 F           3.4288   -5.3852   19.6121 F       1  UNL1       -0.1658
     24 C          -1.3885   -0.4666   28.8383 C.3     1  UNL1        0.0521
     25 C          -0.1846    0.2376   29.3902 C.ar    1  UNL1        0.0594
     26 C           1.1747   -0.0429   28.8213 C.ar    1  UNL1        0.0160
     27 C           2.3786    0.6613   29.3732 C.ar    1  UNL1        0.0162
     28 C           3.7379    0.3808   28.8043 C.ar    1  UNL1        0.0516
     29 C           4.9419    1.0850   29.3562 C.ar    1  UNL1        0.0147
     30 C           4.7865    2.0698   30.4771 C.ar    1  UNL1        0.0013
     31 C           3.4272    2.3502   31.0460 C.ar    1  UNL1        0.0016
     32 C           2.2233    1.6460   30.4940 C.ar    1  UNL1        0.0204
     33 C           0.8640    1.9264   31.0629 C.ar    1  UNL1        0.0984
     34 N          -0.3399    1.2222   30.5110 N.ar    1  UNL1       -0.2481
@<TRIPOS>BOND
     1    24    25    1
     2    25    26   ar
     3    26    27   ar
     4    27    28   ar
     5    28     1    1
     6     1     2   am
     7     2     3    2
     8     2     4   am
     9     7     4    1
    10     7     8    1
    11     8     9    1
    12     9    10    1
    13     9    11    1
    14     9    12    1
    15    12    13    1
    16    13    14   ar
    17    14    15   ar
    18    15    16   ar
    19    16    17   ar
    20    17    20    1
    21    20    21    1
    22    20    22    1
    23    20    23    1
    24    17    18   ar
    25    18    19    1
    26    28    29   ar
    27    29    30   ar
    28    30    31   ar
    29    31    32   ar
    30    32    33   ar
    31    33    34   ar
    32    34    25   ar
    33    32    27   ar
    34    14     7    1
    35    18    13   ar
    36     1     5    1
    37     4     6    1
@<TRIPOS>MOLECULE
*****
 34 37 0 0 0
SMALL
GASTEIGER

@<TRIPOS>ATOM
      1 N           4.1719    0.6139   26.7388 N.am    1  UNL1       -0.2683
      2 C           4.5040   -0.6621   27.4541 C.2     1  UNL1        0.3047
      3 O           3.4825   -1.7563   27.5493 O.2     1  UNL1       -0.2525
      4 N           5.8577   -0.8438   28.0742 N.am    1  UNL1       -0.2863
      5 H           4.8423    1.3321   26.6763 H       1  UNL1        0.1564
      6 H           6.5282   -0.1256   28.0117 H       1  UNL1        0.1512
      7 C           6.1898   -2.1197   28.7895 C.3     1  UNL1        0.1020
      8 C           6.1317   -2.1768   30.2873 C.3     1  UNL1        0.0642
      9 C           6.4638   -3.4529   31.0026 C.3     1  UNL1        0.1353
     10 C           6.6874   -4.4224   32.1251 C.3     1  UNL1        0.0437
     11 C           6.1513   -2.5708   32.1749 C.3     1  UNL1        0.0437
     12 O           6.8540   -4.6716   30.2201 O.3     1  UNL1       -0.4805
     13 C           6.9121   -4.6145   28.7223 C.ar    1  UNL1        0.1629
     14 C           6.5800   -3.3385   28.0070 C.ar    1  UNL1        0.0319
     15 C           6.6381   -3.2814   26.5092 C.ar    1  UNL1        0.0004
     16 C           7.0283   -4.5001   25.7268 C.ar    1  UNL1        0.0061
     17 C           7.3604   -5.7761   26.4420 C.ar    1  UNL1        0.1018
     18 C           7.3023   -5.8332   27.9398 C.ar    1  UNL1        0.1774
     19 F           7.6344   -7.1092   28.6551 F       1  UNL1       -0.2010
     20 C           7.7506   -6.9949   25.6596 C.3     1  UNL1        0.4208
     21 F           8.1408   -8.2137   24.8771 F       1  UNL1       -0.1658
     22 F           6.5669   -7.7303   26.2146 F       1  UNL1       -0.1658
     23 F           8.9343   -6.2596   25.1045 F       1  UNL1       -0.1658
     24 C           0.8245    1.8881   30.7911 C.3     1  UNL1        0.0521
     25 C           0.6461    1.7058   29.3130 C.ar    1  UNL1        0.0594
     26 C           1.8213    1.3418   28.4549 C.ar    1  UNL1        0.0160
     27 C           1.6429    1.1596   26.9768 C.ar    1  UNL1        0.0162
     28 C           2.8182    0.7956   26.1187 C.ar    1  UNL1        0.0516
     29 C           2.6398    0.6133   24.6405 C.ar    1  UNL1        0.0147
     30 C           1.2860    0.7950   24.0205 C.ar    1  UNL1        0.0013
     31 C           0.1108    1.1589   24.8785 C.ar    1  UNL1        0.0016
     32 C           0.2892    1.3412   26.3567 C.ar    1  UNL1        0.0204
     33 C          -0.8860    1.7052   27.2147 C.ar    1  UNL1        0.0984
     34 N          -0.7076    1.8875   28.6929 N.ar    1  UNL1       -0.2481
@<TRIPOS>BOND
     1    24    25    1
     2    25    26   ar
     3    26    27   ar
     4    27    28   ar
     5    28     1    1
     6     1     2   am
     7     2     3    2
     8     2     4   am
     9     7     4    1
    10     7     8    1
    11     8     9    1
    12     9    10    1
    13     9    11    1
    14     9    12    1
    15    12    13    1
    16    13    14   ar
    17    14    15   ar
    18    15    16   ar
    19    16    17   ar
    20    17    20    1
    21    20    21    1
    22    20    22    1
    23    20    23    1
    24    17    18   ar
    25    18    19    1
    26    28    29   ar
    27    29    30   ar
    28    30    31   ar
    29    31    32   ar
    30    32    33   ar
    31    33    34   ar
    32    34    25   ar
    33    32    27   ar
    34    14     7    1
    35    18    13   ar
    36     1     5    1
    37     4     6    1
@<TRIPOS>MOLECULE
*****
 34 37 0 0 0
SMALL
GASTEIGER

@<TRIPOS>ATOM
      1 N           1.3783    2.4005   19.8613 N.am    1  UNL1       -0.2683
      2 C          -0.0924    2.4110   20.1563 C.2     1  UNL1        0.3047
      3 O          -0.8109    1.1238   20.4339 O.2     1  UNL1       -0.2525
      4 N          -0.8446    3.7086   20.1738 N.am    1  UNL1       -0.2863
      5 H           1.8498    3.2453   19.6791 H       1  UNL1        0.1564
      6 H          -0.3731    4.5534   19.9916 H       1  UNL1        0.1512
      7 C          -2.3153    3.7190   20.4688 C.3     1  UNL1        0.1020
      8 C          -3.3062    3.6556   19.3446 C.3     1  UNL1        0.0642
      9 C          -4.7769    3.6660   19.6397 C.3     1  UNL1        0.1353
     10 C          -6.2598    3.6487   19.4146 C.3     1  UNL1        0.0437
     11 C          -4.8123    3.5861   18.1422 C.3     1  UNL1        0.0437
     12 O          -5.2566    3.7399   21.0589 O.3     1  UNL1       -0.4805
     13 C          -4.2656    3.8034   22.1832 C.ar    1  UNL1        0.1629
     14 C          -2.7950    3.7929   21.8882 C.ar    1  UNL1        0.0319
     15 C          -1.8040    3.8564   23.0124 C.ar    1  UNL1        0.0004
     16 C          -2.2837    3.9303   24.4317 C.ar    1  UNL1        0.0061
     17 C          -3.7543    3.9407   24.7267 C.ar    1  UNL1        0.1018
     18 C          -4.7453    3.8773   23.6025 C.ar    1  UNL1        0.1774
     19 F          -6.2160    3.8877   23.8976 F       1  UNL1       -0.2010
     20 C          -4.2340    4.0146   26.1461 C.3     1  UNL1        0.4208
     21 F          -4.7137    4.0885   27.5654 F       1  UNL1       -0.1658
     22 F          -5.2380    5.0573   25.7525 F       1  UNL1       -0.1658
     23 F          -3.2301    2.9720   26.5397 F       1  UNL1       -0.1658
     24 C           2.0031    0.9592   25.0364 C.3     1  UNL1        0.0521
     25 C           2.4111    0.3463   23.7295 C.ar    1  UNL1        0.0594
     26 C           2.0668    1.0310   22.4401 C.ar    1  UNL1        0.0160
     27 C           2.4747    0.4181   21.1332 C.ar    1  UNL1        0.0162
     28 C           2.1305    1.1029   19.8438 C.ar    1  UNL1        0.0516
     29 C           2.5384    0.4900   18.5369 C.ar    1  UNL1        0.0147
     30 C           3.2906   -0.8077   18.5195 C.ar    1  UNL1        0.0013
     31 C           3.6349   -1.4925   19.8089 C.ar    1  UNL1        0.0016
     32 C           3.2269   -0.8795   21.1158 C.ar    1  UNL1        0.0204
     33 C           3.5712   -1.5643   22.4052 C.ar    1  UNL1        0.0984
     34 N           3.1632   -0.9514   23.7120 N.ar    1  UNL1       -0.2481
@<TRIPOS>BOND
     1    24    25    1
     2    25    26   ar
     3    26    27   ar
     4    27    28   ar
     5    28     1    1
     6     1     2   am
     7     2     3    2
     8     2     4   am
     9     7     4    1
    10     7     8    1
    11     8     9    1
    12     9    10    1
    13     9    11    1
    14     9    12    1
    15    12    13    1
    16    13    14   ar
    17    14    15   ar
    18    15    16   ar
    19    16    17   ar
    20    17    20    1
    21    20    21    1
    22    20    22    1
    23    20    23    1
    24    17    18   ar
    25    18    19    1
    26    28    29   ar
    27    29    30   ar
    28    30    31   ar
    29    31    32   ar
    30    32    33   ar
    31    33    34   ar
    32    34    25   ar
    33    32    27   ar
    34    14     7    1
    35    18    13   ar
    36     1     5    1
    37     4     6    1
