@<TRIPOS>MOLECULE
*****
 27 30 0 0 0
SMALL
GASTEIGER

@<TRIPOS>ATOM
      1 C          -4.3740  -16.7243   23.7272 C.ar    1  UNL1        0.0153
      2 C          -5.3471  -15.5913   23.5876 C.ar    1  UNL1        0.0043
      3 C          -6.0345  -15.0392   24.8010 C.ar    1  UNL1        0.0369
      4 C          -5.7489  -15.6201   26.1541 C.ar    1  UNL1        0.1386
      5 C          -4.7758  -16.7530   26.2938 C.ar    1  UNL1        0.0369
      6 C          -4.0883  -17.3052   25.0803 C.ar    1  UNL1        0.0043
      7 C          -0.4832  -16.5456   20.2877 C.3     1  UNL1        0.1428
      8 N          -1.7411  -17.1870   20.7940 N.am    1  UNL1       -0.1793
      9 N          -2.4286  -16.6350   22.0074 N.2     1  UNL1       -0.1801
     10 C          -3.6865  -17.2764   22.5137 C.2     1  UNL1        0.0766
     11 C          -4.2569  -18.4698   21.8063 C.3     1  UNL1        0.0505
     12 C          -5.4733  -19.3067   22.0709 C.3     1  UNL1        0.0065
     13 C          -5.5376  -20.3759   21.0209 C.3     1  UNL1        0.0009
     14 C          -4.3609  -20.1999   20.1073 C.3     1  UNL1        0.0095
     15 C          -3.5694  -19.0218   20.5928 C.3     1  UNL1        0.0840
     16 C          -2.3115  -18.3804   20.0866 C.2     1  UNL1        0.2442
     17 O          -1.6240  -18.9324   18.8731 O.2     1  UNL1       -0.2731
     18 O          -6.4364  -15.0679   27.3676 O.3     1  UNL1       -0.4754
     19 C          -7.9001  -15.3178   27.5792 C.3     1  UNL1        0.2068
     20 C          -8.5600  -16.5007   26.9347 C.3     1  UNL1        0.0646
     21 C          -9.1056  -16.3886   25.5420 C.3     1  UNL1        0.0759
     22 N          -9.3186  -17.6239   24.7182 N.3     1  UNL1       -0.2726
     23 C          -8.8556  -17.6633   23.2920 C.3     1  UNL1        0.0721
     24 C          -9.0686  -18.8986   22.4682 C.3     1  UNL1        0.0174
     25 C          -9.7446  -20.0946   23.0706 C.3     1  UNL1        0.0029
     26 C         -10.2076  -20.0551   24.4968 C.3     1  UNL1        0.0174
     27 C          -9.9946  -18.8197   25.3206 C.3     1  UNL1        0.0721
@<TRIPOS>BOND
     1     7     8    1
     2     8     9    1
     3     9    10    2
     4    10     1    1
     5     1     2   ar
     6     2     3   ar
     7     3     4   ar
     8     4    18    1
     9    18    19    1
    10    19    20    1
    11    20    21    1
    12    21    22    1
    13    22    23    1
    14    23    24    1
    15    24    25    1
    16    25    26    1
    17    26    27    1
    18     4     5   ar
    19     5     6   ar
    20    10    11    1
    21    11    12    1
    22    12    13    1
    23    13    14    1
    24    14    15    1
    25    15    16    1
    26    16    17    2
    27    16     8   am
    28     6     1   ar
    29    15    11    1
    30    27    22    1
@<TRIPOS>MOLECULE
*****
 27 30 0 0 0
SMALL
GASTEIGER

@<TRIPOS>ATOM
      1 C          -7.4046  -17.5031   22.4614 C.ar    1  UNL1        0.0153
      2 C          -8.3709  -17.3481   21.3247 C.ar    1  UNL1        0.0043
      3 C          -9.7106  -16.7157   21.5602 C.ar    1  UNL1        0.0369
      4 C         -10.0838  -16.2384   22.9323 C.ar    1  UNL1        0.1386
      5 C          -9.1174  -16.3934   24.0690 C.ar    1  UNL1        0.0369
      6 C          -7.7778  -17.0257   23.8336 C.ar    1  UNL1        0.0043
      7 C          -2.2759  -17.6203   23.2883 C.3     1  UNL1        0.1428
      8 N          -3.5006  -18.1940   22.6394 N.am    1  UNL1       -0.1793
      9 N          -4.8402  -17.5617   22.8748 N.2     1  UNL1       -0.1801
     10 C          -6.0649  -18.1355   22.2259 C.2     1  UNL1        0.0766
     11 C          -5.9498  -19.3415   21.3415 C.3     1  UNL1        0.0505
     12 C          -6.9731  -20.1233   20.5723 C.3     1  UNL1        0.0065
     13 C          -6.2658  -21.2389   19.8615 C.3     1  UNL1        0.0009
     14 C          -4.8054  -21.1465   20.1913 C.3     1  UNL1        0.0095
     15 C          -4.6101  -19.9738   21.1060 C.3     1  UNL1        0.0840
     16 C          -3.3855  -19.4001   21.7550 C.2     1  UNL1        0.2442
     17 O          -2.0458  -20.0324   21.5195 O.2     1  UNL1       -0.2731
     18 O         -11.4235  -15.6060   23.1678 O.3     1  UNL1       -0.4754
     19 C         -12.5634  -15.8951   22.2367 C.3     1  UNL1        0.2068
     20 C         -13.2447  -17.2308   22.2772 C.3     1  UNL1        0.0646
     21 C         -13.0653  -18.1285   23.4653 C.3     1  UNL1        0.0759
     22 N         -11.8126  -18.9410   23.6091 N.3     1  UNL1       -0.2726
     23 C         -11.1718  -19.0993   24.9561 C.3     1  UNL1        0.0721
     24 C          -9.9191  -19.9117   25.0999 C.3     1  UNL1        0.0174
     25 C          -9.3072  -20.5659   23.8966 C.3     1  UNL1        0.0029
     26 C          -9.9480  -20.4076   22.5497 C.3     1  UNL1        0.0174
     27 C         -11.2007  -19.5951   22.4060 C.3     1  UNL1        0.0721
@<TRIPOS>BOND
     1     7     8    1
     2     8     9    1
     3     9    10    2
     4    10     1    1
     5     1     2   ar
     6     2     3   ar
     7     3     4   ar
     8     4    18    1
     9    18    19    1
    10    19    20    1
    11    20    21    1
    12    21    22    1
    13    22    23    1
    14    23    24    1
    15    24    25    1
    16    25    26    1
    17    26    27    1
    18     4     5   ar
    19     5     6   ar
    20    10    11    1
    21    11    12    1
    22    12    13    1
    23    13    14    1
    24    14    15    1
    25    15    16    1
    26    16    17    2
    27    16     8   am
    28     6     1   ar
    29    15    11    1
    30    27    22    1
@<TRIPOS>MOLECULE
*****
 27 30 0 0 0
SMALL
GASTEIGER

@<TRIPOS>ATOM
      1 C         -14.3721   -6.1852   18.5980 C.ar    1  UNL1        0.0153
      2 C         -13.3205   -5.8173   19.6022 C.ar    1  UNL1        0.0043
      3 C         -11.8754   -5.7945   19.2008 C.ar    1  UNL1        0.0369
      4 C         -11.4820   -6.1397   17.7951 C.ar    1  UNL1        0.1386
      5 C         -12.5337   -6.5076   16.7908 C.ar    1  UNL1        0.0369
      6 C         -13.9788   -6.5303   17.1922 C.ar    1  UNL1        0.0043
      7 C         -18.7896   -3.6607   19.6535 C.3     1  UNL1        0.1428
      8 N         -18.0259   -4.9457   19.5272 N.am    1  UNL1       -0.1793
      9 N         -16.5809   -4.9230   19.1257 N.2     1  UNL1       -0.1801
     10 C         -15.8173   -6.2079   18.9995 C.2     1  UNL1        0.0766
     11 C         -16.4988   -7.5155   19.2747 C.3     1  UNL1        0.0505
     12 C         -16.0072   -8.9320   19.2324 C.3     1  UNL1        0.0065
     13 C         -17.1484   -9.8301   19.6078 C.3     1  UNL1        0.0009
     14 C         -18.3454   -8.9687   19.8821 C.3     1  UNL1        0.0095
     15 C         -17.9439   -7.5381   19.6762 C.3     1  UNL1        0.0840
     16 C         -18.7075   -6.2532   19.8024 C.2     1  UNL1        0.2442
     17 O         -20.1526   -6.2759   20.2039 O.2     1  UNL1       -0.2731
     18 O         -10.0369   -6.1169   17.3937 O.3     1  UNL1       -0.4754
     19 C          -9.2511   -4.8431   17.4922 C.3     1  UNL1        0.2068
     20 C          -9.2278   -3.8850   16.3383 C.3     1  UNL1        0.0646
     21 C          -9.9723   -2.5858   16.4271 C.3     1  UNL1        0.0759
     22 N         -11.2850   -2.5215   17.1500 N.3     1  UNL1       -0.2726
     23 C         -11.3231   -2.1581   18.6048 C.3     1  UNL1        0.0721
     24 C         -12.6358   -2.0938   19.3278 C.3     1  UNL1        0.0174
     25 C         -13.9106   -2.3929   18.5958 C.3     1  UNL1        0.0029
     26 C         -13.8725   -2.7563   17.1410 C.3     1  UNL1        0.0174
     27 C         -12.5598   -2.8206   16.4181 C.3     1  UNL1        0.0721
@<TRIPOS>BOND
     1     7     8    1
     2     8     9    1
     3     9    10    2
     4    10     1    1
     5     1     2   ar
     6     2     3   ar
     7     3     4   ar
     8     4    18    1
     9    18    19    1
    10    19    20    1
    11    20    21    1
    12    21    22    1
    13    22    23    1
    14    23    24    1
    15    24    25    1
    16    25    26    1
    17    26    27    1
    18     4     5   ar
    19     5     6   ar
    20    10    11    1
    21    11    12    1
    22    12    13    1
    23    13    14    1
    24    14    15    1
    25    15    16    1
    26    16    17    2
    27    16     8   am
    28     6     1   ar
    29    15    11    1
    30    27    22    1
@<TRIPOS>MOLECULE
*****
 27 30 0 0 0
SMALL
GASTEIGER

@<TRIPOS>ATOM
      1 C          -6.6545  -18.1290   22.6663 C.ar    1  UNL1        0.0153
      2 C          -7.6693  -19.2330   22.6318 C.ar    1  UNL1        0.0043
      3 C          -9.0225  -19.0274   23.2456 C.ar    1  UNL1        0.0369
      4 C          -9.3607  -17.7178   23.8939 C.ar    1  UNL1        0.1386
      5 C          -8.3459  -16.6138   23.9285 C.ar    1  UNL1        0.0369
      6 C          -6.9927  -16.8193   23.3146 C.ar    1  UNL1        0.0043
      7 C          -1.7363  -16.5916   21.9962 C.3     1  UNL1        0.1428
      8 N          -2.8423  -17.5659   21.7174 N.am    1  UNL1       -0.1793
      9 N          -4.1954  -17.3603   22.3312 N.2     1  UNL1       -0.1801
     10 C          -5.3013  -18.3346   22.0525 C.2     1  UNL1        0.0766
     11 C          -5.0541  -19.5145   21.1599 C.3     1  UNL1        0.0505
     12 C          -5.9438  -20.6338   20.7064 C.3     1  UNL1        0.0065
     13 C          -5.1404  -21.5312   19.8123 C.3     1  UNL1        0.0009
     14 C          -3.7543  -20.9665   19.7132 C.3     1  UNL1        0.0095
     15 C          -3.7009  -19.7201   20.5461 C.3     1  UNL1        0.0840
     16 C          -2.5951  -18.7458   20.8249 C.2     1  UNL1        0.2442
     17 O          -1.2419  -18.9514   20.2111 O.2     1  UNL1       -0.2731
     18 O         -10.7138  -17.5122   24.5077 O.3     1  UNL1       -0.4754
     19 C         -11.6025  -18.6903   24.7760 C.3     1  UNL1        0.2068
     20 C         -13.0458  -18.6492   24.3693 C.3     1  UNL1        0.0646
     21 C         -13.4771  -17.7859   23.2210 C.3     1  UNL1        0.0759
     22 N         -12.5793  -17.6167   22.0312 N.3     1  UNL1       -0.2726
     23 C         -12.2435  -16.2418   21.5345 C.3     1  UNL1        0.0721
     24 C         -11.3457  -16.0726   20.3448 C.3     1  UNL1        0.0174
     25 C         -10.7838  -17.2785   19.6517 C.3     1  UNL1        0.0029
     26 C         -11.1196  -18.6534   20.1484 C.3     1  UNL1        0.0174
     27 C         -12.0174  -18.8225   21.3382 C.3     1  UNL1        0.0721
@<TRIPOS>BOND
     1     7     8    1
     2     8     9    1
     3     9    10    2
     4    10     1    1
     5     1     2   ar
     6     2     3   ar
     7     3     4   ar
     8     4    18    1
     9    18    19    1
    10    19    20    1
    11    20    21    1
    12    21    22    1
    13    22    23    1
    14    23    24    1
    15    24    25    1
    16    25    26    1
    17    26    27    1
    18     4     5   ar
    19     5     6   ar
    20    10    11    1
    21    11    12    1
    22    12    13    1
    23    13    14    1
    24    14    15    1
    25    15    16    1
    26    16    17    2
    27    16     8   am
    28     6     1   ar
    29    15    11    1
    30    27    22    1
@<TRIPOS>MOLECULE
*****
 27 30 0 0 0
SMALL
GASTEIGER

@<TRIPOS>ATOM
      1 C          -6.2683  -18.9557   20.7187 C.ar    1  UNL1        0.0153
      2 C          -6.9563  -19.0380   22.0491 C.ar    1  UNL1        0.0043
      3 C          -8.4112  -19.3960   22.1203 C.ar    1  UNL1        0.0369
      4 C          -9.1781  -19.6718   20.8610 C.ar    1  UNL1        0.1386
      5 C          -8.4901  -19.5894   19.5306 C.ar    1  UNL1        0.0369
      6 C          -7.0352  -19.2314   19.4595 C.ar    1  UNL1        0.0043
      7 C          -1.9738  -18.1098   17.9183 C.3     1  UNL1        0.1428
      8 N          -2.6662  -18.1747   19.2475 N.am    1  UNL1       -0.1793
      9 N          -4.1210  -18.5327   19.3186 N.2     1  UNL1       -0.1801
     10 C          -4.8134  -18.5976   20.6477 C.2     1  UNL1        0.0766
     11 C          -4.0508  -18.3044   21.9056 C.3     1  UNL1        0.0505
     12 C          -4.4618  -18.2897   23.3481 C.3     1  UNL1        0.0065
     13 C          -3.2609  -17.9225   24.1685 C.3     1  UNL1        0.0009
     14 C          -2.1077  -17.7103   23.2331 C.3     1  UNL1        0.0095
     15 C          -2.5959  -17.9463   21.8345 C.3     1  UNL1        0.0840
     16 C          -1.9036  -17.8815   20.5054 C.2     1  UNL1        0.2442
     17 O          -0.4487  -17.5234   20.4343 O.2     1  UNL1       -0.2731
     18 O         -10.6330  -20.0298   20.9321 O.3     1  UNL1       -0.4754
     19 C         -11.6617  -18.9546   21.1204 C.3     1  UNL1        0.2068
     20 C         -11.4580  -17.6046   20.4991 C.3     1  UNL1        0.0646
     21 C         -11.3004  -16.3939   21.3706 C.3     1  UNL1        0.0759
     22 N         -10.1507  -16.3049   22.3299 N.3     1  UNL1       -0.2726
     23 C          -8.8425  -15.7244   21.8809 C.3     1  UNL1        0.0721
     24 C          -7.6928  -15.6353   22.8403 C.3     1  UNL1        0.0174
     25 C          -7.8513  -16.1268   24.2486 C.3     1  UNL1        0.0029
     26 C          -9.1595  -16.7074   24.6976 C.3     1  UNL1        0.0174
     27 C         -10.3092  -16.7964   23.7382 C.3     1  UNL1        0.0721
@<TRIPOS>BOND
     1     7     8    1
     2     8     9    1
     3     9    10    2
     4    10     1    1
     5     1     2   ar
     6     2     3   ar
     7     3     4   ar
     8     4    18    1
     9    18    19    1
    10    19    20    1
    11    20    21    1
    12    21    22    1
    13    22    23    1
    14    23    24    1
    15    24    25    1
    16    25    26    1
    17    26    27    1
    18     4     5   ar
    19     5     6   ar
    20    10    11    1
    21    11    12    1
    22    12    13    1
    23    13    14    1
    24    14    15    1
    25    15    16    1
    26    16    17    2
    27    16     8   am
    28     6     1   ar
    29    15    11    1
    30    27    22    1
@<TRIPOS>MOLECULE
*****
 27 30 0 0 0
SMALL
GASTEIGER

@<TRIPOS>ATOM
      1 C         -13.9050   -6.9662   18.8377 C.ar    1  UNL1        0.0153
      2 C         -13.5560   -5.7920   19.7033 C.ar    1  UNL1        0.0043
      3 C         -12.2033   -5.1535   19.5913 C.ar    1  UNL1        0.0369
      4 C         -11.1997   -5.6893   18.6137 C.ar    1  UNL1        0.1386
      5 C         -11.5488   -6.8636   17.7481 C.ar    1  UNL1        0.0369
      6 C         -12.9015   -7.5021   17.8601 C.ar    1  UNL1        0.0043
      7 C         -16.8869  -11.2218   18.8336 C.3     1  UNL1        0.1428
      8 N         -16.7486   -9.7325   18.9478 N.am    1  UNL1       -0.1793
      9 N         -15.3960   -9.0940   18.8357 N.2     1  UNL1       -0.1801
     10 C         -15.2578   -7.6047   18.9498 C.2     1  UNL1        0.0766
     11 C         -16.4723   -6.7540   19.1760 C.3     1  UNL1        0.0505
     12 C         -16.6453   -5.2718   19.3282 C.3     1  UNL1        0.0065
     13 C         -18.1049   -4.9943   19.5344 C.3     1  UNL1        0.0009
     14 C         -18.8340   -6.3049   19.5096 C.3     1  UNL1        0.0095
     15 C         -17.8250   -7.3925   19.2881 C.3     1  UNL1        0.0840
     16 C         -17.9632   -8.8817   19.1740 C.2     1  UNL1        0.2442
     17 O         -19.3158   -9.5203   19.2860 O.2     1  UNL1       -0.2731
     18 O          -9.8470   -5.0508   18.5017 O.3     1  UNL1       -0.4754
     19 C          -9.2000   -4.8953   17.1574 C.3     1  UNL1        0.2068
     20 C          -9.7040   -3.8585   16.1978 C.3     1  UNL1        0.0646
     21 C         -10.2584   -2.5642   16.7150 C.3     1  UNL1        0.0759
     22 N         -11.6749   -2.4971   17.2037 N.3     1  UNL1       -0.2726
     23 C         -12.7540   -3.2479   16.4813 C.3     1  UNL1        0.0721
     24 C         -14.1706   -3.1807   16.9700 C.3     1  UNL1        0.0174
     25 C         -14.5081   -2.3627   18.1813 C.3     1  UNL1        0.0029
     26 C         -13.4290   -1.6119   18.9037 C.3     1  UNL1        0.0174
     27 C         -12.0125   -1.6791   18.4149 C.3     1  UNL1        0.0721
@<TRIPOS>BOND
     1     7     8    1
     2     8     9    1
     3     9    10    2
     4    10     1    1
     5     1     2   ar
     6     2     3   ar
     7     3     4   ar
     8     4    18    1
     9    18    19    1
    10    19    20    1
    11    20    21    1
    12    21    22    1
    13    22    23    1
    14    23    24    1
    15    24    25    1
    16    25    26    1
    17    26    27    1
    18     4     5   ar
    19     5     6   ar
    20    10    11    1
    21    11    12    1
    22    12    13    1
    23    13    14    1
    24    14    15    1
    25    15    16    1
    26    16    17    2
    27    16     8   am
    28     6     1   ar
    29    15    11    1
    30    27    22    1
@<TRIPOS>MOLECULE
*****
 27 30 0 0 0
SMALL
GASTEIGER

@<TRIPOS>ATOM
      1 C         -14.9534   -4.9463   18.9528 C.ar    1  UNL1        0.0153
      2 C         -13.8067   -5.0637   19.9127 C.ar    1  UNL1        0.0043
      3 C         -12.6991   -4.0525   19.8851 C.ar    1  UNL1        0.0369
      4 C         -12.7382   -2.9242   18.8976 C.ar    1  UNL1        0.1386
      5 C         -13.8848   -2.8068   17.9378 C.ar    1  UNL1        0.0369
      6 C         -14.9925   -3.8180   17.9654 C.ar    1  UNL1        0.0043
      7 C         -19.9544   -6.1224   19.7322 C.3     1  UNL1        0.1428
      8 N         -18.5615   -6.5455   19.3702 N.am    1  UNL1       -0.1793
      9 N         -17.4540   -5.5344   19.3425 N.2     1  UNL1       -0.1801
     10 C         -16.0611   -5.9575   18.9805 C.2     1  UNL1        0.0766
     11 C         -15.7759   -7.3917   18.6462 C.3     1  UNL1        0.0505
     12 C         -14.5123   -8.0991   18.2554 C.3     1  UNL1        0.0065
     13 C         -14.8390   -9.5473   18.0415 C.3     1  UNL1        0.0009
     14 C         -16.3045   -9.7351   18.3002 C.3     1  UNL1        0.0095
     15 C         -16.8836   -8.4028   18.6739 C.3     1  UNL1        0.0840
     16 C         -18.2764   -7.9797   19.0359 C.2     1  UNL1        0.2442
     17 O         -19.3841   -8.9908   19.0636 O.2     1  UNL1       -0.2731
     18 O         -11.6305   -1.9131   18.8700 O.3     1  UNL1       -0.4754
     19 C         -11.2139   -1.2923   17.5697 C.3     1  UNL1        0.2068
     20 C         -10.6355   -2.1475   16.4815 C.3     1  UNL1        0.0646
     21 C          -9.6193   -3.1993   16.8144 C.3     1  UNL1        0.0759
     22 N         -10.0664   -4.5581   17.2659 N.3     1  UNL1       -0.2726
     23 C          -9.5146   -5.1477   18.5299 C.3     1  UNL1        0.0721
     24 C          -9.9618   -6.5064   18.9813 C.3     1  UNL1        0.0174
     25 C         -10.9608   -7.2756   18.1687 C.3     1  UNL1        0.0029
     26 C         -11.5127   -6.6860   16.9046 C.3     1  UNL1        0.0174
     27 C         -11.0655   -5.3272   16.4533 C.3     1  UNL1        0.0721
@<TRIPOS>BOND
     1     7     8    1
     2     8     9    1
     3     9    10    2
     4    10     1    1
     5     1     2   ar
     6     2     3   ar
     7     3     4   ar
     8     4    18    1
     9    18    19    1
    10    19    20    1
    11    20    21    1
    12    21    22    1
    13    22    23    1
    14    23    24    1
    15    24    25    1
    16    25    26    1
    17    26    27    1
    18     4     5   ar
    19     5     6   ar
    20    10    11    1
    21    11    12    1
    22    12    13    1
    23    13    14    1
    24    14    15    1
    25    15    16    1
    26    16    17    2
    27    16     8   am
    28     6     1   ar
    29    15    11    1
    30    27    22    1
@<TRIPOS>MOLECULE
*****
 27 30 0 0 0
SMALL
GASTEIGER

@<TRIPOS>ATOM
      1 C         -14.5677   -5.4014   18.7866 C.ar    1  UNL1        0.0153
      2 C         -13.4620   -5.3398   19.7984 C.ar    1  UNL1        0.0043
      3 C         -12.5451   -4.1532   19.8360 C.ar    1  UNL1        0.0369
      4 C         -12.7340   -3.0284   18.8619 C.ar    1  UNL1        0.1386
      5 C         -13.8397   -3.0900   17.8501 C.ar    1  UNL1        0.0369
      6 C         -14.7566   -4.2766   17.8125 C.ar    1  UNL1        0.0043
      7 C         -15.3236  -10.4808   17.9932 C.3     1  UNL1        0.1428
      8 N         -15.8624   -9.1277   18.3524 N.am    1  UNL1       -0.1793
      9 N         -14.9457   -7.9411   18.3899 N.2     1  UNL1       -0.1801
     10 C         -15.4845   -6.5880   18.7491 C.2     1  UNL1        0.0766
     11 C         -16.9402   -6.4217   19.0706 C.3     1  UNL1        0.0505
     12 C         -17.7520   -5.2207   19.4559 C.3     1  UNL1        0.0065
     13 C         -19.1706   -5.6651   19.6565 C.3     1  UNL1        0.0009
     14 C         -19.2354   -7.1407   19.3951 C.3     1  UNL1        0.0095
     15 C         -17.8570   -7.6083   19.0330 C.3     1  UNL1        0.0840
     16 C         -17.3181   -8.9614   18.6739 C.2     1  UNL1        0.2442
     17 O         -18.2348  -10.1480   18.6363 O.2     1  UNL1       -0.2731
     18 O         -11.8171   -1.8418   18.8995 O.3     1  UNL1       -0.4754
     19 C         -11.0808   -1.4233   17.6616 C.3     1  UNL1        0.2068
     20 C         -10.6921   -2.4482   16.6375 C.3     1  UNL1        0.0646
     21 C          -9.7140   -3.5288   16.9916 C.3     1  UNL1        0.0759
     22 N         -10.2008   -4.9212   17.2642 N.3     1  UNL1       -0.2726
     23 C         -11.2904   -5.5134   16.4203 C.3     1  UNL1        0.0721
     24 C         -11.7772   -6.9058   16.6928 C.3     1  UNL1        0.0174
     25 C         -11.1744   -7.7060   17.8093 C.3     1  UNL1        0.0029
     26 C         -10.0848   -7.1138   18.6531 C.3     1  UNL1        0.0174
     27 C          -9.5981   -5.7214   18.3805 C.3     1  UNL1        0.0721
@<TRIPOS>BOND
     1     7     8    1
     2     8     9    1
     3     9    10    2
     4    10     1    1
     5     1     2   ar
     6     2     3   ar
     7     3     4   ar
     8     4    18    1
     9    18    19    1
    10    19    20    1
    11    20    21    1
    12    21    22    1
    13    22    23    1
    14    23    24    1
    15    24    25    1
    16    25    26    1
    17    26    27    1
    18     4     5   ar
    19     5     6   ar
    20    10    11    1
    21    11    12    1
    22    12    13    1
    23    13    14    1
    24    14    15    1
    25    15    16    1
    26    16    17    2
    27    16     8   am
    28     6     1   ar
    29    15    11    1
    30    27    22    1
@<TRIPOS>MOLECULE
*****
 27 30 0 0 0
SMALL
GASTEIGER

@<TRIPOS>ATOM
      1 C         -15.1831   -4.8745   18.4378 C.ar    1  UNL1        0.0153
      2 C         -16.0355   -5.2354   19.6182 C.ar    1  UNL1        0.0043
      3 C         -17.5264   -5.3102   19.4717 C.ar    1  UNL1        0.0369
      4 C         -18.1649   -5.0242   18.1449 C.ar    1  UNL1        0.1386
      5 C         -17.3125   -4.6633   16.9646 C.ar    1  UNL1        0.0369
      6 C         -15.8215   -4.5884   17.1110 C.ar    1  UNL1        0.0043
      7 C         -10.5821   -7.2450   18.8989 C.3     1  UNL1        0.1428
      8 N         -11.3917   -5.9849   18.8149 N.am    1  UNL1       -0.1793
      9 N         -12.8825   -6.0597   18.6684 N.2     1  UNL1       -0.1801
     10 C         -13.6921   -4.7996   18.5844 C.2     1  UNL1        0.0766
     11 C         -13.0106   -3.4649   18.6470 C.3     1  UNL1        0.0505
     12 C         -13.5416   -2.0632   18.5900 C.3     1  UNL1        0.0065
     13 C         -12.3789   -1.1222   18.7013 C.3     1  UNL1        0.0009
     14 C         -11.1292   -1.9422   18.8271 C.3     1  UNL1        0.0095
     15 C         -11.5196   -3.3901   18.7936 C.3     1  UNL1        0.0840
     16 C         -10.7102   -4.6502   18.8775 C.2     1  UNL1        0.2442
     17 O          -9.2192   -4.5754   19.0241 O.2     1  UNL1       -0.2731
     18 O         -19.6559   -5.0990   17.9984 O.3     1  UNL1       -0.4754
     19 C         -20.2864   -6.2935   17.3462 C.3     1  UNL1        0.2068
     20 C         -20.4628   -7.5656   18.1214 C.3     1  UNL1        0.0646
     21 C         -19.6135   -8.7607   17.8046 C.3     1  UNL1        0.0759
     22 N         -18.1589   -8.7655   18.1708 N.3     1  UNL1       -0.2726
     23 C         -17.7399   -9.0876   19.5746 C.3     1  UNL1        0.0721
     24 C         -16.2853   -9.0924   19.9407 C.3     1  UNL1        0.0174
     25 C         -15.2496   -8.7750   18.9030 C.3     1  UNL1        0.0029
     26 C         -15.6686   -8.4528   17.4992 C.3     1  UNL1        0.0174
     27 C         -17.1233   -8.4481   17.1331 C.3     1  UNL1        0.0721
@<TRIPOS>BOND
     1     7     8    1
     2     8     9    1
     3     9    10    2
     4    10     1    1
     5     1     2   ar
     6     2     3   ar
     7     3     4   ar
     8     4    18    1
     9    18    19    1
    10    19    20    1
    11    20    21    1
    12    21    22    1
    13    22    23    1
    14    23    24    1
    15    24    25    1
    16    25    26    1
    17    26    27    1
    18     4     5   ar
    19     5     6   ar
    20    10    11    1
    21    11    12    1
    22    12    13    1
    23    13    14    1
    24    14    15    1
    25    15    16    1
    26    16    17    2
    27    16     8   am
    28     6     1   ar
    29    15    11    1
    30    27    22    1
