@<TRIPOS>MOLECULE
*****
 26 28 0 0 0
SMALL
GASTEIGER

@<TRIPOS>ATOM
      1 C          -7.1434  -19.3417   20.8122 C.ar    1  UNL1        0.1384
      2 C          -7.7115  -19.9630   19.5707 C.ar    1  UNL1        0.0608
      3 C          -9.0961  -19.6044   19.1188 C.ar    1  UNL1        0.1023
      4 N          -9.9125  -18.6245   19.9082 N.ar    1  UNL1       -0.2436
      5 C          -9.3444  -18.0033   21.1497 C.ar    1  UNL1        0.0847
      6 C         -10.1609  -17.0234   21.9391 C.ar    1  UNL1        0.0205
      7 C          -9.5928  -16.4021   23.1806 C.ar    1  UNL1        0.0199
      8 C          -8.2082  -16.7607   23.6326 C.ar    1  UNL1        0.1057
      9 C          -7.3917  -17.7406   22.8432 C.ar    1  UNL1        0.0232
     10 C          -7.9599  -18.3619   21.6017 C.ar    1  UNL1        0.0558
     11 S          -7.6401  -16.1395   24.8741 S.O2    1  UNL1        0.0054
     12 O          -6.4692  -15.6332   24.0849 O.2     1  UNL1       -0.1687
     13 O          -8.8109  -16.6458   25.6632 O.2     1  UNL1       -0.1687
     14 C          -7.0719  -15.5182   26.1156 C.3     1  UNL1        0.1151
     15 C          -5.7254  -15.4382   25.4594 C.3     1  UNL1        0.0240
     16 C          -8.4184  -15.5981   26.7717 C.3     1  UNL1        0.0240
     17 C          -6.5038  -14.8969   27.3570 C.3     1  UNL1        0.0240
     18 N          -5.7588  -19.7003   21.2642 N.pl3   1  UNL1       -0.2004
     19 H          -5.6158  -20.4920   21.8318 H       1  UNL1        0.2982
     20 C          -1.5349  -16.5371   21.4495 C.3     1  UNL1        0.0519
     21 C          -2.6505  -17.3988   20.9366 C.2     1  UNL1        0.0948
     22 N          -2.9426  -17.6982   19.4961 N.2     1  UNL1       -0.0428
     23 N          -4.1425  -18.5968   19.4435 N.2     1  UNL1        0.0753
     24 C          -4.5920  -18.8528   20.8515 C.2     1  UNL1        0.3331
     25 C          -3.6699  -18.1124   21.7743 C.3     1  UNL1        0.1480
     26 C          -3.7526  -18.0895   23.2718 C.3     1  UNL1        0.0190
@<TRIPOS>BOND
     1    20    21    1
     2    21    22    2
     3    22    23    1
     4    23    24    2
     5    24    18    1
     6    18     1    1
     7     1     2   ar
     8     2     3   ar
     9     3     4   ar
    10     4     5   ar
    11     5     6   ar
    12     6     7   ar
    13     7     8   ar
    14     8    11    1
    15    11    12    2
    16    11    13    2
    17    11    14    1
    18    14    15    1
    19    14    16    1
    20    14    17    1
    21     8     9   ar
    22     9    10   ar
    23    24    25    1
    24    25    26    1
    25    25    21    1
    26    10     1   ar
    27    10     5   ar
    28    18    19    1
@<TRIPOS>MOLECULE
*****
 26 28 0 0 0
SMALL
GASTEIGER

@<TRIPOS>ATOM
      1 C          -4.3119  -17.0666   22.9974 C.ar    1  UNL1        0.1384
      2 C          -2.8349  -17.3219   22.9410 C.ar    1  UNL1        0.0608
      3 C          -2.3171  -18.6050   22.3618 C.ar    1  UNL1        0.1023
      4 N          -3.2764  -19.6329   21.8390 N.ar    1  UNL1       -0.2436
      5 C          -4.7534  -19.3776   21.8954 C.ar    1  UNL1        0.0847
      6 C          -5.7126  -20.4055   21.3726 C.ar    1  UNL1        0.0205
      7 C          -7.1896  -20.1503   21.4290 C.ar    1  UNL1        0.0199
      8 C          -7.7075  -18.8671   22.0082 C.ar    1  UNL1        0.1057
      9 C          -6.7483  -17.8392   22.5310 C.ar    1  UNL1        0.0232
     10 C          -5.2712  -18.0945   22.4746 C.ar    1  UNL1        0.0558
     11 S          -9.1845  -18.6119   22.0645 S.O2    1  UNL1        0.0054
     12 O          -9.3826  -19.9159   22.7787 O.2     1  UNL1       -0.1687
     13 O          -8.9864  -17.3078   21.3503 O.2     1  UNL1       -0.1687
     14 C         -10.6616  -18.3567   22.1209 C.3     1  UNL1        0.1151
     15 C         -10.9200  -19.8312   22.0270 C.3     1  UNL1        0.0240
     16 C         -10.4032  -16.8821   22.2149 C.3     1  UNL1        0.0240
     17 C         -12.1386  -18.1014   22.1773 C.3     1  UNL1        0.0240
     18 N          -4.8298  -15.7835   23.5766 N.pl3   1  UNL1       -0.2004
     19 H          -4.7244  -14.9407   23.0787 H       1  UNL1        0.2982
     20 C          -8.4618  -15.2077   27.3657 C.3     1  UNL1        0.0519
     21 C          -7.1777  -15.5197   26.6561 C.2     1  UNL1        0.0948
     22 N          -5.9267  -16.0519   27.2901 N.2     1  UNL1       -0.0428
     23 N          -4.8949  -16.2154   26.2137 N.2     1  UNL1        0.0753
     24 C          -5.5082  -15.7844   24.9144 C.2     1  UNL1        0.3331
     25 C          -6.9190  -15.3544   25.1878 C.3     1  UNL1        0.1480
     26 C          -7.8991  -14.8480   24.1715 C.3     1  UNL1        0.0190
@<TRIPOS>BOND
     1    20    21    1
     2    21    22    2
     3    22    23    1
     4    23    24    2
     5    24    18    1
     6    18     1    1
     7     1     2   ar
     8     2     3   ar
     9     3     4   ar
    10     4     5   ar
    11     5     6   ar
    12     6     7   ar
    13     7     8   ar
    14     8    11    1
    15    11    12    2
    16    11    13    2
    17    11    14    1
    18    14    15    1
    19    14    16    1
    20    14    17    1
    21     8     9   ar
    22     9    10   ar
    23    24    25    1
    24    25    26    1
    25    25    21    1
    26    10     1   ar
    27    10     5   ar
    28    18    19    1
@<TRIPOS>MOLECULE
*****
 26 28 0 0 0
SMALL
GASTEIGER

@<TRIPOS>ATOM
      1 C         -10.6557  -17.8532   23.1099 C.ar    1  UNL1        0.1384
      2 C         -12.1190  -17.5780   22.9283 C.ar    1  UNL1        0.0608
      3 C         -12.7653  -17.8071   21.5943 C.ar    1  UNL1        0.1023
      4 N         -11.9483  -18.3115   20.4418 N.ar    1  UNL1       -0.2436
      5 C         -10.4850  -18.5867   20.6234 C.ar    1  UNL1        0.0847
      6 C          -9.6680  -19.0911   19.4710 C.ar    1  UNL1        0.0205
      7 C          -8.2048  -19.3663   19.6525 C.ar    1  UNL1        0.0199
      8 C          -7.5584  -19.1371   20.9866 C.ar    1  UNL1        0.1057
      9 C          -8.3753  -18.6328   22.1391 C.ar    1  UNL1        0.0232
     10 C          -9.8387  -18.3576   21.9575 C.ar    1  UNL1        0.0558
     11 S          -6.0951  -19.4123   21.1682 S.O2    1  UNL1        0.0054
     12 O          -6.2365  -20.6825   20.3830 O.2     1  UNL1       -0.1687
     13 O          -5.9536  -18.1422   21.9534 O.2     1  UNL1       -0.1687
     14 C          -4.6317  -19.6876   21.3498 C.3     1  UNL1        0.1151
     15 C          -4.6178  -18.8109   22.5668 C.3     1  UNL1        0.0240
     16 C          -4.6457  -20.5643   20.1328 C.3     1  UNL1        0.0240
     17 C          -3.1685  -19.9629   21.5313 C.3     1  UNL1        0.0240
     18 N         -10.0093  -17.6241   24.4440 N.pl3   1  UNL1       -0.2004
     19 H         -10.3326  -18.1090   25.2375 H       1  UNL1        0.2982
     20 C          -6.0945  -14.7091   26.4586 C.3     1  UNL1        0.0519
     21 C          -7.0709  -15.3161   25.4952 C.2     1  UNL1        0.0948
     22 N          -7.1645  -15.0163   24.0284 N.2     1  UNL1       -0.0428
     23 N          -8.2766  -15.8444   23.4562 N.2     1  UNL1        0.0753
     24 C          -8.8704  -16.6560   24.5692 C.2     1  UNL1        0.3331
     25 C          -8.1252  -16.3294   25.8294 C.3     1  UNL1        0.1480
     26 C          -8.3881  -16.9136   27.1857 C.3     1  UNL1        0.0190
@<TRIPOS>BOND
     1    20    21    1
     2    21    22    2
     3    22    23    1
     4    23    24    2
     5    24    18    1
     6    18     1    1
     7     1     2   ar
     8     2     3   ar
     9     3     4   ar
    10     4     5   ar
    11     5     6   ar
    12     6     7   ar
    13     7     8   ar
    14     8    11    1
    15    11    12    2
    16    11    13    2
    17    11    14    1
    18    14    15    1
    19    14    16    1
    20    14    17    1
    21     8     9   ar
    22     9    10   ar
    23    24    25    1
    24    25    26    1
    25    25    21    1
    26    10     1   ar
    27    10     5   ar
    28    18    19    1
@<TRIPOS>MOLECULE
*****
 26 28 0 0 0
SMALL
GASTEIGER

@<TRIPOS>ATOM
      1 C          -5.0916  -16.8684   24.3501 C.ar    1  UNL1        0.1384
      2 C          -4.7864  -15.9616   25.5053 C.ar    1  UNL1        0.0608
      3 C          -5.8498  -15.0527   26.0465 C.ar    1  UNL1        0.1023
      4 N          -7.2184  -15.0505   25.4325 N.ar    1  UNL1       -0.2436
      5 C          -7.5235  -15.9572   24.2772 C.ar    1  UNL1        0.0847
      6 C          -8.8921  -15.9550   23.6632 C.ar    1  UNL1        0.0205
      7 C          -9.1973  -16.8617   22.5080 C.ar    1  UNL1        0.0199
      8 C          -8.1338  -17.7707   21.9667 C.ar    1  UNL1        0.1057
      9 C          -6.7653  -17.7730   22.5807 C.ar    1  UNL1        0.0232
     10 C          -6.4601  -16.8661   23.7360 C.ar    1  UNL1        0.0558
     11 S          -8.4390  -18.6775   20.8114 S.O2    1  UNL1        0.0054
     12 O          -9.8209  -18.8996   21.3508 O.2     1  UNL1       -0.1687
     13 O          -7.0571  -18.4554   20.2720 O.2     1  UNL1       -0.1687
     14 C          -8.7442  -19.5843   19.6561 C.3     1  UNL1        0.1151
     15 C          -7.3082  -20.0158   19.6154 C.3     1  UNL1        0.0240
     16 C         -10.1802  -19.1527   19.6969 C.3     1  UNL1        0.0240
     17 C          -9.0495  -20.4910   18.5009 C.3     1  UNL1        0.0240
     18 N          -4.0282  -17.7774   23.8088 N.pl3   1  UNL1       -0.2004
     19 H          -3.8596  -18.6476   24.2372 H       1  UNL1        0.2982
     20 C          -1.1106  -17.9483   19.4111 C.3     1  UNL1        0.0519
     21 C          -1.8805  -17.4390   20.5934 C.2     1  UNL1        0.0948
     22 N          -2.0802  -15.9986   20.9615 N.2     1  UNL1       -0.0428
     23 N          -2.9090  -15.9501   22.2108 N.2     1  UNL1        0.0753
     24 C          -3.2216  -17.3604   22.6148 C.2     1  UNL1        0.3331
     25 C          -2.5859  -18.2806   21.6152 C.3     1  UNL1        0.1480
     26 C          -2.6452  -19.7793   21.6341 C.3     1  UNL1        0.0190
@<TRIPOS>BOND
     1    20    21    1
     2    21    22    2
     3    22    23    1
     4    23    24    2
     5    24    18    1
     6    18     1    1
     7     1     2   ar
     8     2     3   ar
     9     3     4   ar
    10     4     5   ar
    11     5     6   ar
    12     6     7   ar
    13     7     8   ar
    14     8    11    1
    15    11    12    2
    16    11    13    2
    17    11    14    1
    18    14    15    1
    19    14    16    1
    20    14    17    1
    21     8     9   ar
    22     9    10   ar
    23    24    25    1
    24    25    26    1
    25    25    21    1
    26    10     1   ar
    27    10     5   ar
    28    18    19    1
@<TRIPOS>MOLECULE
*****
 26 28 0 0 0
SMALL
GASTEIGER

@<TRIPOS>ATOM
      1 C          -8.4643  -17.0098   21.8521 C.ar    1  UNL1        0.1384
      2 C          -9.9414  -17.1942   22.0363 C.ar    1  UNL1        0.0608
      3 C         -10.5728  -18.5240   21.7487 C.ar    1  UNL1        0.1023
      4 N          -9.7270  -19.6695   21.2768 N.ar    1  UNL1       -0.2436
      5 C          -8.2499  -19.4850   21.0926 C.ar    1  UNL1        0.0847
      6 C          -7.4041  -20.6305   20.6208 C.ar    1  UNL1        0.0205
      7 C          -5.9269  -20.4461   20.4366 C.ar    1  UNL1        0.0199
      8 C          -5.2955  -19.1161   20.7243 C.ar    1  UNL1        0.1057
      9 C          -6.1413  -17.9707   21.1961 C.ar    1  UNL1        0.0232
     10 C          -7.6185  -18.1552   21.3803 C.ar    1  UNL1        0.0558
     11 S          -3.8183  -18.9317   20.5401 S.O2    1  UNL1        0.0054
     12 O          -3.8260  -19.9606   19.4487 O.2     1  UNL1       -0.1687
     13 O          -3.8107  -17.9028   21.6315 O.2     1  UNL1       -0.1687
     14 C          -2.3411  -18.7473   20.3558 C.3     1  UNL1        0.1151
     15 C          -2.0922  -19.4290   21.6686 C.3     1  UNL1        0.0240
     16 C          -2.5900  -18.0656   19.0431 C.3     1  UNL1        0.0240
     17 C          -0.8640  -18.5629   20.1716 C.3     1  UNL1        0.0240
     18 N          -7.8328  -15.6798   22.1398 N.pl3   1  UNL1       -0.2004
     19 H          -7.9278  -14.9404   21.4968 H       1  UNL1        0.2982
     20 C          -6.5789  -15.3044   27.2552 C.3     1  UNL1        0.0519
     21 C          -6.4802  -15.3040   25.7585 C.2     1  UNL1        0.0948
     22 N          -5.2441  -15.0237   24.9564 N.2     1  UNL1       -0.0428
     23 N          -5.6003  -15.1303   23.5032 N.2     1  UNL1        0.0753
     24 C          -7.0566  -15.4766   23.4071 C.2     1  UNL1        0.3331
     25 C          -7.6004  -15.5839   24.8010 C.3     1  UNL1        0.1480
     26 C          -9.0160  -15.9133   25.1722 C.3     1  UNL1        0.0190
@<TRIPOS>BOND
     1    20    21    1
     2    21    22    2
     3    22    23    1
     4    23    24    2
     5    24    18    1
     6    18     1    1
     7     1     2   ar
     8     2     3   ar
     9     3     4   ar
    10     4     5   ar
    11     5     6   ar
    12     6     7   ar
    13     7     8   ar
    14     8    11    1
    15    11    12    2
    16    11    13    2
    17    11    14    1
    18    14    15    1
    19    14    16    1
    20    14    17    1
    21     8     9   ar
    22     9    10   ar
    23    24    25    1
    24    25    26    1
    25    25    21    1
    26    10     1   ar
    27    10     5   ar
    28    18    19    1
@<TRIPOS>MOLECULE
*****
 26 28 0 0 0
SMALL
GASTEIGER

@<TRIPOS>ATOM
      1 C          -8.7202  -17.0137   23.9928 C.ar    1  UNL1        0.1384
      2 C          -9.2553  -16.0217   24.9824 C.ar    1  UNL1        0.0608
      3 C          -8.3177  -15.0918   25.6939 C.ar    1  UNL1        0.1023
      4 N          -6.8450  -15.1540   25.4156 N.ar    1  UNL1       -0.2436
      5 C          -6.3100  -16.1460   24.4260 C.ar    1  UNL1        0.0847
      6 C          -4.8373  -16.2082   24.1477 C.ar    1  UNL1        0.0205
      7 C          -4.3022  -17.2002   23.1581 C.ar    1  UNL1        0.0199
      8 C          -5.2398  -18.1302   22.4466 C.ar    1  UNL1        0.1057
      9 C          -6.7125  -18.0680   22.7248 C.ar    1  UNL1        0.0232
     10 C          -7.2476  -17.0759   23.7145 C.ar    1  UNL1        0.0558
     11 S          -4.7048  -19.1222   21.4569 S.O2    1  UNL1        0.0054
     12 O          -3.7149  -19.6044   22.4755 O.2     1  UNL1       -0.1687
     13 O          -5.6947  -18.6400   20.4383 O.2     1  UNL1       -0.1687
     14 C          -4.1696  -20.1144   20.4672 C.3     1  UNL1        0.1151
     15 C          -5.5343  -20.7239   20.3403 C.3     1  UNL1        0.0240
     16 C          -2.8050  -19.5048   20.5941 C.3     1  UNL1        0.0240
     17 C          -3.6345  -21.1064   19.4776 C.3     1  UNL1        0.0240
     18 N          -9.6578  -17.9437   23.2813 N.pl3   1  UNL1       -0.2004
     19 H          -9.9513  -18.7759   23.7178 H       1  UNL1        0.2982
     20 C         -12.3916  -15.7830   19.3140 C.3     1  UNL1        0.0519
     21 C         -11.4049  -16.6125   20.0810 C.2     1  UNL1        0.0948
     22 N         -10.4012  -17.5584   19.4912 N.2     1  UNL1       -0.0428
     23 N          -9.6247  -18.1722   20.6182 N.2     1  UNL1        0.0753
     24 C         -10.1483  -17.6056   21.9046 C.2     1  UNL1        0.3331
     25 C         -11.2485  -16.6417   21.5726 C.3     1  UNL1        0.1480
     26 C         -12.0515  -15.8465   22.5590 C.3     1  UNL1        0.0190
@<TRIPOS>BOND
     1    20    21    1
     2    21    22    2
     3    22    23    1
     4    23    24    2
     5    24    18    1
     6    18     1    1
     7     1     2   ar
     8     2     3   ar
     9     3     4   ar
    10     4     5   ar
    11     5     6   ar
    12     6     7   ar
    13     7     8   ar
    14     8    11    1
    15    11    12    2
    16    11    13    2
    17    11    14    1
    18    14    15    1
    19    14    16    1
    20    14    17    1
    21     8     9   ar
    22     9    10   ar
    23    24    25    1
    24    25    26    1
    25    25    21    1
    26    10     1   ar
    27    10     5   ar
    28    18    19    1
@<TRIPOS>MOLECULE
*****
 26 28 0 0 0
SMALL
GASTEIGER

@<TRIPOS>ATOM
      1 C          -7.7738  -15.5588   24.2578 C.ar    1  UNL1        0.1384
      2 C          -8.6716  -15.1340   25.3819 C.ar    1  UNL1        0.0608
      3 C          -8.2049  -15.2574   26.8020 C.ar    1  UNL1        0.1023
      4 N          -6.8404  -15.8056   27.0982 N.ar    1  UNL1       -0.2436
      5 C          -5.9426  -16.2304   25.9741 C.ar    1  UNL1        0.0847
      6 C          -4.5781  -16.7785   26.2703 C.ar    1  UNL1        0.0205
      7 C          -3.6804  -17.2033   25.1462 C.ar    1  UNL1        0.0199
      8 C          -4.1470  -17.0799   23.7260 C.ar    1  UNL1        0.1057
      9 C          -5.5115  -16.5317   23.4298 C.ar    1  UNL1        0.0232
     10 C          -6.4093  -16.1069   24.5540 C.ar    1  UNL1        0.0558
     11 S          -3.2493  -17.5047   22.6019 S.O2    1  UNL1        0.0054
     12 O          -2.9093  -16.0691   22.3310 O.2     1  UNL1       -0.1687
     13 O          -3.5893  -18.9403   22.8729 O.2     1  UNL1       -0.1687
     14 C          -2.3514  -17.9295   21.4778 C.3     1  UNL1        0.1151
     15 C          -2.7672  -19.3557   21.6846 C.3     1  UNL1        0.0240
     16 C          -1.9356  -16.5032   21.2710 C.3     1  UNL1        0.0240
     17 C          -1.4536  -18.3542   20.3538 C.3     1  UNL1        0.0240
     18 N          -8.2405  -15.4354   22.8376 N.pl3   1  UNL1       -0.2004
     19 H          -8.2511  -14.5547   22.3977 H       1  UNL1        0.2982
     20 C         -11.2515  -19.3336   20.9353 C.3     1  UNL1        0.0519
     21 C         -10.0749  -18.4457   21.2132 C.2     1  UNL1        0.0948
     22 N          -8.6931  -18.6121   20.6538 N.2     1  UNL1       -0.0428
     23 N          -7.8377  -17.5047   21.1942 N.2     1  UNL1        0.0753
     24 C          -8.6909  -16.6538   22.0876 C.2     1  UNL1        0.3331
     25 C         -10.0735  -17.2354   22.0993 C.3     1  UNL1        0.1480
     26 C         -11.2485  -16.7006   22.8631 C.3     1  UNL1        0.0190
@<TRIPOS>BOND
     1    20    21    1
     2    21    22    2
     3    22    23    1
     4    23    24    2
     5    24    18    1
     6    18     1    1
     7     1     2   ar
     8     2     3   ar
     9     3     4   ar
    10     4     5   ar
    11     5     6   ar
    12     6     7   ar
    13     7     8   ar
    14     8    11    1
    15    11    12    2
    16    11    13    2
    17    11    14    1
    18    14    15    1
    19    14    16    1
    20    14    17    1
    21     8     9   ar
    22     9    10   ar
    23    24    25    1
    24    25    26    1
    25    25    21    1
    26    10     1   ar
    27    10     5   ar
    28    18    19    1
@<TRIPOS>MOLECULE
*****
 26 28 0 0 0
SMALL
GASTEIGER

@<TRIPOS>ATOM
      1 C          -8.5601  -16.7632   23.5766 C.ar    1  UNL1        0.1384
      2 C          -9.1044  -15.7847   24.5747 C.ar    1  UNL1        0.0608
      3 C          -8.1694  -15.0359   25.4775 C.ar    1  UNL1        0.1023
      4 N          -6.6902  -15.2656   25.3822 N.ar    1  UNL1       -0.2436
      5 C          -6.1459  -16.2441   24.3841 C.ar    1  UNL1        0.0847
      6 C          -4.6667  -16.4738   24.2888 C.ar    1  UNL1        0.0205
      7 C          -4.1224  -17.4523   23.2907 C.ar    1  UNL1        0.0199
      8 C          -5.0573  -18.2011   22.3878 C.ar    1  UNL1        0.1057
      9 C          -6.5366  -17.9714   22.4831 C.ar    1  UNL1        0.0232
     10 C          -7.0809  -16.9929   23.4813 C.ar    1  UNL1        0.0558
     11 S          -4.5131  -19.1796   21.3898 S.O2    1  UNL1        0.0054
     12 O          -5.5684  -18.7650   20.4078 O.2     1  UNL1       -0.1687
     13 O          -3.4577  -19.5943   22.3717 O.2     1  UNL1       -0.1687
     14 C          -3.9688  -20.1582   20.3916 C.3     1  UNL1        0.1151
     15 C          -2.5920  -19.5978   20.5929 C.3     1  UNL1        0.0240
     16 C          -5.3455  -20.7185   20.1903 C.3     1  UNL1        0.0240
     17 C          -3.4246  -21.1367   19.3934 C.3     1  UNL1        0.0240
     18 N          -9.4951  -17.5120   22.6737 N.pl3   1  UNL1       -0.2004
     19 H          -9.1357  -18.0719   21.9480 H       1  UNL1        0.2982
     20 C         -14.3924  -18.3663   24.4535 C.3     1  UNL1        0.0519
     21 C         -13.2287  -17.8006   23.6947 C.2     1  UNL1        0.0948
     22 N         -13.2895  -16.6948   22.6829 N.2     1  UNL1       -0.0428
     23 N         -11.8983  -16.4522   22.1773 N.2     1  UNL1        0.0753
     24 C         -10.9776  -17.4079   22.8766 C.2     1  UNL1        0.3331
     25 C         -11.7999  -18.2413   23.8144 C.3     1  UNL1        0.1480
     26 C         -11.2840  -19.3251   24.7139 C.3     1  UNL1        0.0190
@<TRIPOS>BOND
     1    20    21    1
     2    21    22    2
     3    22    23    1
     4    23    24    2
     5    24    18    1
     6    18     1    1
     7     1     2   ar
     8     2     3   ar
     9     3     4   ar
    10     4     5   ar
    11     5     6   ar
    12     6     7   ar
    13     7     8   ar
    14     8    11    1
    15    11    12    2
    16    11    13    2
    17    11    14    1
    18    14    15    1
    19    14    16    1
    20    14    17    1
    21     8     9   ar
    22     9    10   ar
    23    24    25    1
    24    25    26    1
    25    25    21    1
    26    10     1   ar
    27    10     5   ar
    28    18    19    1
@<TRIPOS>MOLECULE
*****
 26 28 0 0 0
SMALL
GASTEIGER

@<TRIPOS>ATOM
      1 C          -8.1362  -18.8097   20.2413 C.ar    1  UNL1        0.1384
      2 C          -8.9566  -19.6100   19.2736 C.ar    1  UNL1        0.0608
      3 C         -10.3801  -19.9517   19.6004 C.ar    1  UNL1        0.1023
      4 N         -10.9832  -19.4930   20.8950 N.ar    1  UNL1       -0.2436
      5 C         -10.1629  -18.6927   21.8627 C.ar    1  UNL1        0.0847
      6 C         -10.7660  -18.2341   23.1572 C.ar    1  UNL1        0.0205
      7 C          -9.9457  -17.4338   24.1249 C.ar    1  UNL1        0.0199
      8 C          -8.5221  -17.0921   23.7981 C.ar    1  UNL1        0.1057
      9 C          -7.9189  -17.5507   22.5036 C.ar    1  UNL1        0.0232
     10 C          -8.7394  -18.3511   21.5359 C.ar    1  UNL1        0.0558
     11 S          -7.7018  -16.2918   24.7658 S.O2    1  UNL1        0.0054
     12 O          -6.6899  -16.0284   23.6903 O.2     1  UNL1       -0.1687
     13 O          -8.7136  -16.5551   25.8414 O.2     1  UNL1       -0.1687
     14 C          -6.8813  -15.4914   25.7335 C.3     1  UNL1        0.1151
     15 C          -7.9942  -15.5635   26.7367 C.3     1  UNL1        0.0240
     16 C          -5.7685  -15.4193   24.7304 C.3     1  UNL1        0.0240
     17 C          -6.0609  -14.6911   26.7012 C.3     1  UNL1        0.0240
     18 N          -6.7126  -18.4680   19.9145 N.pl3   1  UNL1       -0.2004
     19 H          -6.5096  -17.8900   19.1439 H       1  UNL1        0.2982
     20 C          -1.8943  -19.7468   21.6551 C.3     1  UNL1        0.0519
     21 C          -3.3837  -19.5949   21.5619 C.2     1  UNL1        0.0948
     22 N          -4.3841  -20.0786   22.5696 N.2     1  UNL1       -0.0428
     23 N          -5.7528  -19.7153   22.0751 N.2     1  UNL1        0.0753
     24 C          -5.5984  -19.0071   20.7618 C.2     1  UNL1        0.3331
     25 C          -4.1343  -18.9327   20.4447 C.3     1  UNL1        0.1480
     26 C          -3.5271  -18.3062   19.2245 C.3     1  UNL1        0.0190
@<TRIPOS>BOND
     1    20    21    1
     2    21    22    2
     3    22    23    1
     4    23    24    2
     5    24    18    1
     6    18     1    1
     7     1     2   ar
     8     2     3   ar
     9     3     4   ar
    10     4     5   ar
    11     5     6   ar
    12     6     7   ar
    13     7     8   ar
    14     8    11    1
    15    11    12    2
    16    11    13    2
    17    11    14    1
    18    14    15    1
    19    14    16    1
    20    14    17    1
    21     8     9   ar
    22     9    10   ar
    23    24    25    1
    24    25    26    1
    25    25    21    1
    26    10     1   ar
    27    10     5   ar
    28    18    19    1
