@<TRIPOS>MOLECULE
*****
 33 37 0 0 0
SMALL
GASTEIGER

@<TRIPOS>ATOM
      1 C          -3.3158  -17.5335   24.4256 C.3     1  UNL1        0.0518
      2 C          -4.2876  -18.0651   23.4140 C.ar    1  UNL1        0.0580
      3 N          -3.8471  -19.1019   22.4236 N.ar    1  UNL1       -0.2499
      4 C          -4.8187  -19.6335   21.4120 C.ar    1  UNL1        0.0809
      5 C          -4.3782  -20.6703   20.4216 C.ar    1  UNL1        0.0191
      6 C          -5.3499  -21.2019   19.4100 C.ar    1  UNL1        0.0015
      7 C          -6.7621  -20.6966   19.3888 C.ar    1  UNL1        0.0001
      8 C          -7.2026  -19.6598   20.3792 C.ar    1  UNL1        0.0015
      9 C          -6.2309  -19.1282   21.3908 C.ar    1  UNL1        0.0175
     10 C          -6.6714  -18.0914   22.3812 C.ar    1  UNL1        0.0027
     11 C          -5.6997  -17.5598   23.3928 C.ar    1  UNL1        0.0235
     12 C          -8.0836  -17.5861   22.3600 C.ar    1  UNL1        0.0177
     13 C          -8.4139  -16.3130   21.6389 C.ar    1  UNL1        0.0046
     14 C          -9.8261  -15.8077   21.6177 C.ar    1  UNL1        0.0370
     15 C         -10.9080  -16.5755   22.3178 C.ar    1  UNL1        0.1396
     16 C         -10.5777  -17.8487   23.0389 C.ar    1  UNL1        0.0478
     17 C         -11.6595  -18.6165   23.7389 C.ar    1  UNL1       -0.0125
     18 C         -11.3291  -19.8897   24.4600 C.ar    1  UNL1        0.0166
     19 C          -9.9170  -20.3949   24.4812 C.ar    1  UNL1        0.0985
     20 N          -8.8351  -19.6271   23.7812 N.ar    1  UNL1       -0.2438
     21 C          -9.1654  -18.3539   23.0600 C.ar    1  UNL1        0.0839
     22 C         -13.0717  -18.1113   23.7177 C.3     1  UNL1        0.0738
     23 C         -13.4020  -16.8381   22.9966 C.3     1  UNL1        0.2101
     24 O         -12.3201  -16.0703   22.2966 O.3     1  UNL1       -0.4751
     25 C          -6.1402  -16.5229   24.3832 C.3     1  UNL1        0.1744
     26 C          -5.5718  -15.1363   24.3203 C.2     1  UNL1        0.0816
     27 O          -5.1166  -14.4545   25.5765 O.co2   1  UNL1       -0.5464
     28 O          -5.4585  -14.4313   23.0011 O.co2   1  UNL1       -0.5464
     29 O          -7.1493  -16.8728   25.4366 O.3     1  UNL1       -0.3510
     30 C          -7.6811  -15.8075   26.3490 C.3     1  UNL1        0.0938
     31 C          -6.7538  -16.2726   27.4324 C.3     1  UNL1        0.0297
     32 C          -8.6083  -15.3425   25.2655 C.3     1  UNL1        0.0297
     33 C          -8.2129  -14.7423   27.2613 C.3     1  UNL1        0.0297
@<TRIPOS>UNITY_ATOM_ATTR
27 1
charge -1
@<TRIPOS>BOND
     1     1     2    1
     2     2     3   ar
     3     3     4   ar
     4     4     5   ar
     5     5     6   ar
     6     6     7   ar
     7     7     8   ar
     8     8     9   ar
     9     9    10   ar
    10    10    12    1
    11    12    13   ar
    12    13    14   ar
    13    14    15   ar
    14    15    16   ar
    15    16    17   ar
    16    17    18   ar
    17    18    19   ar
    18    19    20   ar
    19    20    21   ar
    20    17    22    1
    21    22    23    1
    22    23    24    1
    23    10    11   ar
    24    11    25    1
    25    25    29    1
    26    29    30    1
    27    30    31    1
    28    30    32    1
    29    30    33    1
    30    25    26    1
    31    26    27   ar
    32    26    28   ar
    33    11     2   ar
    34     9     4   ar
    35    21    12   ar
    36    24    15    1
    37    21    16   ar
@<TRIPOS>MOLECULE
*****
 33 37 0 0 0
SMALL
GASTEIGER

@<TRIPOS>ATOM
      1 C           4.0490   -1.1939   25.5343 C.3     1  UNL1        0.0518
      2 C           3.8619   -1.4127   24.0621 C.ar    1  UNL1        0.0580
      3 N           4.4727   -2.6111   23.3983 N.ar    1  UNL1       -0.2499
      4 C           4.2856   -2.8299   21.9262 C.ar    1  UNL1        0.0809
      5 C           4.8964   -4.0283   21.2625 C.ar    1  UNL1        0.0191
      6 C           4.7093   -4.2471   19.7903 C.ar    1  UNL1        0.0015
      7 C           3.9113   -3.2674   18.9820 C.ar    1  UNL1        0.0001
      8 C           3.3004   -2.0690   19.6458 C.ar    1  UNL1        0.0015
      9 C           3.4875   -1.8502   21.1179 C.ar    1  UNL1        0.0175
     10 C           2.8767   -0.6518   21.7816 C.ar    1  UNL1        0.0027
     11 C           3.0638   -0.4330   23.2538 C.ar    1  UNL1        0.0235
     12 C           2.0787    0.3279   20.9733 C.ar    1  UNL1        0.0177
     13 C           0.5844    0.2110   20.9151 C.ar    1  UNL1        0.0046
     14 C          -0.2137    1.1906   20.1068 C.ar    1  UNL1        0.0370
     15 C           0.4826    2.2873   19.3567 C.ar    1  UNL1        0.1396
     16 C           1.9769    2.4042   19.4149 C.ar    1  UNL1        0.0478
     17 C           2.6732    3.5008   18.6649 C.ar    1  UNL1       -0.0125
     18 C           4.1675    3.6178   18.7232 C.ar    1  UNL1        0.0166
     19 C           4.9655    2.6381   19.5315 C.ar    1  UNL1        0.0985
     20 N           4.2692    1.5414   20.2816 N.ar    1  UNL1       -0.2438
     21 C           2.7749    1.4245   20.2233 C.ar    1  UNL1        0.0839
     22 C           1.8752    4.4806   17.8566 C.3     1  UNL1        0.0738
     23 C           0.3809    4.3636   17.7983 C.3     1  UNL1        0.2101
     24 O          -0.3154    3.2670   18.5484 O.3     1  UNL1       -0.4751
     25 C           2.4530    0.7654   23.9176 C.3     1  UNL1        0.1744
     26 C           3.2508    2.0264   24.0700 C.2     1  UNL1        0.0816
     27 O           3.0805    3.1454   23.0857 O.co2   1  UNL1       -0.5464
     28 O           4.2191    2.1685   25.2068 O.co2   1  UNL1       -0.5464
     29 O           1.0442    0.7028   24.4289 O.3     1  UNL1       -0.3510
     30 C           0.4679    1.8641   25.1835 C.3     1  UNL1        0.0938
     31 C          -0.1310    2.3920   23.9136 C.3     1  UNL1        0.0297
     32 C           1.0668    1.3362   26.4534 C.3     1  UNL1        0.0297
     33 C          -0.1084    3.0254   25.9380 C.3     1  UNL1        0.0297
@<TRIPOS>UNITY_ATOM_ATTR
27 1
charge -1
@<TRIPOS>BOND
     1     1     2    1
     2     2     3   ar
     3     3     4   ar
     4     4     5   ar
     5     5     6   ar
     6     6     7   ar
     7     7     8   ar
     8     8     9   ar
     9     9    10   ar
    10    10    12    1
    11    12    13   ar
    12    13    14   ar
    13    14    15   ar
    14    15    16   ar
    15    16    17   ar
    16    17    18   ar
    17    18    19   ar
    18    19    20   ar
    19    20    21   ar
    20    17    22    1
    21    22    23    1
    22    23    24    1
    23    10    11   ar
    24    11    25    1
    25    25    29    1
    26    29    30    1
    27    30    31    1
    28    30    32    1
    29    30    33    1
    30    25    26    1
    31    26    27   ar
    32    26    28   ar
    33    11     2   ar
    34     9     4   ar
    35    21    12   ar
    36    24    15    1
    37    21    16   ar
@<TRIPOS>MOLECULE
*****
 33 37 0 0 0
SMALL
GASTEIGER

@<TRIPOS>ATOM
      1 C          -3.8408  -16.2010   23.4586 C.3     1  UNL1        0.0518
      2 C          -4.7166  -17.2611   22.8592 C.ar    1  UNL1        0.0580
      3 N          -4.1601  -18.2007   21.8309 N.ar    1  UNL1       -0.2499
      4 C          -5.0359  -19.2608   21.2315 C.ar    1  UNL1        0.0809
      5 C          -4.4794  -20.2004   20.2032 C.ar    1  UNL1        0.0191
      6 C          -5.3553  -21.2605   19.6039 C.ar    1  UNL1        0.0015
      7 C          -6.7875  -21.3809   20.0328 C.ar    1  UNL1        0.0001
      8 C          -7.3440  -20.4413   21.0612 C.ar    1  UNL1        0.0015
      9 C          -6.4683  -19.3813   21.6605 C.ar    1  UNL1        0.0175
     10 C          -7.0248  -18.4416   22.6888 C.ar    1  UNL1        0.0027
     11 C          -6.1489  -17.3815   23.2882 C.ar    1  UNL1        0.0235
     12 C          -8.4570  -18.5621   23.1178 C.ar    1  UNL1        0.0177
     13 C          -8.8432  -19.5574   24.1714 C.ar    1  UNL1        0.0046
     14 C         -10.2755  -19.6778   24.6004 C.ar    1  UNL1        0.0370
     15 C         -11.3216  -18.8029   23.9757 C.ar    1  UNL1        0.1396
     16 C         -10.9354  -17.8076   22.9221 C.ar    1  UNL1        0.0478
     17 C         -11.9815  -16.9327   22.2974 C.ar    1  UNL1       -0.0125
     18 C         -11.5953  -15.9373   21.2437 C.ar    1  UNL1        0.0166
     19 C         -10.1630  -15.8169   20.8148 C.ar    1  UNL1        0.0985
     20 N          -9.1169  -16.6918   21.4395 N.ar    1  UNL1       -0.2438
     21 C          -9.5031  -17.6872   22.4931 C.ar    1  UNL1        0.0839
     22 C         -13.4138  -17.0531   22.7263 C.3     1  UNL1        0.0738
     23 C         -13.8001  -18.0484   23.7800 C.3     1  UNL1        0.2101
     24 O         -12.7539  -18.9233   24.4047 O.3     1  UNL1       -0.4751
     25 C          -6.7054  -16.4419   24.3165 C.3     1  UNL1        0.1744
     26 C          -7.4696  -15.2254   23.8853 C.2     1  UNL1        0.0816
     27 O          -8.7034  -14.8113   24.6312 O.co2   1  UNL1       -0.5464
     28 O          -7.0000  -14.4228   22.7083 O.co2   1  UNL1       -0.5464
     29 O          -6.4976  -16.7189   25.7760 O.3     1  UNL1       -0.3510
     30 C          -6.7369  -15.6363   26.7863 C.3     1  UNL1        0.0938
     31 C          -7.9770  -16.3421   27.2489 C.3     1  UNL1        0.0297
     32 C          -5.4968  -14.9305   26.3238 C.3     1  UNL1        0.0297
     33 C          -6.9762  -14.5537   27.7966 C.3     1  UNL1        0.0297
@<TRIPOS>UNITY_ATOM_ATTR
27 1
charge -1
@<TRIPOS>BOND
     1     1     2    1
     2     2     3   ar
     3     3     4   ar
     4     4     5   ar
     5     5     6   ar
     6     6     7   ar
     7     7     8   ar
     8     8     9   ar
     9     9    10   ar
    10    10    12    1
    11    12    13   ar
    12    13    14   ar
    13    14    15   ar
    14    15    16   ar
    15    16    17   ar
    16    17    18   ar
    17    18    19   ar
    18    19    20   ar
    19    20    21   ar
    20    17    22    1
    21    22    23    1
    22    23    24    1
    23    10    11   ar
    24    11    25    1
    25    25    29    1
    26    29    30    1
    27    30    31    1
    28    30    32    1
    29    30    33    1
    30    25    26    1
    31    26    27   ar
    32    26    28   ar
    33    11     2   ar
    34     9     4   ar
    35    21    12   ar
    36    24    15    1
    37    21    16   ar
@<TRIPOS>MOLECULE
*****
 33 37 0 0 0
SMALL
GASTEIGER

@<TRIPOS>ATOM
      1 C           4.8611   -1.3677   26.8483 C.3     1  UNL1        0.0518
      2 C           5.4836   -2.0944   28.0035 C.ar    1  UNL1        0.0580
      3 N           6.3338   -3.3054   27.7574 N.ar    1  UNL1       -0.2499
      4 C           6.9563   -4.0321   28.9125 C.ar    1  UNL1        0.0809
      5 C           7.8065   -5.2431   28.6664 C.ar    1  UNL1        0.0191
      6 C           8.4290   -5.9699   29.8216 C.ar    1  UNL1        0.0015
      7 C           8.2013   -5.4856   31.2228 C.ar    1  UNL1        0.0001
      8 C           7.3510   -4.2746   31.4689 C.ar    1  UNL1        0.0015
      9 C           6.7286   -3.5479   30.3138 C.ar    1  UNL1        0.0175
     10 C           5.8783   -2.3369   30.5600 C.ar    1  UNL1        0.0027
     11 C           5.2558   -1.6101   29.4047 C.ar    1  UNL1        0.0235
     12 C           5.6506   -1.8526   31.9612 C.ar    1  UNL1        0.0177
     13 C           4.4932   -2.3782   32.7576 C.ar    1  UNL1        0.0046
     14 C           4.2655   -1.8939   34.1589 C.ar    1  UNL1        0.0370
     15 C           5.1951   -0.8840   34.7638 C.ar    1  UNL1        0.1396
     16 C           6.3525   -0.3583   33.9674 C.ar    1  UNL1        0.0478
     17 C           7.2821    0.6516   34.5722 C.ar    1  UNL1       -0.0125
     18 C           8.4394    1.1772   33.7758 C.ar    1  UNL1        0.0166
     19 C           8.6672    0.6929   32.3746 C.ar    1  UNL1        0.0985
     20 N           7.7375   -0.3171   31.7697 N.ar    1  UNL1       -0.2438
     21 C           6.5802   -0.8427   32.5661 C.ar    1  UNL1        0.0839
     22 C           7.0543    1.1359   35.9736 C.3     1  UNL1        0.0738
     23 C           5.8970    0.6103   36.7700 C.3     1  UNL1        0.2101
     24 O           4.9673   -0.3997   36.1650 O.3     1  UNL1       -0.4751
     25 C           4.4056   -0.3991   29.6509 C.3     1  UNL1        0.1744
     26 C           2.9173   -0.5399   29.7732 C.2     1  UNL1        0.0816
     27 O           2.2782   -0.5962   31.1292 O.co2   1  UNL1       -0.5464
     28 O           2.0680   -0.6245   28.5397 O.co2   1  UNL1       -0.5464
     29 O           5.0438    0.9528   29.7746 O.3     1  UNL1       -0.3510
     30 C           4.2036    2.1517   30.1012 C.3     1  UNL1        0.0938
     31 C           4.4983    1.9610   31.5596 C.3     1  UNL1        0.0297
     32 C           3.9088    2.3423   28.6429 C.3     1  UNL1        0.0297
     33 C           3.3634    3.3506   30.4278 C.3     1  UNL1        0.0297
@<TRIPOS>UNITY_ATOM_ATTR
27 1
charge -1
@<TRIPOS>BOND
     1     1     2    1
     2     2     3   ar
     3     3     4   ar
     4     4     5   ar
     5     5     6   ar
     6     6     7   ar
     7     7     8   ar
     8     8     9   ar
     9     9    10   ar
    10    10    12    1
    11    12    13   ar
    12    13    14   ar
    13    14    15   ar
    14    15    16   ar
    15    16    17   ar
    16    17    18   ar
    17    18    19   ar
    18    19    20   ar
    19    20    21   ar
    20    17    22    1
    21    22    23    1
    22    23    24    1
    23    10    11   ar
    24    11    25    1
    25    25    29    1
    26    29    30    1
    27    30    31    1
    28    30    32    1
    29    30    33    1
    30    25    26    1
    31    26    27   ar
    32    26    28   ar
    33    11     2   ar
    34     9     4   ar
    35    21    12   ar
    36    24    15    1
    37    21    16   ar
@<TRIPOS>MOLECULE
*****
 33 37 0 0 0
SMALL
GASTEIGER

@<TRIPOS>ATOM
      1 C          -0.0897    3.1881   21.7988 C.3     1  UNL1        0.0518
      2 C          -0.9102    3.3222   23.0473 C.ar    1  UNL1        0.0580
      3 N          -2.2776    3.9355   22.9838 N.ar    1  UNL1       -0.2499
      4 C          -3.0982    4.0696   24.2322 C.ar    1  UNL1        0.0809
      5 C          -4.4656    4.6830   24.1687 C.ar    1  UNL1        0.0191
      6 C          -5.2862    4.8171   25.4172 C.ar    1  UNL1        0.0015
      7 C          -4.7394    4.3378   26.7292 C.ar    1  UNL1        0.0001
      8 C          -3.3720    3.7245   26.7927 C.ar    1  UNL1        0.0015
      9 C          -2.5514    3.5904   25.5442 C.ar    1  UNL1        0.0175
     10 C          -1.1840    2.9770   25.6078 C.ar    1  UNL1        0.0027
     11 C          -0.3634    2.8429   24.3592 C.ar    1  UNL1        0.0235
     12 C          -0.6372    2.4977   26.9197 C.ar    1  UNL1        0.0177
     13 C          -0.7329    1.0465   27.2870 C.ar    1  UNL1        0.0046
     14 C          -0.1861    0.5673   28.5989 C.ar    1  UNL1        0.0370
     15 C           0.4565    1.5392   29.5437 C.ar    1  UNL1        0.1396
     16 C           0.5522    2.9904   29.1764 C.ar    1  UNL1        0.0478
     17 C           1.1948    3.9623   30.1211 C.ar    1  UNL1       -0.0125
     18 C           1.2905    5.4135   29.7538 C.ar    1  UNL1        0.0166
     19 C           0.7437    5.8928   28.4419 C.ar    1  UNL1        0.0985
     20 N           0.1011    4.9208   27.4971 N.ar    1  UNL1       -0.2438
     21 C           0.0053    3.4697   27.8644 C.ar    1  UNL1        0.0839
     22 C           1.7416    3.4831   31.4331 C.3     1  UNL1        0.0738
     23 C           1.6459    2.0319   31.8004 C.3     1  UNL1        0.2101
     24 O           1.0033    1.0600   30.8556 O.3     1  UNL1       -0.4751
     25 C           1.0040    2.2296   24.4227 C.3     1  UNL1        0.1744
     26 C           2.2116    3.1044   24.5843 C.2     1  UNL1        0.0816
     27 O           2.8741    3.6988   23.3768 O.co2   1  UNL1       -0.5464
     28 O           2.7569    3.3849   25.9532 O.co2   1  UNL1       -0.5464
     29 O           1.1637    0.7413   24.3247 O.3     1  UNL1       -0.3510
     30 C           2.4686    0.1551   23.8736 C.3     1  UNL1        0.0938
     31 C           2.8713   -0.0493   25.3040 C.3     1  UNL1        0.0297
     32 C           2.0659    0.3595   22.4432 C.3     1  UNL1        0.0297
     33 C           3.7736   -0.4310   23.4224 C.3     1  UNL1        0.0297
@<TRIPOS>UNITY_ATOM_ATTR
27 1
charge -1
@<TRIPOS>BOND
     1     1     2    1
     2     2     3   ar
     3     3     4   ar
     4     4     5   ar
     5     5     6   ar
     6     6     7   ar
     7     7     8   ar
     8     8     9   ar
     9     9    10   ar
    10    10    12    1
    11    12    13   ar
    12    13    14   ar
    13    14    15   ar
    14    15    16   ar
    15    16    17   ar
    16    17    18   ar
    17    18    19   ar
    18    19    20   ar
    19    20    21   ar
    20    17    22    1
    21    22    23    1
    22    23    24    1
    23    10    11   ar
    24    11    25    1
    25    25    29    1
    26    29    30    1
    27    30    31    1
    28    30    32    1
    29    30    33    1
    30    25    26    1
    31    26    27   ar
    32    26    28   ar
    33    11     2   ar
    34     9     4   ar
    35    21    12   ar
    36    24    15    1
    37    21    16   ar
@<TRIPOS>MOLECULE
*****
 33 37 0 0 0
SMALL
GASTEIGER

@<TRIPOS>ATOM
      1 C         -10.2631  -19.2152   18.9954 C.3     1  UNL1        0.0518
      2 C          -9.0715  -19.1858   19.9062 C.ar    1  UNL1        0.0580
      3 N          -7.7641  -19.7619   19.4495 N.ar    1  UNL1       -0.2499
      4 C          -6.5726  -19.7325   20.3603 C.ar    1  UNL1        0.0809
      5 C          -5.2651  -20.3086   19.9036 C.ar    1  UNL1        0.0191
      6 C          -4.0736  -20.2792   20.8144 C.ar    1  UNL1        0.0015
      7 C          -4.1896  -19.6737   22.1818 C.ar    1  UNL1        0.0001
      8 C          -5.4971  -19.0976   22.6385 C.ar    1  UNL1        0.0015
      9 C          -6.6885  -19.1270   21.7278 C.ar    1  UNL1        0.0175
     10 C          -7.9960  -18.5509   22.1844 C.ar    1  UNL1        0.0027
     11 C          -9.1875  -18.5803   21.2736 C.ar    1  UNL1        0.0235
     12 C          -8.1120  -17.9454   23.5519 C.ar    1  UNL1        0.0177
     13 C          -9.1752  -18.4231   24.4960 C.ar    1  UNL1        0.0046
     14 C          -9.2912  -17.8176   25.8634 C.ar    1  UNL1        0.0370
     15 C          -8.3440  -16.7343   26.2868 C.ar    1  UNL1        0.1396
     16 C          -7.2808  -16.2565   25.3427 C.ar    1  UNL1        0.0478
     17 C          -6.3336  -15.1732   25.7660 C.ar    1  UNL1       -0.0125
     18 C          -5.2704  -14.6954   24.8219 C.ar    1  UNL1        0.0166
     19 C          -5.1544  -15.3009   23.4545 C.ar    1  UNL1        0.0985
     20 N          -6.1016  -16.3843   23.0311 N.ar    1  UNL1       -0.2438
     21 C          -7.1648  -16.8621   23.9752 C.ar    1  UNL1        0.0839
     22 C          -6.4496  -14.5676   27.1335 C.3     1  UNL1        0.0738
     23 C          -7.5128  -15.0454   28.0775 C.3     1  UNL1        0.2101
     24 O          -8.4600  -16.1288   27.6542 O.3     1  UNL1       -0.4751
     25 C         -10.4950  -18.0041   21.7303 C.3     1  UNL1        0.1744
     26 C         -10.7011  -16.5184   21.7294 C.2     1  UNL1        0.0816
     27 O         -10.7434  -15.7678   20.4313 O.co2   1  UNL1       -0.5464
     28 O         -10.8649  -15.7831   23.0266 O.co2   1  UNL1       -0.5464
     29 O         -11.5965  -18.9138   22.1879 O.3     1  UNL1       -0.3510
     30 C         -12.7385  -18.3642   22.9903 C.3     1  UNL1        0.0938
     31 C         -13.3709  -17.8437   21.7336 C.3     1  UNL1        0.0297
     32 C         -12.1061  -18.8847   24.2469 C.3     1  UNL1        0.0297
     33 C         -13.8805  -17.8146   23.7926 C.3     1  UNL1        0.0297
@<TRIPOS>UNITY_ATOM_ATTR
27 1
charge -1
@<TRIPOS>BOND
     1     1     2    1
     2     2     3   ar
     3     3     4   ar
     4     4     5   ar
     5     5     6   ar
     6     6     7   ar
     7     7     8   ar
     8     8     9   ar
     9     9    10   ar
    10    10    12    1
    11    12    13   ar
    12    13    14   ar
    13    14    15   ar
    14    15    16   ar
    15    16    17   ar
    16    17    18   ar
    17    18    19   ar
    18    19    20   ar
    19    20    21   ar
    20    17    22    1
    21    22    23    1
    22    23    24    1
    23    10    11   ar
    24    11    25    1
    25    25    29    1
    26    29    30    1
    27    30    31    1
    28    30    32    1
    29    30    33    1
    30    25    26    1
    31    26    27   ar
    32    26    28   ar
    33    11     2   ar
    34     9     4   ar
    35    21    12   ar
    36    24    15    1
    37    21    16   ar
@<TRIPOS>MOLECULE
*****
 33 37 0 0 0
SMALL
GASTEIGER

@<TRIPOS>ATOM
      1 C           1.2860    2.3430   21.7798 C.3     1  UNL1        0.0518
      2 C           1.9564    1.4342   22.7671 C.ar    1  UNL1        0.0580
      3 N           1.6688    1.5760   24.2325 N.ar    1  UNL1       -0.2499
      4 C           2.3392    0.6673   25.2197 C.ar    1  UNL1        0.0809
      5 C           2.0515    0.8091   26.6851 C.ar    1  UNL1        0.0191
      6 C           2.7220   -0.0997   27.6724 C.ar    1  UNL1        0.0015
      7 C           3.6800   -1.1502   27.1943 C.ar    1  UNL1        0.0001
      8 C           3.9677   -1.2920   25.7290 C.ar    1  UNL1        0.0015
      9 C           3.2973   -0.3833   24.7417 C.ar    1  UNL1        0.0175
     10 C           3.5849   -0.5251   23.2764 C.ar    1  UNL1        0.0027
     11 C           2.9145    0.3837   22.2891 C.ar    1  UNL1        0.0235
     12 C           4.5429   -1.5756   22.7984 C.ar    1  UNL1        0.0177
     13 C           4.0480   -2.9577   22.4904 C.ar    1  UNL1        0.0046
     14 C           5.0061   -4.0082   22.0124 C.ar    1  UNL1        0.0370
     15 C           6.4591   -3.6767   21.8423 C.ar    1  UNL1        0.1396
     16 C           6.9540   -2.2946   22.1502 C.ar    1  UNL1        0.0478
     17 C           8.4069   -1.9629   21.9801 C.ar    1  UNL1       -0.0125
     18 C           8.9018   -0.5808   22.2881 C.ar    1  UNL1        0.0166
     19 C           7.9438    0.4697   22.7661 C.ar    1  UNL1        0.0985
     20 N           6.4908    0.1381   22.9362 N.ar    1  UNL1       -0.2438
     21 C           5.9959   -1.2440   22.6283 C.ar    1  UNL1        0.0839
     22 C           9.3650   -3.0135   21.5021 C.3     1  UNL1        0.0738
     23 C           8.8701   -4.3956   21.1941 C.3     1  UNL1        0.2101
     24 O           7.4171   -4.7272   21.3642 O.3     1  UNL1       -0.4751
     25 C           3.2021    0.2419   20.8238 C.3     1  UNL1        0.1744
     26 C           2.3516   -0.6570   19.9761 C.2     1  UNL1        0.0816
     27 O           1.0428   -0.1611   19.4362 O.co2   1  UNL1       -0.5464
     28 O           2.8098   -2.0517   19.6682 O.co2   1  UNL1       -0.5464
     29 O           4.3403    0.9990   20.2062 O.3     1  UNL1       -0.3510
     30 C           4.7474    0.7178   18.7902 C.3     1  UNL1        0.0938
     31 C           3.7764    1.7532   18.3053 C.3     1  UNL1        0.0297
     32 C           5.7184   -0.3176   19.2750 C.3     1  UNL1        0.0297
     33 C           5.1546    0.4365   17.3741 C.3     1  UNL1        0.0297
@<TRIPOS>UNITY_ATOM_ATTR
27 1
charge -1
@<TRIPOS>BOND
     1     1     2    1
     2     2     3   ar
     3     3     4   ar
     4     4     5   ar
     5     5     6   ar
     6     6     7   ar
     7     7     8   ar
     8     8     9   ar
     9     9    10   ar
    10    10    12    1
    11    12    13   ar
    12    13    14   ar
    13    14    15   ar
    14    15    16   ar
    15    16    17   ar
    16    17    18   ar
    17    18    19   ar
    18    19    20   ar
    19    20    21   ar
    20    17    22    1
    21    22    23    1
    22    23    24    1
    23    10    11   ar
    24    11    25    1
    25    25    29    1
    26    29    30    1
    27    30    31    1
    28    30    32    1
    29    30    33    1
    30    25    26    1
    31    26    27   ar
    32    26    28   ar
    33    11     2   ar
    34     9     4   ar
    35    21    12   ar
    36    24    15    1
    37    21    16   ar
@<TRIPOS>MOLECULE
*****
 33 37 0 0 0
SMALL
GASTEIGER

@<TRIPOS>ATOM
      1 C           2.6174    3.4622   34.9131 C.3     1  UNL1        0.0518
      2 C           2.5735    2.5155   33.7504 C.ar    1  UNL1        0.0580
      3 N           1.5226    2.6756   32.6921 N.ar    1  UNL1       -0.2499
      4 C           1.4787    1.7290   31.5294 C.ar    1  UNL1        0.0809
      5 C           0.4278    1.8891   30.4712 C.ar    1  UNL1        0.0191
      6 C           0.3839    0.9424   29.3084 C.ar    1  UNL1        0.0015
      7 C           1.3909   -0.1644   29.2040 C.ar    1  UNL1        0.0001
      8 C           2.4419   -0.3245   30.2622 C.ar    1  UNL1        0.0015
      9 C           2.4858    0.6221   31.4249 C.ar    1  UNL1        0.0175
     10 C           3.5367    0.4620   32.4832 C.ar    1  UNL1        0.0027
     11 C           3.5806    1.4088   33.6459 C.ar    1  UNL1        0.0235
     12 C           4.5438   -0.6447   32.3787 C.ar    1  UNL1        0.0177
     13 C           4.2395   -1.9930   32.9614 C.ar    1  UNL1        0.0046
     14 C           5.2466   -3.0997   32.8570 C.ar    1  UNL1        0.0370
     15 C           6.5579   -2.8582   32.1698 C.ar    1  UNL1        0.1396
     16 C           6.8621   -1.5099   31.5871 C.ar    1  UNL1        0.0478
     17 C           8.1734   -1.2683   30.9000 C.ar    1  UNL1       -0.0125
     18 C           8.4776    0.0800   30.3174 C.ar    1  UNL1        0.0166
     19 C           7.4706    1.1867   30.4218 C.ar    1  UNL1        0.0985
     20 N           6.1592    0.9452   31.1089 N.ar    1  UNL1       -0.2438
     21 C           5.8550   -0.4031   31.6916 C.ar    1  UNL1        0.0839
     22 C           9.1805   -2.3751   30.7955 C.3     1  UNL1        0.0738
     23 C           8.8763   -3.7234   31.3782 C.3     1  UNL1        0.2101
     24 O           7.5650   -3.9649   32.0654 O.3     1  UNL1       -0.4751
     25 C           4.6315    1.2487   34.7042 C.3     1  UNL1        0.1744
     26 C           4.3134    0.5125   35.9718 C.2     1  UNL1        0.0816
     27 O           3.5594    1.2016   37.0703 O.co2   1  UNL1       -0.5464
     28 O           4.7494   -0.9128   36.1409 O.co2   1  UNL1       -0.5464
     29 O           6.0006    1.8248   34.4948 O.3     1  UNL1       -0.3510
     30 C           7.0634    1.6299   35.5352 C.3     1  UNL1        0.0938
     31 C           7.5616    0.4211   34.7999 C.3     1  UNL1        0.0297
     32 C           6.5653    2.8387   36.2704 C.3     1  UNL1        0.0297
     33 C           8.1263    1.4351   36.5756 C.3     1  UNL1        0.0297
@<TRIPOS>UNITY_ATOM_ATTR
27 1
charge -1
@<TRIPOS>BOND
     1     1     2    1
     2     2     3   ar
     3     3     4   ar
     4     4     5   ar
     5     5     6   ar
     6     6     7   ar
     7     7     8   ar
     8     8     9   ar
     9     9    10   ar
    10    10    12    1
    11    12    13   ar
    12    13    14   ar
    13    14    15   ar
    14    15    16   ar
    15    16    17   ar
    16    17    18   ar
    17    18    19   ar
    18    19    20   ar
    19    20    21   ar
    20    17    22    1
    21    22    23    1
    22    23    24    1
    23    10    11   ar
    24    11    25    1
    25    25    29    1
    26    29    30    1
    27    30    31    1
    28    30    32    1
    29    30    33    1
    30    25    26    1
    31    26    27   ar
    32    26    28   ar
    33    11     2   ar
    34     9     4   ar
    35    21    12   ar
    36    24    15    1
    37    21    16   ar
@<TRIPOS>MOLECULE
*****
 33 37 0 0 0
SMALL
GASTEIGER

@<TRIPOS>ATOM
      1 C         -10.5195  -19.1302   19.0472 C.3     1  UNL1        0.0518
      2 C          -9.2997  -19.0854   19.9191 C.ar    1  UNL1        0.0580
      3 N          -7.9919  -19.6119   19.4068 N.ar    1  UNL1       -0.2499
      4 C          -6.7721  -19.5671   20.2786 C.ar    1  UNL1        0.0809
      5 C          -5.4643  -20.0937   19.7663 C.ar    1  UNL1        0.0191
      6 C          -4.2445  -20.0488   20.6382 C.ar    1  UNL1        0.0015
      7 C          -4.3325  -19.4774   22.0223 C.ar    1  UNL1        0.0001
      8 C          -5.6403  -18.9508   22.5346 C.ar    1  UNL1        0.0015
      9 C          -6.8601  -18.9956   21.6628 C.ar    1  UNL1        0.0175
     10 C          -8.1679  -18.4691   22.1750 C.ar    1  UNL1        0.0027
     11 C          -9.3877  -18.5139   21.3031 C.ar    1  UNL1        0.0235
     12 C          -8.2559  -17.8976   23.5591 C.ar    1  UNL1        0.0177
     13 C          -9.3056  -18.3925   24.5095 C.ar    1  UNL1        0.0046
     14 C          -9.3936  -17.8211   25.8935 C.ar    1  UNL1        0.0370
     15 C          -8.4319  -16.7547   26.3273 C.ar    1  UNL1        0.1396
     16 C          -7.3822  -16.2598   25.3769 C.ar    1  UNL1        0.0478
     17 C          -6.4205  -15.1935   25.8105 C.ar    1  UNL1       -0.0125
     18 C          -5.3709  -14.6986   24.8601 C.ar    1  UNL1        0.0166
     19 C          -5.2829  -15.2700   23.4761 C.ar    1  UNL1        0.0985
     20 N          -6.2446  -16.3364   23.0423 N.ar    1  UNL1       -0.2438
     21 C          -7.2942  -16.8313   23.9927 C.ar    1  UNL1        0.0839
     22 C          -6.5085  -14.6220   27.1946 C.3     1  UNL1        0.0738
     23 C          -7.5582  -15.1169   28.1451 C.3     1  UNL1        0.2101
     24 O          -8.5199  -16.1833   27.7113 O.3     1  UNL1       -0.4751
     25 C         -10.6955  -17.9873   21.8154 C.3     1  UNL1        0.1744
     26 C         -11.7025  -18.9281   22.4076 C.2     1  UNL1        0.0816
     27 O         -11.4407  -20.4051   22.4063 O.co2   1  UNL1       -0.5464
     28 O         -12.9715  -18.3919   23.0012 O.co2   1  UNL1       -0.5464
     29 O         -10.9962  -16.5199   21.7354 O.3     1  UNL1       -0.3510
     30 C         -11.0447  -15.8359   20.4013 C.3     1  UNL1        0.0938
     31 C          -9.6850  -15.2534   20.6506 C.3     1  UNL1        0.0297
     32 C         -12.4043  -16.4184   20.1521 C.3     1  UNL1        0.0297
     33 C         -11.0931  -15.1519   19.0672 C.3     1  UNL1        0.0297
@<TRIPOS>UNITY_ATOM_ATTR
27 1
charge -1
@<TRIPOS>BOND
     1     1     2    1
     2     2     3   ar
     3     3     4   ar
     4     4     5   ar
     5     5     6   ar
     6     6     7   ar
     7     7     8   ar
     8     8     9   ar
     9     9    10   ar
    10    10    12    1
    11    12    13   ar
    12    13    14   ar
    13    14    15   ar
    14    15    16   ar
    15    16    17   ar
    16    17    18   ar
    17    18    19   ar
    18    19    20   ar
    19    20    21   ar
    20    17    22    1
    21    22    23    1
    22    23    24    1
    23    10    11   ar
    24    11    25    1
    25    25    29    1
    26    29    30    1
    27    30    31    1
    28    30    32    1
    29    30    33    1
    30    25    26    1
    31    26    27   ar
    32    26    28   ar
    33    11     2   ar
    34     9     4   ar
    35    21    12   ar
    36    24    15    1
    37    21    16   ar
