@<TRIPOS>MOLECULE
*****
 30 31 0 0 0
SMALL
GASTEIGER

@<TRIPOS>ATOM
      1 C          -6.2733  -15.7403   24.3794 C.2     1  UNL1        0.2539
      2 O          -6.6228  -15.1911   23.0280 O.2     1  UNL1       -0.2721
      3 N          -5.0549  -16.5989   24.5478 N.am    1  UNL1       -0.2819
      4 H          -4.8255  -16.9594   25.4347 H       1  UNL1        0.1549
      5 C          -4.1861  -16.9083   23.3649 C.ar    1  UNL1        0.0503
      6 C          -3.1824  -15.9009   22.8875 C.ar    1  UNL1        0.0153
      7 C          -2.3136  -16.2103   21.7046 C.ar    1  UNL1        0.0115
      8 C          -2.4483  -17.5271   20.9990 C.ar    1  UNL1        0.0724
      9 C          -3.4519  -18.5345   21.4763 C.ar    1  UNL1        0.0822
     10 C          -4.3208  -18.2251   22.6593 C.ar    1  UNL1        0.0192
     11 C          -3.5867  -19.8513   20.7707 C.3     1  UNL1        0.4192
     12 F          -3.7214  -21.1681   20.0651 F       1  UNL1       -0.1658
     13 F          -2.4029  -20.3776   21.5268 F       1  UNL1       -0.1658
     14 F          -4.7705  -19.3250   20.0146 F       1  UNL1       -0.1658
     15 C          -1.5795  -17.8365   19.8160 C.1     1  UNL1        0.1004
     16 N          -0.7107  -18.1459   18.6330 N.1     1  UNL1       -0.1908
     17 C          -5.9200  -15.2544   26.4138 C.3     1  UNL1        0.0427
     18 C          -7.1422  -15.4309   25.5623 C.3     1  UNL1        0.1971
     19 O          -8.0110  -15.1215   26.7452 O.3     1  UNL1       -0.3751
     20 H          -8.7998  -15.6857   26.7234 H       1  UNL1        0.2110
     21 C          -8.3644  -15.6075   24.7107 C.3     1  UNL1        0.2408
     22 O          -9.0712  -16.9300   24.6783 O.3     1  UNL1       -0.4723
     23 C          -9.3620  -17.5930   23.3645 C.ar    1  UNL1        0.1410
     24 C          -8.2746  -18.3281   22.6385 C.ar    1  UNL1        0.0379
     25 C          -8.5654  -18.9911   21.3248 C.ar    1  UNL1        0.0168
     26 C          -9.9436  -18.9190   20.7371 C.ar    1  UNL1        0.0852
     27 CL        -10.2344  -19.5820   19.4233 Cl      1  UNL1       -0.0799
     28 C         -11.0310  -18.1839   21.4631 C.ar    1  UNL1        0.1536
     29 F         -12.4092  -18.1118   20.8754 F       1  UNL1       -0.2032
     30 C         -10.7402  -17.5209   22.7768 C.ar    1  UNL1        0.0674
@<TRIPOS>BOND
     1    18    17    1
     2    18    19    1
     3    18    21    1
     4    21    22    1
     5    22    23    1
     6    23    24   ar
     7    24    25   ar
     8    25    26   ar
     9    26    27    1
    10    26    28   ar
    11    28    29    1
    12    28    30   ar
    13    18     1    1
    14     1     2    2
    15     1     3   am
    16     3     5    1
    17     5     6   ar
    18     6     7   ar
    19     7     8   ar
    20     8    15    1
    21    15    16    3
    22     8     9   ar
    23     9    11    1
    24    11    12    1
    25    11    13    1
    26    11    14    1
    27     9    10   ar
    28    30    23   ar
    29    10     5   ar
    30    19    20    1
    31     3     4    1
@<TRIPOS>MOLECULE
*****
 30 31 0 0 0
SMALL
GASTEIGER

@<TRIPOS>ATOM
      1 C          -8.6568  -19.0560   21.7118 C.2     1  UNL1        0.2539
      2 O          -8.3275  -17.9114   20.8000 O.2     1  UNL1       -0.2721
      3 N          -7.5774  -20.0023   22.1475 N.am    1  UNL1       -0.2819
      4 H          -7.7935  -20.7535   22.7459 H       1  UNL1        0.1549
      5 C          -6.1689  -19.8038   21.6714 C.ar    1  UNL1        0.0503
      6 C          -5.6215  -20.6627   20.5701 C.ar    1  UNL1        0.0153
      7 C          -4.2130  -20.4642   20.0939 C.ar    1  UNL1        0.0115
      8 C          -3.3519  -19.4070   20.7190 C.ar    1  UNL1        0.0724
      9 C          -3.8993  -18.5482   21.8202 C.ar    1  UNL1        0.0822
     10 C          -5.3079  -18.7466   22.2964 C.ar    1  UNL1        0.0192
     11 C          -3.0382  -17.4909   22.4453 C.3     1  UNL1        0.4192
     12 F          -2.1771  -16.4336   23.0704 F       1  UNL1       -0.1658
     13 F          -3.2368  -18.1244   23.7904 F       1  UNL1       -0.1658
     14 F          -2.8396  -16.8574   21.1002 F       1  UNL1       -0.1658
     15 C          -1.9434  -19.2085   20.2429 C.1     1  UNL1        0.1004
     16 N          -0.5349  -19.0101   19.7668 N.1     1  UNL1       -0.1908
     17 C         -10.4666  -19.7026   20.8139 C.3     1  UNL1        0.0427
     18 C         -10.0652  -19.2544   22.1880 C.3     1  UNL1        0.1971
     19 O         -11.4737  -19.4529   22.6641 O.3     1  UNL1       -0.3751
     20 H         -11.7057  -18.7490   23.2899 H       1  UNL1        0.2110
     21 C          -9.6638  -18.8063   23.5621 C.3     1  UNL1        0.2408
     22 O          -9.7575  -17.3565   23.9353 O.3     1  UNL1       -0.4723
     23 C          -8.5785  -16.6627   24.5506 C.ar    1  UNL1        0.1410
     24 C          -8.5501  -16.3984   26.0268 C.ar    1  UNL1        0.0379
     25 C          -7.3711  -15.7046   26.6420 C.ar    1  UNL1        0.0168
     26 C          -6.2204  -15.2751   25.7809 C.ar    1  UNL1        0.0852
     27 CL         -5.0413  -14.5812   26.3961 Cl      1  UNL1       -0.0799
     28 C          -6.2488  -15.5393   24.3047 C.ar    1  UNL1        0.1536
     29 F          -5.0981  -15.1098   23.4436 F       1  UNL1       -0.2032
     30 C          -7.4278  -16.2331   23.6895 C.ar    1  UNL1        0.0674
@<TRIPOS>BOND
     1    18    17    1
     2    18    19    1
     3    18    21    1
     4    21    22    1
     5    22    23    1
     6    23    24   ar
     7    24    25   ar
     8    25    26   ar
     9    26    27    1
    10    26    28   ar
    11    28    29    1
    12    28    30   ar
    13    18     1    1
    14     1     2    2
    15     1     3   am
    16     3     5    1
    17     5     6   ar
    18     6     7   ar
    19     7     8   ar
    20     8    15    1
    21    15    16    3
    22     8     9   ar
    23     9    11    1
    24    11    12    1
    25    11    13    1
    26    11    14    1
    27     9    10   ar
    28    30    23   ar
    29    10     5   ar
    30    19    20    1
    31     3     4    1
@<TRIPOS>MOLECULE
*****
 30 31 0 0 0
SMALL
GASTEIGER

@<TRIPOS>ATOM
      1 C          -6.7034  -18.5988   21.6516 C.2     1  UNL1        0.2539
      2 O          -7.4188  -17.4268   21.0477 O.2     1  UNL1       -0.2721
      3 N          -7.4185  -19.4985   22.6156 N.am    1  UNL1       -0.2819
      4 H          -6.9490  -20.2677   23.0120 H       1  UNL1        0.1549
      5 C          -8.8489  -19.2262   22.9756 C.ar    1  UNL1        0.0503
      6 C          -9.4503  -19.8636   24.1931 C.ar    1  UNL1        0.0153
      7 C         -10.8808  -19.5914   24.5531 C.ar    1  UNL1        0.0115
      8 C         -11.7099  -18.6817   23.6957 C.ar    1  UNL1        0.0724
      9 C         -11.1086  -18.0444   22.4783 C.ar    1  UNL1        0.0822
     10 C          -9.6781  -18.3166   22.1182 C.ar    1  UNL1        0.0192
     11 C         -11.9377  -17.1347   21.6209 C.3     1  UNL1        0.4192
     12 F         -12.7668  -16.2251   20.7636 F       1  UNL1       -0.1658
     13 F         -11.5185  -15.9631   22.4586 F       1  UNL1       -0.1658
     14 F         -12.3569  -18.3063   20.7833 F       1  UNL1       -0.1658
     15 C         -13.1403  -18.4095   24.0557 C.1     1  UNL1        0.1004
     16 N         -14.5708  -18.1372   24.4158 N.1     1  UNL1       -0.1908
     17 C          -5.7108  -19.4177   19.9651 C.3     1  UNL1        0.0427
     18 C          -5.2729  -18.8711   21.2916 C.3     1  UNL1        0.1971
     19 O          -3.8425  -19.1433   20.9315 O.3     1  UNL1       -0.3751
     20 H          -3.3646  -19.4524   21.7170 H       1  UNL1        0.2110
     21 C          -4.8351  -18.3244   22.6181 C.3     1  UNL1        0.2408
     22 O          -4.9417  -16.8542   22.8955 O.3     1  UNL1       -0.4723
     23 C          -5.7648  -16.3667   24.0509 C.ar    1  UNL1        0.1410
     24 C          -5.1135  -16.0975   25.3750 C.ar    1  UNL1        0.0379
     25 C          -5.9366  -15.6100   26.5304 C.ar    1  UNL1        0.0168
     26 C          -7.4110  -15.3918   26.3616 C.ar    1  UNL1        0.0852
     27 CL         -8.2341  -14.9043   27.5171 Cl      1  UNL1       -0.0799
     28 C          -8.0623  -15.6610   25.0375 C.ar    1  UNL1        0.1536
     29 F          -9.5367  -15.4427   24.8688 F       1  UNL1       -0.2032
     30 C          -7.2392  -16.1484   23.8822 C.ar    1  UNL1        0.0674
@<TRIPOS>BOND
     1    18    17    1
     2    18    19    1
     3    18    21    1
     4    21    22    1
     5    22    23    1
     6    23    24   ar
     7    24    25   ar
     8    25    26   ar
     9    26    27    1
    10    26    28   ar
    11    28    29    1
    12    28    30   ar
    13    18     1    1
    14     1     2    2
    15     1     3   am
    16     3     5    1
    17     5     6   ar
    18     6     7   ar
    19     7     8   ar
    20     8    15    1
    21    15    16    3
    22     8     9   ar
    23     9    11    1
    24    11    12    1
    25    11    13    1
    26    11    14    1
    27     9    10   ar
    28    30    23   ar
    29    10     5   ar
    30    19    20    1
    31     3     4    1
@<TRIPOS>MOLECULE
*****
 30 31 0 0 0
SMALL
GASTEIGER

@<TRIPOS>ATOM
      1 C          -4.7961  -19.2448   20.8704 C.2     1  UNL1        0.2539
      2 O          -5.0725  -18.3526   19.6967 O.2     1  UNL1       -0.2721
      3 N          -5.9090  -19.6255   21.8015 N.am    1  UNL1       -0.2819
      4 H          -5.7276  -20.2111   22.5719 H       1  UNL1        0.1549
      5 C          -7.2980  -19.1140   21.5588 C.ar    1  UNL1        0.0503
      6 C          -8.0827  -19.6055   20.3786 C.ar    1  UNL1        0.0153
      7 C          -9.4717  -19.0940   20.1359 C.ar    1  UNL1        0.0115
      8 C         -10.0761  -18.0911   21.0734 C.ar    1  UNL1        0.0724
      9 C          -9.2915  -17.5996   22.2535 C.ar    1  UNL1        0.0822
     10 C          -7.9024  -18.1111   22.4963 C.ar    1  UNL1        0.0192
     11 C          -9.8959  -16.5967   23.1910 C.3     1  UNL1        0.4192
     12 F         -10.5003  -15.5937   24.1284 F       1  UNL1       -0.1658
     13 F          -9.2906  -15.4826   22.3894 F       1  UNL1       -0.1658
     14 F         -10.5012  -17.7107   23.9925 F       1  UNL1       -0.1658
     15 C         -11.4651  -17.5796   20.8307 C.1     1  UNL1        0.1004
     16 N         -12.8542  -17.0680   20.5880 N.1     1  UNL1       -0.1908
     17 C          -3.4670  -20.5285   19.8286 C.3     1  UNL1        0.0427
     18 C          -3.4071  -19.7562   21.1131 C.3     1  UNL1        0.1971
     19 O          -2.0181  -20.2677   21.3558 O.3     1  UNL1       -0.3751
     20 H          -1.9008  -20.4485   22.3016 H       1  UNL1        0.2110
     21 C          -3.3472  -18.9839   22.3977 C.3     1  UNL1        0.2408
     22 O          -3.6864  -17.5229   22.4109 O.3     1  UNL1       -0.4723
     23 C          -4.3841  -16.9255   23.5969 C.ar    1  UNL1        0.1410
     24 C          -3.9248  -17.2612   24.9848 C.ar    1  UNL1        0.0379
     25 C          -4.6225  -16.6638   26.1706 C.ar    1  UNL1        0.0168
     26 C          -5.7795  -15.7308   25.9686 C.ar    1  UNL1        0.0852
     27 CL         -6.4773  -15.1335   27.1546 Cl      1  UNL1       -0.0799
     28 C          -6.2389  -15.3952   24.5807 C.ar    1  UNL1        0.1536
     29 F          -7.3959  -14.4622   24.3787 F       1  UNL1       -0.2032
     30 C          -5.5411  -15.9925   23.3948 C.ar    1  UNL1        0.0674
@<TRIPOS>BOND
     1    18    17    1
     2    18    19    1
     3    18    21    1
     4    21    22    1
     5    22    23    1
     6    23    24   ar
     7    24    25   ar
     8    25    26   ar
     9    26    27    1
    10    26    28   ar
    11    28    29    1
    12    28    30   ar
    13    18     1    1
    14     1     2    2
    15     1     3   am
    16     3     5    1
    17     5     6   ar
    18     6     7   ar
    19     7     8   ar
    20     8    15    1
    21    15    16    3
    22     8     9   ar
    23     9    11    1
    24    11    12    1
    25    11    13    1
    26    11    14    1
    27     9    10   ar
    28    30    23   ar
    29    10     5   ar
    30    19    20    1
    31     3     4    1
@<TRIPOS>MOLECULE
*****
 30 31 0 0 0
SMALL
GASTEIGER

@<TRIPOS>ATOM
      1 C         -15.0939   -6.4644   18.6196 C.2     1  UNL1        0.2539
      2 O         -15.4958   -5.9098   17.2851 O.2     1  UNL1       -0.2721
      3 N         -14.5963   -5.5445   19.6950 N.am    1  UNL1       -0.2819
      4 H         -14.3325   -5.9085   20.5709 H       1  UNL1        0.1549
      5 C         -14.5007   -4.0702   19.4358 C.ar    1  UNL1        0.0503
      6 C         -15.6697   -3.1789   19.7341 C.ar    1  UNL1        0.0153
      7 C         -15.5741   -1.7046   19.4749 C.ar    1  UNL1        0.0115
      8 C         -14.3095   -1.1215   18.9175 C.ar    1  UNL1        0.0724
      9 C         -13.1404   -2.0127   18.6193 C.ar    1  UNL1        0.0822
     10 C         -13.2360   -3.4871   18.8784 C.ar    1  UNL1        0.0192
     11 C         -11.8758   -1.4296   18.0619 C.3     1  UNL1        0.4192
     12 F         -10.6111   -0.8466   17.5045 F       1  UNL1       -0.1658
     13 F         -11.3296   -1.2860   19.4515 F       1  UNL1       -0.1658
     14 F         -12.4220   -1.5733   16.6723 F       1  UNL1       -0.1658
     15 C         -14.2139    0.3528   18.6584 C.1     1  UNL1        0.1004
     16 N         -14.1182    1.8272   18.3993 N.1     1  UNL1       -0.1908
     17 C         -16.4163   -7.7127   19.7117 C.3     1  UNL1        0.0427
     18 C         -15.1895   -7.9387   18.8787 C.3     1  UNL1        0.1971
     19 O         -15.2851   -9.4130   19.1379 O.3     1  UNL1       -0.3751
     20 H         -14.3943   -9.7800   19.2502 H       1  UNL1        0.2110
     21 C         -13.9626   -8.1646   18.0457 C.3     1  UNL1        0.2408
     22 O         -12.6045   -7.8942   18.6220 O.3     1  UNL1       -0.4723
     23 C         -11.7497   -6.8033   18.0479 C.ar    1  UNL1        0.1410
     24 C         -11.7436   -6.5553   16.5686 C.ar    1  UNL1        0.0379
     25 C         -10.8889   -5.4645   15.9946 C.ar    1  UNL1        0.0168
     26 C         -10.0403   -4.6217   16.8999 C.ar    1  UNL1        0.0852
     27 CL         -9.1855   -3.5309   16.3258 Cl      1  UNL1       -0.0799
     28 C         -10.0464   -4.8697   18.3792 C.ar    1  UNL1        0.1536
     29 F          -9.1978   -4.0269   19.2845 F       1  UNL1       -0.2032
     30 C         -10.9011   -5.9605   18.9532 C.ar    1  UNL1        0.0674
@<TRIPOS>BOND
     1    18    17    1
     2    18    19    1
     3    18    21    1
     4    21    22    1
     5    22    23    1
     6    23    24   ar
     7    24    25   ar
     8    25    26   ar
     9    26    27    1
    10    26    28   ar
    11    28    29    1
    12    28    30   ar
    13    18     1    1
    14     1     2    2
    15     1     3   am
    16     3     5    1
    17     5     6   ar
    18     6     7   ar
    19     7     8   ar
    20     8    15    1
    21    15    16    3
    22     8     9   ar
    23     9    11    1
    24    11    12    1
    25    11    13    1
    26    11    14    1
    27     9    10   ar
    28    30    23   ar
    29    10     5   ar
    30    19    20    1
    31     3     4    1
@<TRIPOS>MOLECULE
*****
 30 31 0 0 0
SMALL
GASTEIGER

@<TRIPOS>ATOM
      1 C          -5.0039  -19.1758   21.2343 C.2     1  UNL1        0.2539
      2 O          -5.4664  -18.4996   19.9777 O.2     1  UNL1       -0.2721
      3 N          -5.9861  -19.4836   22.3255 N.am    1  UNL1       -0.2819
      4 H          -5.6826  -19.9274   23.1502 H       1  UNL1        0.1549
      5 C          -7.4307  -19.1152   22.1601 C.ar    1  UNL1        0.0503
      6 C          -8.1691  -18.4516   23.2847 C.ar    1  UNL1        0.0153
      7 C          -9.6136  -18.0832   23.1193 C.ar    1  UNL1        0.0115
      8 C         -10.3200  -18.3784   21.8294 C.ar    1  UNL1        0.0724
      9 C          -9.5818  -19.0419   20.7048 C.ar    1  UNL1        0.0822
     10 C          -8.1371  -19.4103   20.8702 C.ar    1  UNL1        0.0192
     11 C         -10.2881  -19.3370   19.4149 C.3     1  UNL1        0.4192
     12 F         -10.9945  -19.6322   18.1249 F       1  UNL1       -0.1658
     13 F         -10.0409  -20.8029   19.6149 F       1  UNL1       -0.1658
     14 F         -10.5353  -17.8711   19.2148 F       1  UNL1       -0.1658
     15 C         -11.7646  -18.0100   21.6640 C.1     1  UNL1        0.1004
     16 N         -13.2093  -17.6416   21.4985 N.1     1  UNL1       -0.1908
     17 C          -3.6422  -20.4158   20.1818 C.3     1  UNL1        0.0427
     18 C          -3.5594  -19.5442   21.3997 C.3     1  UNL1        0.1971
     19 O          -2.1148  -19.9126   21.5651 O.3     1  UNL1       -0.3751
     20 H          -1.9116  -20.0087   22.5087 H       1  UNL1        0.2110
     21 C          -3.4766  -18.6725   22.6177 C.3     1  UNL1        0.2408
     22 O          -3.9817  -17.2611   22.5656 O.3     1  UNL1       -0.4723
     23 C          -4.6956  -16.6759   23.7479 C.ar    1  UNL1        0.1410
     24 C          -4.1961  -16.9481   25.1358 C.ar    1  UNL1        0.0379
     25 C          -4.9100  -16.3629   26.3181 C.ar    1  UNL1        0.0168
     26 C          -6.1235  -15.5054   26.1124 C.ar    1  UNL1        0.0852
     27 CL         -6.8374  -14.9202   27.2948 Cl      1  UNL1       -0.0799
     28 C          -6.6230  -15.2332   24.7246 C.ar    1  UNL1        0.1536
     29 F          -7.8365  -14.3758   24.5189 F       1  UNL1       -0.2032
     30 C          -5.9091  -15.8184   23.5423 C.ar    1  UNL1        0.0674
@<TRIPOS>BOND
     1    18    17    1
     2    18    19    1
     3    18    21    1
     4    21    22    1
     5    22    23    1
     6    23    24   ar
     7    24    25   ar
     8    25    26   ar
     9    26    27    1
    10    26    28   ar
    11    28    29    1
    12    28    30   ar
    13    18     1    1
    14     1     2    2
    15     1     3   am
    16     3     5    1
    17     5     6   ar
    18     6     7   ar
    19     7     8   ar
    20     8    15    1
    21    15    16    3
    22     8     9   ar
    23     9    11    1
    24    11    12    1
    25    11    13    1
    26    11    14    1
    27     9    10   ar
    28    30    23   ar
    29    10     5   ar
    30    19    20    1
    31     3     4    1
@<TRIPOS>MOLECULE
*****
 30 31 0 0 0
SMALL
GASTEIGER

@<TRIPOS>ATOM
      1 C           6.2777   -2.9645   23.3702 C.2     1  UNL1        0.2539
      2 O           6.8591   -1.5826   23.3223 O.2     1  UNL1       -0.2721
      3 N           4.8004   -3.1629   23.2014 N.am    1  UNL1       -0.2819
      4 H           4.4188   -4.0699   23.2329 H       1  UNL1        0.1549
      5 C           3.9047   -1.9795   22.9846 C.ar    1  UNL1        0.0503
      6 C           3.5294   -1.1010   24.1412 C.ar    1  UNL1        0.0153
      7 C           2.6337    0.0824   23.9244 C.ar    1  UNL1        0.0115
      8 C           2.1131    0.3874   22.5511 C.ar    1  UNL1        0.0724
      9 C           2.4882   -0.4910   21.3946 C.ar    1  UNL1        0.0822
     10 C           3.3841   -1.6745   21.6113 C.ar    1  UNL1        0.0192
     11 C           1.9677   -0.1859   20.0213 C.3     1  UNL1        0.4192
     12 F           1.4471    0.1191   18.6480 F       1  UNL1       -0.1658
     13 F           3.1815    0.6515   19.7472 F       1  UNL1       -0.1658
     14 F           0.7538   -1.0234   20.2954 F       1  UNL1       -0.1658
     15 C           1.2173    1.5709   22.3343 C.1     1  UNL1        0.1004
     16 N           0.3215    2.7544   22.1176 N.1     1  UNL1       -0.1908
     17 C           6.6988   -4.2472   25.0065 C.3     1  UNL1        0.0427
     18 C           7.1734   -4.1479   23.5870 C.3     1  UNL1        0.1971
     19 O           8.0692   -5.3313   23.8038 O.3     1  UNL1       -0.3751
     20 H           8.9048   -5.1954   23.3303 H       1  UNL1        0.2110
     21 C           7.6481   -4.0486   22.1675 C.3     1  UNL1        0.2408
     22 O           6.8401   -4.6610   21.0620 O.3     1  UNL1       -0.4723
     23 C           6.1264   -3.7814   20.0786 C.ar    1  UNL1        0.1410
     24 C           4.8684   -4.2617   19.4179 C.ar    1  UNL1        0.0379
     25 C           4.1548   -3.3821   18.4346 C.ar    1  UNL1        0.0168
     26 C           4.6992   -2.0221   18.1120 C.ar    1  UNL1        0.0852
     27 CL          3.9855   -1.1425   17.1286 Cl      1  UNL1       -0.0799
     28 C           5.9572   -1.5418   18.7727 C.ar    1  UNL1        0.1536
     29 F           6.5017   -0.1818   18.4501 F       1  UNL1       -0.2032
     30 C           6.6709   -2.4214   19.7560 C.ar    1  UNL1        0.0674
@<TRIPOS>BOND
     1    18    17    1
     2    18    19    1
     3    18    21    1
     4    21    22    1
     5    22    23    1
     6    23    24   ar
     7    24    25   ar
     8    25    26   ar
     9    26    27    1
    10    26    28   ar
    11    28    29    1
    12    28    30   ar
    13    18     1    1
    14     1     2    2
    15     1     3   am
    16     3     5    1
    17     5     6   ar
    18     6     7   ar
    19     7     8   ar
    20     8    15    1
    21    15    16    3
    22     8     9   ar
    23     9    11    1
    24    11    12    1
    25    11    13    1
    26    11    14    1
    27     9    10   ar
    28    30    23   ar
    29    10     5   ar
    30    19    20    1
    31     3     4    1
@<TRIPOS>MOLECULE
*****
 30 31 0 0 0
SMALL
GASTEIGER

@<TRIPOS>ATOM
      1 C           7.9246   -5.6884   23.6887 C.2     1  UNL1        0.2539
      2 O           8.4899   -6.2215   22.4057 O.2     1  UNL1       -0.2721
      3 N           7.0307   -4.4838   23.6712 N.am    1  UNL1       -0.2819
      4 H           6.6597   -4.1339   24.5133 H       1  UNL1        0.1549
      5 C           6.7024   -3.8125   22.3707 C.ar    1  UNL1        0.0503
      6 C           7.5838   -2.7167   21.8487 C.ar    1  UNL1        0.0153
      7 C           7.2554   -2.0453   20.5482 C.ar    1  UNL1        0.0115
      8 C           6.0456   -2.4697   19.7696 C.ar    1  UNL1        0.0724
      9 C           5.1642   -3.5654   20.2915 C.ar    1  UNL1        0.0822
     10 C           5.4925   -4.2368   21.5921 C.ar    1  UNL1        0.0192
     11 C           3.9544   -3.9898   19.5128 C.3     1  UNL1        0.4192
     12 F           2.7445   -4.4141   18.7342 F       1  UNL1       -0.1658
     13 F           4.7526   -5.0846   18.8693 F       1  UNL1       -0.1658
     14 F           3.1561   -2.8949   20.1564 F       1  UNL1       -0.1658
     15 C           5.7172   -1.7983   18.4691 C.1     1  UNL1        0.1004
     16 N           5.3888   -1.1269   17.1685 N.1     1  UNL1       -0.1908
     17 C           8.7538   -7.5606   24.2429 C.3     1  UNL1        0.0427
     18 C           8.2529   -6.3597   24.9893 C.3     1  UNL1        0.1971
     19 O           8.5813   -7.0311   26.2898 O.3     1  UNL1       -0.3751
     20 H           7.8960   -6.8221   26.9436 H       1  UNL1        0.2110
     21 C           7.7521   -5.1588   25.7356 C.3     1  UNL1        0.2408
     22 O           6.5398   -5.2721   26.6116 O.3     1  UNL1       -0.4723
     23 C           6.5858   -4.7701   28.0245 C.ar    1  UNL1        0.1410
     24 C           6.3559   -3.3159   28.3116 C.ar    1  UNL1        0.0379
     25 C           6.4020   -2.8140   29.7244 C.ar    1  UNL1        0.0168
     26 C           6.6779   -3.7663   30.8500 C.ar    1  UNL1        0.0852
     27 CL          6.7239   -3.2643   32.2628 Cl      1  UNL1       -0.0799
     28 C           6.9078   -5.2205   30.5629 C.ar    1  UNL1        0.1536
     29 F           7.1837   -6.1728   31.6885 F       1  UNL1       -0.2032
     30 C           6.8618   -5.7224   29.1501 C.ar    1  UNL1        0.0674
@<TRIPOS>BOND
     1    18    17    1
     2    18    19    1
     3    18    21    1
     4    21    22    1
     5    22    23    1
     6    23    24   ar
     7    24    25   ar
     8    25    26   ar
     9    26    27    1
    10    26    28   ar
    11    28    29    1
    12    28    30   ar
    13    18     1    1
    14     1     2    2
    15     1     3   am
    16     3     5    1
    17     5     6   ar
    18     6     7   ar
    19     7     8   ar
    20     8    15    1
    21    15    16    3
    22     8     9   ar
    23     9    11    1
    24    11    12    1
    25    11    13    1
    26    11    14    1
    27     9    10   ar
    28    30    23   ar
    29    10     5   ar
    30    19    20    1
    31     3     4    1
@<TRIPOS>MOLECULE
*****
 30 31 0 0 0
SMALL
GASTEIGER

@<TRIPOS>ATOM
      1 C           1.2835    1.4899   19.9712 C.2     1  UNL1        0.2539
      2 O           2.7038    1.9421   19.8039 O.2     1  UNL1       -0.2721
      3 N           0.9909    0.1156   20.4966 N.am    1  UNL1       -0.2819
      4 H           0.0586   -0.1812   20.6064 H       1  UNL1        0.1549
      5 C           2.1186   -0.8063   20.8546 C.ar    1  UNL1        0.0503
      6 C           2.7428   -0.7340   22.2167 C.ar    1  UNL1        0.0153
      7 C           3.8706   -1.6559   22.5748 C.ar    1  UNL1        0.0115
      8 C           4.3742   -2.6501   21.5708 C.ar    1  UNL1        0.0724
      9 C           3.7500   -2.7224   20.2087 C.ar    1  UNL1        0.0822
     10 C           2.6222   -1.8004   19.8506 C.ar    1  UNL1        0.0192
     11 C           4.2536   -3.7166   19.2047 C.3     1  UNL1        0.4192
     12 F           4.7572   -4.7107   18.2007 F       1  UNL1       -0.1658
     13 F           5.2879   -2.7310   18.7476 F       1  UNL1       -0.1658
     14 F           3.2193   -4.7021   19.6619 F       1  UNL1       -0.1658
     15 C           5.5019   -3.5720   21.9288 C.1     1  UNL1        0.1004
     16 N           6.6297   -4.4940   22.2869 N.1     1  UNL1       -0.1908
     17 C           0.6941    2.5285   18.2180 C.3     1  UNL1        0.0427
     18 C           0.1557    2.4118   19.6132 C.3     1  UNL1        0.1971
     19 O          -0.9720    3.3337   19.2552 O.3     1  UNL1       -0.3751
     20 H          -1.1633    3.9174   20.0059 H       1  UNL1        0.2110
     21 C          -0.3827    2.2950   21.0084 C.3     1  UNL1        0.2408
     22 O           0.3799    2.8834   22.1583 O.3     1  UNL1       -0.4723
     23 C           0.0040    2.5301   23.5668 C.ar    1  UNL1        0.1410
     24 C           0.7531    1.4542   24.2956 C.ar    1  UNL1        0.0379
     25 C           0.3771    1.1009   25.7041 C.ar    1  UNL1        0.0168
     26 C          -0.7480    1.8235   26.3837 C.ar    1  UNL1        0.0852
     27 CL         -1.1239    1.4702   27.7923 Cl      1  UNL1       -0.0799
     28 C          -1.4971    2.8994   25.6549 C.ar    1  UNL1        0.1536
     29 F          -2.6222    3.6221   26.3346 F       1  UNL1       -0.2032
     30 C          -1.1212    3.2527   24.2465 C.ar    1  UNL1        0.0674
@<TRIPOS>BOND
     1    18    17    1
     2    18    19    1
     3    18    21    1
     4    21    22    1
     5    22    23    1
     6    23    24   ar
     7    24    25   ar
     8    25    26   ar
     9    26    27    1
    10    26    28   ar
    11    28    29    1
    12    28    30   ar
    13    18     1    1
    14     1     2    2
    15     1     3   am
    16     3     5    1
    17     5     6   ar
    18     6     7   ar
    19     7     8   ar
    20     8    15    1
    21    15    16    3
    22     8     9   ar
    23     9    11    1
    24    11    12    1
    25    11    13    1
    26    11    14    1
    27     9    10   ar
    28    30    23   ar
    29    10     5   ar
    30    19    20    1
    31     3     4    1
