@<TRIPOS>MOLECULE
*****
 30 34 0 0 0
SMALL
GASTEIGER

@<TRIPOS>ATOM
      1 C          -2.0845  -20.1979   20.1095 C.3     1  UNL1        0.0950
      2 C          -3.1944  -19.5190   20.8561 C.ar    1  UNL1        0.2063
      3 N          -3.0315  -18.4686   21.9144 N.ar    1  UNL1       -0.2072
      4 C          -4.3984  -18.0717   22.3878 C.ar    1  UNL1        0.1744
      5 C          -4.8557  -17.0812   23.4172 C.ar    1  UNL1        0.2816
      6 O          -3.8481  -16.2760   24.1829 O.2     1  UNL1       -0.2652
      7 N          -6.3207  -16.8958   23.6810 N.ar    1  UNL1       -0.2951
      8 C          -7.3284  -17.7010   22.9152 C.ar    1  UNL1        0.0773
      9 C          -8.7933  -17.5157   23.1789 C.ar    1  UNL1        0.0890
     10 CL         -9.2506  -16.5252   24.2083 Cl      1  UNL1       -0.0794
     11 C          -9.8009  -18.3209   22.4132 C.ar    1  UNL1        0.0878
     12 C          -9.3436  -19.3114   21.3838 C.ar    1  UNL1        0.1543
     13 F         -10.3513  -20.1166   20.6181 F       1  UNL1       -0.2028
     14 C          -7.8786  -19.4968   21.1201 C.ar    1  UNL1        0.0355
     15 C          -6.8710  -18.6916   21.8858 C.ar    1  UNL1        0.0553
     16 C          -5.4061  -18.8769   21.6221 C.ar    1  UNL1        0.1705
     17 O          -4.6619  -19.7714   20.6754 O.2     1  UNL1       -0.4382
     18 N         -11.2659  -18.1356   22.6769 N.pl3   1  UNL1       -0.3050
     19 C         -12.2455  -17.4520   21.7697 C.3     1  UNL1        0.0910
     20 C         -13.5936  -17.4953   22.4262 C.3     1  UNL1        0.0244
     21 C         -13.4470  -18.2057   23.7393 C.3     1  UNL1        0.0357
     22 C         -12.0085  -18.6014   23.8942 C.3     1  UNL1        0.0922
     23 C         -14.5460  -18.4733   24.7243 C.3     1  UNL1        0.0525
     24 C         -15.9574  -18.6427   24.2456 C.3     1  UNL1        0.0169
     25 N         -14.2337  -18.5715   26.1881 N.3     1  UNL1       -0.3221
     26 H         -15.0921  -18.7555   26.7074 H       1  UNL1        0.1188
     27 H         -13.8244  -17.6937   26.5081 H       1  UNL1        0.1188
     28 C          -6.7780  -15.9053   24.7104 C.3     1  UNL1        0.0886
     29 C          -7.3703  -14.5714   25.0566 C.3     1  UNL1        0.0246
     30 C          -6.9778  -15.5235   26.1471 C.3     1  UNL1        0.0246
@<TRIPOS>BOND
     1     1     2    1
     2     2     3   ar
     3     3     4   ar
     4     4     5   ar
     5     5     6    2
     6     5     7   ar
     7     7    28    1
     8    28    29    1
     9    29    30    1
    10     7     8   ar
    11     8     9   ar
    12     9    10    1
    13     9    11   ar
    14    11    18    1
    15    18    19    1
    16    19    20    1
    17    21    20    1
    18    21    23    1
    19    23    24    1
    20    23    25    1
    21    21    22    1
    22    11    12   ar
    23    12    13    1
    24    12    14   ar
    25    14    15   ar
    26    15    16   ar
    27    16    17   ar
    28    17     2   ar
    29    16     4   ar
    30    30    28    1
    31    15     8   ar
    32    22    18    1
    33    25    26    1
    34    25    27    1
@<TRIPOS>MOLECULE
*****
 30 34 0 0 0
SMALL
GASTEIGER

@<TRIPOS>ATOM
      1 C           5.7744   -1.9329   32.2269 C.3     1  UNL1        0.0950
      2 C           6.0979   -2.6172   30.9318 C.ar    1  UNL1        0.2063
      3 N           6.7385   -3.9653   30.7829 N.ar    1  UNL1       -0.2072
      4 C           6.8740   -4.2548   29.3173 C.ar    1  UNL1        0.1744
      5 C           7.4326   -5.4319   28.5742 C.ar    1  UNL1        0.2816
      6 O           7.9894   -6.6012   29.3311 O.2     1  UNL1       -0.2652
      7 N           7.4343   -5.4399   27.0742 N.ar    1  UNL1       -0.2951
      8 C           6.8774   -4.2707   26.3174 C.ar    1  UNL1        0.0773
      9 C           6.8791   -4.2787   24.8174 C.ar    1  UNL1        0.0890
     10 CL          7.4376   -5.4558   24.0743 Cl      1  UNL1       -0.0794
     11 C           6.3222   -3.1094   24.0606 C.ar    1  UNL1        0.0878
     12 C           5.7637   -1.9322   24.8037 C.ar    1  UNL1        0.1543
     13 F           5.2069   -0.7630   24.0468 F       1  UNL1       -0.2028
     14 C           5.7620   -1.9242   26.3037 C.ar    1  UNL1        0.0355
     15 C           6.3189   -3.0935   27.0606 C.ar    1  UNL1        0.0553
     16 C           6.3172   -3.0855   28.5605 C.ar    1  UNL1        0.1705
     17 O           5.8375   -2.0735   29.5583 O.2     1  UNL1       -0.4382
     18 N           6.3239   -3.1174   22.5606 N.pl3   1  UNL1       -0.3050
     19 C           7.4852   -2.7665   21.6784 C.3     1  UNL1        0.0910
     20 C           7.0435   -2.9099   20.2519 C.3     1  UNL1        0.0244
     21 C           5.6093   -3.3494   20.2527 C.3     1  UNL1        0.0357
     22 C           5.1646   -3.4776   21.6795 C.3     1  UNL1        0.0922
     23 C           4.7677   -3.6141   19.0397 C.3     1  UNL1        0.0525
     24 C           3.6446   -4.6061   19.1081 C.3     1  UNL1        0.0169
     25 N           5.0492   -2.8870   17.7583 N.3     1  UNL1       -0.3221
     26 H           4.3857   -3.1874   17.0441 H       1  UNL1        0.1188
     27 H           5.9986   -3.0965   17.4500 H       1  UNL1        0.1188
     28 C           7.9928   -6.6171   26.3311 C.3     1  UNL1        0.0886
     29 C           9.1622   -7.3352   25.7256 C.3     1  UNL1        0.0246
     30 C           7.7908   -7.9379   25.6495 C.3     1  UNL1        0.0246
@<TRIPOS>BOND
     1     1     2    1
     2     2     3   ar
     3     3     4   ar
     4     4     5   ar
     5     5     6    2
     6     5     7   ar
     7     7    28    1
     8    28    29    1
     9    29    30    1
    10     7     8   ar
    11     8     9   ar
    12     9    10    1
    13     9    11   ar
    14    11    18    1
    15    18    19    1
    16    19    20    1
    17    21    20    1
    18    21    23    1
    19    23    24    1
    20    23    25    1
    21    21    22    1
    22    11    12   ar
    23    12    13    1
    24    12    14   ar
    25    14    15   ar
    26    15    16   ar
    27    16    17   ar
    28    17     2   ar
    29    16     4   ar
    30    30    28    1
    31    15     8   ar
    32    22    18    1
    33    25    26    1
    34    25    27    1
@<TRIPOS>MOLECULE
*****
 30 34 0 0 0
SMALL
GASTEIGER

@<TRIPOS>ATOM
      1 C          -1.3551  -18.0962   22.7693 C.3     1  UNL1        0.0950
      2 C          -2.7688  -18.3669   22.3473 C.ar    1  UNL1        0.2063
      3 N          -3.1946  -19.1881   21.1665 N.ar    1  UNL1       -0.2072
      4 C          -4.6940  -19.1926   21.1214 C.ar    1  UNL1        0.1744
      5 C          -5.6678  -19.8363   20.1795 C.ar    1  UNL1        0.2816
      6 O          -5.1670  -20.6547   19.0266 O.2     1  UNL1       -0.2652
      7 N          -7.1426  -19.6614   20.3905 N.ar    1  UNL1       -0.2951
      8 C          -7.6435  -18.8430   21.5434 C.ar    1  UNL1        0.0773
      9 C          -9.1182  -18.6681   21.7544 C.ar    1  UNL1        0.0890
     10 CL        -10.0921  -19.3118   20.8125 Cl      1  UNL1       -0.0794
     11 C          -9.6191  -17.8497   22.9074 C.ar    1  UNL1        0.0878
     12 C          -8.6452  -17.2060   23.8493 C.ar    1  UNL1        0.1543
     13 F          -9.1461  -16.3876   25.0022 F       1  UNL1       -0.2028
     14 C          -7.1704  -17.3809   23.6383 C.ar    1  UNL1        0.0355
     15 C          -6.6695  -18.1993   22.4854 C.ar    1  UNL1        0.0553
     16 C          -5.1948  -18.3742   22.2744 C.ar    1  UNL1        0.1705
     17 O          -4.0050  -17.8638   23.0320 O.2     1  UNL1       -0.4382
     18 N         -11.0938  -17.6748   23.1184 N.pl3   1  UNL1       -0.3050
     19 C         -11.9810  -16.7113   22.3873 C.3     1  UNL1        0.0910
     20 C         -13.3759  -16.8738   22.9147 C.3     1  UNL1        0.0244
     21 C         -13.3507  -17.9379   23.9717 C.3     1  UNL1        0.0357
     22 C         -11.9404  -18.4329   24.0976 C.3     1  UNL1        0.0922
     23 C         -14.5290  -18.4218   24.7637 C.3     1  UNL1        0.0525
     24 C         -15.8323  -18.7000   24.0751 C.3     1  UNL1        0.0169
     25 N         -14.4040  -18.6277   26.2442 N.3     1  UNL1       -0.3221
     26 H         -15.2943  -18.9564   26.6181 H       1  UNL1        0.1188
     27 H         -14.1530  -17.7453   26.6901 H       1  UNL1        0.1188
     28 C          -8.1165  -20.3051   19.4486 C.3     1  UNL1        0.0886
     29 C          -9.3226  -20.2098   18.5618 C.3     1  UNL1        0.0246
     30 C          -8.5973  -21.5151   18.7038 C.3     1  UNL1        0.0246
@<TRIPOS>BOND
     1     1     2    1
     2     2     3   ar
     3     3     4   ar
     4     4     5   ar
     5     5     6    2
     6     5     7   ar
     7     7    28    1
     8    28    29    1
     9    29    30    1
    10     7     8   ar
    11     8     9   ar
    12     9    10    1
    13     9    11   ar
    14    11    18    1
    15    18    19    1
    16    19    20    1
    17    21    20    1
    18    21    23    1
    19    23    24    1
    20    23    25    1
    21    21    22    1
    22    11    12   ar
    23    12    13    1
    24    12    14   ar
    25    14    15   ar
    26    15    16   ar
    27    16    17   ar
    28    17     2   ar
    29    16     4   ar
    30    30    28    1
    31    15     8   ar
    32    22    18    1
    33    25    26    1
    34    25    27    1
@<TRIPOS>MOLECULE
*****
 30 34 0 0 0
SMALL
GASTEIGER

@<TRIPOS>ATOM
      1 C           4.6548   -4.6007   18.6525 C.3     1  UNL1        0.0950
      2 C           4.6373   -3.9166   19.9873 C.ar    1  UNL1        0.2063
      3 N           3.8582   -2.6832   20.3358 N.ar    1  UNL1       -0.2072
      4 C           4.1353   -2.3501   21.7719 C.ar    1  UNL1        0.1744
      5 C           3.6450   -1.2439   22.6584 C.ar    1  UNL1        0.2816
      6 O           2.6945   -0.2163   22.1193 O.2     1  UNL1       -0.2652
      7 N           4.1051   -1.1654   24.0840 N.ar    1  UNL1       -0.2951
      8 C           5.0555   -2.1930   24.6230 C.ar    1  UNL1        0.0773
      9 C           5.5156   -2.1145   26.0485 C.ar    1  UNL1        0.0890
     10 CL          5.0253   -1.0083   26.9349 Cl      1  UNL1       -0.0794
     11 C           6.4660   -3.1422   26.5875 C.ar    1  UNL1        0.0878
     12 C           6.9563   -4.2484   25.7011 C.ar    1  UNL1        0.1543
     13 F           7.9068   -5.2761   26.2402 F       1  UNL1       -0.2028
     14 C           6.4962   -4.3270   24.2755 C.ar    1  UNL1        0.0355
     15 C           5.5458   -3.2993   23.7365 C.ar    1  UNL1        0.0553
     16 C           5.0857   -3.3778   22.3110 C.ar    1  UNL1        0.1705
     17 O           5.3960   -4.3459   21.2080 O.2     1  UNL1       -0.4382
     18 N           6.9261   -3.0636   28.0130 N.pl3   1  UNL1       -0.3050
     19 C           8.1990   -2.4332   28.4952 C.3     1  UNL1        0.0910
     20 C           8.2537   -2.5817   29.9870 C.3     1  UNL1        0.0244
     21 C           7.0146   -3.3039   30.4266 C.3     1  UNL1        0.0357
     22 C           6.1942   -3.6017   29.2067 C.3     1  UNL1        0.0922
     23 C           6.6586   -3.6648   31.8383 C.3     1  UNL1        0.0525
     24 C           6.3941   -2.5845   32.8447 C.3     1  UNL1        0.0169
     25 N           6.5670   -5.1061   32.2436 N.3     1  UNL1       -0.3221
     26 H           6.3166   -5.1665   33.2305 H       1  UNL1        0.1188
     27 H           7.4682   -5.5596   32.0931 H       1  UNL1        0.1188
     28 C           3.6148   -0.0591   24.9704 C.3     1  UNL1        0.0886
     29 C           2.5947    0.4837   25.9268 C.3     1  UNL1        0.0246
     30 C           3.7855    1.3140   25.5494 C.3     1  UNL1        0.0246
@<TRIPOS>BOND
     1     1     2    1
     2     2     3   ar
     3     3     4   ar
     4     4     5   ar
     5     5     6    2
     6     5     7   ar
     7     7    28    1
     8    28    29    1
     9    29    30    1
    10     7     8   ar
    11     8     9   ar
    12     9    10    1
    13     9    11   ar
    14    11    18    1
    15    18    19    1
    16    19    20    1
    17    21    20    1
    18    21    23    1
    19    23    24    1
    20    23    25    1
    21    21    22    1
    22    11    12   ar
    23    12    13    1
    24    12    14   ar
    25    14    15   ar
    26    15    16   ar
    27    16    17   ar
    28    17     2   ar
    29    16     4   ar
    30    30    28    1
    31    15     8   ar
    32    22    18    1
    33    25    26    1
    34    25    27    1
@<TRIPOS>MOLECULE
*****
 30 34 0 0 0
SMALL
GASTEIGER

@<TRIPOS>ATOM
      1 C           4.6085    0.1395   36.6558 C.3     1  UNL1        0.0950
      2 C           4.6856   -0.1791   35.1921 C.ar    1  UNL1        0.2063
      3 N           3.9258    0.5112   34.0983 N.ar    1  UNL1       -0.2072
      4 C           4.3066   -0.1270   32.7953 C.ar    1  UNL1        0.1744
      5 C           3.8758    0.1395   31.3835 C.ar    1  UNL1        0.2816
      6 O           2.8806    1.2241   31.0950 O.2     1  UNL1       -0.2652
      7 N           4.4402   -0.6787   30.2600 N.ar    1  UNL1       -0.2951
      8 C           5.4353   -1.7633   30.5484 C.ar    1  UNL1        0.0773
      9 C           5.9997   -2.5815   29.4250 C.ar    1  UNL1        0.0890
     10 CL          5.5689   -2.3151   28.0132 Cl      1  UNL1       -0.0794
     11 C           6.9949   -3.6661   29.7135 C.ar    1  UNL1        0.0878
     12 C           7.4257   -3.9326   31.1253 C.ar    1  UNL1        0.1543
     13 F           8.4209   -5.0172   31.4138 F       1  UNL1       -0.2028
     14 C           6.8613   -3.1144   32.2488 C.ar    1  UNL1        0.0355
     15 C           5.8662   -2.0298   31.9604 C.ar    1  UNL1        0.0553
     16 C           5.3018   -1.2116   33.0838 C.ar    1  UNL1        0.1705
     17 O           5.5360   -1.2438   34.5650 O.2     1  UNL1       -0.4382
     18 N           7.5592   -4.4843   28.5901 N.pl3   1  UNL1       -0.3050
     19 C           8.8256   -4.1965   27.8394 C.3     1  UNL1        0.0910
     20 C           9.0053   -5.2684   26.8054 C.3     1  UNL1        0.0244
     21 C           7.8500   -6.2186   26.9171 C.3     1  UNL1        0.0357
     22 C           6.9563   -5.7340   28.0201 C.3     1  UNL1        0.0922
     23 C           7.6275   -7.4389   26.0740 C.3     1  UNL1        0.0525
     24 C           8.2691   -7.5438   24.7222 C.3     1  UNL1        0.0169
     25 N           6.7633   -8.5545   26.5825 N.3     1  UNL1       -0.3221
     26 H           6.7226   -9.2980   25.8853 H       1  UNL1        0.1188
     27 H           5.8225   -8.2023   26.7593 H       1  UNL1        0.1188
     28 C           4.0093   -0.4122   28.8481 C.3     1  UNL1        0.0886
     29 C           4.1717    0.3397   27.5604 C.3     1  UNL1        0.0246
     30 C           3.1008   -0.7026   27.6905 C.3     1  UNL1        0.0246
@<TRIPOS>BOND
     1     1     2    1
     2     2     3   ar
     3     3     4   ar
     4     4     5   ar
     5     5     6    2
     6     5     7   ar
     7     7    28    1
     8    28    29    1
     9    29    30    1
    10     7     8   ar
    11     8     9   ar
    12     9    10    1
    13     9    11   ar
    14    11    18    1
    15    18    19    1
    16    19    20    1
    17    21    20    1
    18    21    23    1
    19    23    24    1
    20    23    25    1
    21    21    22    1
    22    11    12   ar
    23    12    13    1
    24    12    14   ar
    25    14    15   ar
    26    15    16   ar
    27    16    17   ar
    28    17     2   ar
    29    16     4   ar
    30    30    28    1
    31    15     8   ar
    32    22    18    1
    33    25    26    1
    34    25    27    1
@<TRIPOS>MOLECULE
*****
 30 34 0 0 0
SMALL
GASTEIGER

@<TRIPOS>ATOM
      1 C           9.4749   -7.2868   31.6557 C.3     1  UNL1        0.0950
      2 C           8.7698   -6.3781   30.6929 C.ar    1  UNL1        0.2063
      3 N           7.9755   -5.1576   31.0529 N.ar    1  UNL1       -0.2072
      4 C           7.4499   -4.5555   29.7836 C.ar    1  UNL1        0.1744
      5 C           6.6045   -3.3443   29.5221 C.ar    1  UNL1        0.2816
      6 O           6.1351   -2.4960   30.6666 O.2     1  UNL1       -0.2652
      7 N           6.2286   -2.9815   28.1160 N.ar    1  UNL1       -0.2951
      8 C           6.6980   -3.8298   26.9715 C.ar    1  UNL1        0.0773
      9 C           6.3220   -3.4670   25.5654 C.ar    1  UNL1        0.0890
     10 CL          5.4767   -2.2558   25.3039 Cl      1  UNL1       -0.0794
     11 C           6.7915   -4.3153   24.4209 C.ar    1  UNL1        0.0878
     12 C           7.6368   -5.5265   24.6824 C.ar    1  UNL1        0.1543
     13 F           8.1063   -6.3748   23.5379 F       1  UNL1       -0.2028
     14 C           8.0128   -5.8893   26.0885 C.ar    1  UNL1        0.0355
     15 C           7.5434   -5.0410   27.2330 C.ar    1  UNL1        0.0553
     16 C           7.9194   -5.4038   28.6391 C.ar    1  UNL1        0.1705
     17 O           8.7351   -6.5302   29.2011 O.2     1  UNL1       -0.4382
     18 N           6.4155   -3.9525   23.0149 N.pl3   1  UNL1       -0.3050
     19 C           7.3600   -3.5157   21.9344 C.3     1  UNL1        0.0910
     20 C           6.5572   -3.2560   20.6941 C.3     1  UNL1        0.0244
     21 C           5.1166   -3.5324   21.0080 C.3     1  UNL1        0.0357
     22 C           5.0291   -3.9628   22.4423 C.3     1  UNL1        0.0922
     23 C           3.9658   -3.4013   20.0551 C.3     1  UNL1        0.0525
     24 C           3.5461   -4.5745   19.2200 C.3     1  UNL1        0.0169
     25 N           3.2345   -2.0969   19.9371 N.3     1  UNL1       -0.3221
     26 H           2.4875   -2.1870   19.2485 H       1  UNL1        0.1188
     27 H           3.8841   -1.3685   19.6407 H       1  UNL1        0.1188
     28 C           5.3832   -1.7703   27.8545 C.3     1  UNL1        0.0886
     29 C           5.2693   -0.2990   27.5857 C.3     1  UNL1        0.0246
     30 C           4.0328   -1.1438   27.6703 C.3     1  UNL1        0.0246
@<TRIPOS>BOND
     1     1     2    1
     2     2     3   ar
     3     3     4   ar
     4     4     5   ar
     5     5     6    2
     6     5     7   ar
     7     7    28    1
     8    28    29    1
     9    29    30    1
    10     7     8   ar
    11     8     9   ar
    12     9    10    1
    13     9    11   ar
    14    11    18    1
    15    18    19    1
    16    19    20    1
    17    21    20    1
    18    21    23    1
    19    23    24    1
    20    23    25    1
    21    21    22    1
    22    11    12   ar
    23    12    13    1
    24    12    14   ar
    25    14    15   ar
    26    15    16   ar
    27    16    17   ar
    28    17     2   ar
    29    16     4   ar
    30    30    28    1
    31    15     8   ar
    32    22    18    1
    33    25    26    1
    34    25    27    1
@<TRIPOS>MOLECULE
*****
 30 34 0 0 0
SMALL
GASTEIGER

@<TRIPOS>ATOM
      1 C          -3.5457    4.0485   26.6430 C.3     1  UNL1        0.0950
      2 C          -2.2964    3.2638   26.3720 C.ar    1  UNL1        0.2063
      3 N          -1.3696    2.6969   27.4062 N.ar    1  UNL1       -0.2072
      4 C          -0.2549    1.9910   26.6927 C.ar    1  UNL1        0.1744
      5 C           0.9460    1.2461   27.1957 C.ar    1  UNL1        0.2816
      6 O           1.1839    1.1155   28.6709 O.2     1  UNL1       -0.2652
      7 N           1.9091    0.6319   26.2234 N.ar    1  UNL1       -0.2951
      8 C           1.6712    0.7626   24.7482 C.ar    1  UNL1        0.0773
      9 C           2.6342    0.1484   23.7759 C.ar    1  UNL1        0.0890
     10 CL          3.8351   -0.5965   24.2789 Cl      1  UNL1       -0.0794
     11 C           2.3964    0.2790   22.3006 C.ar    1  UNL1        0.0878
     12 C           1.1955    1.0239   21.7977 C.ar    1  UNL1        0.1543
     13 F           0.9576    1.1546   20.3224 F       1  UNL1       -0.2028
     14 C           0.2324    1.6381   22.7700 C.ar    1  UNL1        0.0355
     15 C           0.4703    1.5075   24.2452 C.ar    1  UNL1        0.0553
     16 C          -0.4927    2.1217   25.2175 C.ar    1  UNL1        0.1705
     17 O          -1.7545    2.9083   25.0193 O.2     1  UNL1       -0.4382
     18 N           3.3594   -0.3351   21.3284 N.pl3   1  UNL1       -0.3050
     19 C           4.6861    0.2348   20.9222 C.3     1  UNL1        0.0910
     20 C           5.3115   -0.7050   19.9343 C.3     1  UNL1        0.0244
     21 C           4.3712   -1.8558   19.7300 C.3     1  UNL1        0.0357
     22 C           3.1648   -1.6272   20.5915 C.3     1  UNL1        0.0922
     23 C           4.5976   -3.0290   18.8233 C.3     1  UNL1        0.0525
     24 C           3.9458   -4.3461   19.1242 C.3     1  UNL1        0.0169
     25 N           5.4758   -2.8853   17.6158 N.3     1  UNL1       -0.3221
     26 H           5.5174   -3.7745   17.1179 H       1  UNL1        0.1188
     27 H           6.4148   -2.6152   17.9086 H       1  UNL1        0.1188
     28 C           3.1100   -0.1130   26.7264 C.3     1  UNL1        0.0886
     29 C           4.5559   -0.1284   27.1253 C.3     1  UNL1        0.0246
     30 C           3.7441   -1.3876   27.1986 C.3     1  UNL1        0.0246
@<TRIPOS>BOND
     1     1     2    1
     2     2     3   ar
     3     3     4   ar
     4     4     5   ar
     5     5     6    2
     6     5     7   ar
     7     7    28    1
     8    28    29    1
     9    29    30    1
    10     7     8   ar
    11     8     9   ar
    12     9    10    1
    13     9    11   ar
    14    11    18    1
    15    18    19    1
    16    19    20    1
    17    21    20    1
    18    21    23    1
    19    23    24    1
    20    23    25    1
    21    21    22    1
    22    11    12   ar
    23    12    13    1
    24    12    14   ar
    25    14    15   ar
    26    15    16   ar
    27    16    17   ar
    28    17     2   ar
    29    16     4   ar
    30    30    28    1
    31    15     8   ar
    32    22    18    1
    33    25    26    1
    34    25    27    1
@<TRIPOS>MOLECULE
*****
 30 34 0 0 0
SMALL
GASTEIGER

@<TRIPOS>ATOM
      1 C           6.7385   -4.6575   24.7139 C.3     1  UNL1        0.0950
      2 C           6.1241   -3.7893   23.6561 C.ar    1  UNL1        0.2063
      3 N           6.4730   -3.7963   22.1973 N.ar    1  UNL1       -0.2072
      4 C           5.6175   -2.7730   21.5111 C.ar    1  UNL1        0.1744
      5 C           5.5242   -2.3409   20.0777 C.ar    1  UNL1        0.2816
      6 O           6.4019   -2.9805   19.0430 O.2     1  UNL1       -0.2652
      7 N           4.5533   -1.2692   19.6790 N.ar    1  UNL1       -0.2951
      8 C           3.6756   -0.6297   20.7138 C.ar    1  UNL1        0.0773
      9 C           2.7047    0.4419   20.3152 C.ar    1  UNL1        0.0890
     10 CL          2.6115    0.8740   18.8818 Cl      1  UNL1       -0.0794
     11 C           1.8271    1.0815   21.3499 C.ar    1  UNL1        0.0878
     12 C           1.9203    0.6494   22.7833 C.ar    1  UNL1        0.1543
     13 F           1.0426    1.2889   23.8180 F       1  UNL1       -0.2028
     14 C           2.8912   -0.4223   23.1820 C.ar    1  UNL1        0.0355
     15 C           3.7689   -1.0618   22.1472 C.ar    1  UNL1        0.0553
     16 C           4.7398   -2.1335   22.5458 C.ar    1  UNL1        0.1705
     17 O           5.0529   -2.7616   23.8715 O.2     1  UNL1       -0.4382
     18 N           0.8562    2.1531   20.9513 N.pl3   1  UNL1       -0.3050
     19 C           1.1761    3.6062   20.7607 C.3     1  UNL1        0.0910
     20 C          -0.0876    4.3110   20.3649 C.3     1  UNL1        0.0244
     21 C          -1.1884    3.2934   20.3108 C.3     1  UNL1        0.0357
     22 C          -0.6052    1.9599   20.6732 C.3     1  UNL1        0.0922
     23 C          -2.6209    3.5623   19.9566 C.3     1  UNL1        0.0525
     24 C          -2.9546    4.5607   18.8880 C.3     1  UNL1        0.0169
     25 N          -3.7198    2.8328   20.6709 N.3     1  UNL1       -0.3221
     26 H          -4.6226    3.1366   20.3061 H       1  UNL1        0.1188
     27 H          -3.6704    3.0367   21.6691 H       1  UNL1        0.1188
     28 C           4.4601   -0.8372   18.2457 C.3     1  UNL1        0.0886
     29 C           4.9622   -0.0019   17.1054 C.3     1  UNL1        0.0246
     30 C           3.7965   -0.9240   16.9033 C.3     1  UNL1        0.0246
@<TRIPOS>BOND
     1     1     2    1
     2     2     3   ar
     3     3     4   ar
     4     4     5   ar
     5     5     6    2
     6     5     7   ar
     7     7    28    1
     8    28    29    1
     9    29    30    1
    10     7     8   ar
    11     8     9   ar
    12     9    10    1
    13     9    11   ar
    14    11    18    1
    15    18    19    1
    16    19    20    1
    17    21    20    1
    18    21    23    1
    19    23    24    1
    20    23    25    1
    21    21    22    1
    22    11    12   ar
    23    12    13    1
    24    12    14   ar
    25    14    15   ar
    26    15    16   ar
    27    16    17   ar
    28    17     2   ar
    29    16     4   ar
    30    30    28    1
    31    15     8   ar
    32    22    18    1
    33    25    26    1
    34    25    27    1
@<TRIPOS>MOLECULE
*****
 30 34 0 0 0
SMALL
GASTEIGER

@<TRIPOS>ATOM
      1 C          -5.3623    4.9464   25.2759 C.3     1  UNL1        0.0950
      2 C          -4.6342    4.6882   23.9902 C.ar    1  UNL1        0.2063
      3 N          -5.0993    5.0811   22.6193 N.ar    1  UNL1       -0.2072
      4 C          -4.0657    4.6275   21.6314 C.ar    1  UNL1        0.1744
      5 C          -3.9871    4.7405   20.1377 C.ar    1  UNL1        0.2816
      6 O          -5.0910    5.4137   19.3774 O.2     1  UNL1       -0.2652
      7 N          -2.8045    4.1803   19.4043 N.ar    1  UNL1       -0.2951
      8 C          -1.7006    3.5071   20.1647 C.ar    1  UNL1        0.0773
      9 C          -0.5181    2.9469   19.4314 C.ar    1  UNL1        0.0890
     10 CL         -0.4395    3.0599   17.9377 Cl      1  UNL1       -0.0794
     11 C           0.5859    2.2737   20.1917 C.ar    1  UNL1        0.0878
     12 C           0.5073    2.1607   21.6853 C.ar    1  UNL1        0.1543
     13 F           1.6112    1.4875   22.4457 F       1  UNL1       -0.2028
     14 C          -0.6753    2.7209   22.4187 C.ar    1  UNL1        0.0355
     15 C          -1.7792    3.3941   21.6584 C.ar    1  UNL1        0.0553
     16 C          -2.9617    3.9543   22.3917 C.ar    1  UNL1        0.1705
     17 O          -3.3131    3.9918   23.8495 O.2     1  UNL1       -0.4382
     18 N           1.7684    1.7135   19.4584 N.pl3   1  UNL1       -0.3050
     19 C           2.9954    2.4747   19.0521 C.3     1  UNL1        0.0910
     20 C           3.9169    1.5253   18.3451 C.3     1  UNL1        0.0244
     21 C           3.2594    0.1774   18.3146 C.3     1  UNL1        0.0357
     22 C           1.9316    0.2937   19.0026 C.3     1  UNL1        0.0922
     23 C           3.8296   -1.0681   17.7034 C.3     1  UNL1        0.0525
     24 C           4.4440   -2.1197   18.5789 C.3     1  UNL1        0.0169
     25 N           3.7854   -1.2619   16.2167 N.3     1  UNL1       -0.3221
     26 H           4.2138   -2.1562   15.9775 H       1  UNL1        0.1188
     27 H           4.2969   -0.5069   15.7600 H       1  UNL1        0.1188
     28 C          -2.7260    4.2933   17.9107 C.3     1  UNL1        0.0886
     29 C          -2.2554    5.0203   16.6859 C.3     1  UNL1        0.0246
     30 C          -3.0604    3.7622   16.5484 C.3     1  UNL1        0.0246
@<TRIPOS>BOND
     1     1     2    1
     2     2     3   ar
     3     3     4   ar
     4     4     5   ar
     5     5     6    2
     6     5     7   ar
     7     7    28    1
     8    28    29    1
     9    29    30    1
    10     7     8   ar
    11     8     9   ar
    12     9    10    1
    13     9    11   ar
    14    11    18    1
    15    18    19    1
    16    19    20    1
    17    21    20    1
    18    21    23    1
    19    23    24    1
    20    23    25    1
    21    21    22    1
    22    11    12   ar
    23    12    13    1
    24    12    14   ar
    25    14    15   ar
    26    15    16   ar
    27    16    17   ar
    28    17     2   ar
    29    16     4   ar
    30    30    28    1
    31    15     8   ar
    32    22    18    1
    33    25    26    1
    34    25    27    1
