@<TRIPOS>MOLECULE
*****
 31 34 0 0 0
SMALL
GASTEIGER

@<TRIPOS>ATOM
      1 C           7.5381   -3.6169   30.9700 C.3     1  UNL1        0.0344
      2 C           6.5764   -2.7709   30.1893 C.ar    1  UNL1        0.0197
      3 C           6.3676   -2.8150   28.7045 C.ar    1  UNL1        0.1530
      4 N           5.3168   -1.8036   28.3539 N.ar    1  UNL1       -0.1607
      5 N           4.8761   -1.1345   29.6219 N.ar    1  UNL1       -0.2290
      6 C           5.6545   -1.7323   30.7563 C.ar    1  UNL1        0.0804
      7 C           3.8390   -0.0568   29.7357 C.ar    1  UNL1        0.0933
      8 C           2.3824   -0.4149   29.7387 C.ar    1  UNL1        0.0209
      9 C           1.3452    0.6627   29.8524 C.ar    1  UNL1        0.0130
     10 C           1.7648    2.0987   29.9631 C.ar    1  UNL1        0.0586
     11 CL          0.7277    3.1764   30.0769 Cl      1  UNL1       -0.0822
     12 C           3.2214    2.4568   29.9601 C.ar    1  UNL1        0.0243
     13 C           4.2584    1.3791   29.8464 C.ar    1  UNL1        0.0761
     14 CL          5.7150    1.7373   29.8434 Cl      1  UNL1       -0.0806
     15 C           5.5325   -1.3573   32.2036 C.ar    1  UNL1        0.0175
     16 C           4.4039   -1.9031   33.0272 C.ar    1  UNL1        0.0024
     17 C           4.2819   -1.5281   34.4744 C.ar    1  UNL1        0.0114
     18 C           5.2885   -0.6073   35.0980 C.ar    1  UNL1        0.0577
     19 CL          5.1664   -0.2323   36.5452 Cl      1  UNL1       -0.0822
     20 C           6.4171   -0.0615   34.2744 C.ar    1  UNL1        0.0114
     21 C           6.5391   -0.4365   32.8271 C.ar    1  UNL1        0.0024
     22 C           7.0841   -3.7128   27.7398 C.2     1  UNL1        0.2782
     23 O           8.5795   -3.6605   27.6354 O.2     1  UNL1       -0.2671
     24 N           6.3050   -4.6630   26.8794 N.am    1  UNL1       -0.2417
     25 H           5.3235   -4.6973   26.9479 H       1  UNL1        0.1696
     26 N           7.0214   -5.5609   25.9147 N.3     1  UNL1       -0.2057
     27 C           7.4483   -5.0352   24.5763 C.3     1  UNL1        0.0919
     28 C           8.1646   -5.9330   23.6116 C.3     1  UNL1        0.0191
     29 C           8.4542   -7.3566   23.9854 C.3     1  UNL1        0.0030
     30 C           8.0273   -7.8822   25.3238 C.3     1  UNL1        0.0191
     31 C           7.3110   -6.9844   26.2884 C.3     1  UNL1        0.0919
@<TRIPOS>BOND
     1     1     2    1
     2     2     3   ar
     3     3    22    1
     4    22    23    2
     5    22    24   am
     6    24    26    1
     7    26    27    1
     8    27    28    1
     9    28    29    1
    10    29    30    1
    11    30    31    1
    12     3     4   ar
    13     4     5   ar
    14     5     7    1
    15     7     8   ar
    16     8     9   ar
    17     9    10   ar
    18    10    11    1
    19    10    12   ar
    20    12    13   ar
    21    13    14    1
    22     5     6   ar
    23     6    15    1
    24    15    16   ar
    25    16    17   ar
    26    17    18   ar
    27    18    19    1
    28    18    20   ar
    29    20    21   ar
    30     6     2   ar
    31    21    15   ar
    32    31    26    1
    33    13     7   ar
    34    24    25    1
@<TRIPOS>MOLECULE
*****
 31 34 0 0 0
SMALL
GASTEIGER

@<TRIPOS>ATOM
      1 C           4.8204   -1.4676   26.5817 C.3     1  UNL1        0.0344
      2 C           5.3032   -1.7752   27.9682 C.ar    1  UNL1        0.0197
      3 C           6.3580   -2.7775   28.3324 C.ar    1  UNL1        0.1530
      4 N           6.5226   -2.7563   29.8232 N.ar    1  UNL1       -0.1607
      5 N           5.5695   -1.7410   30.3804 N.ar    1  UNL1       -0.2290
      6 C           4.8158   -1.1345   29.2339 C.ar    1  UNL1        0.0804
      7 C           5.3998   -1.3930   31.8295 C.ar    1  UNL1        0.0933
      8 C           4.4585   -2.1868   32.6862 C.ar    1  UNL1        0.0209
      9 C           4.2888   -1.8390   34.1354 C.ar    1  UNL1        0.0130
     10 C           5.0605   -0.6972   34.7279 C.ar    1  UNL1        0.0586
     11 CL          4.8908   -0.3493   36.1771 Cl      1  UNL1       -0.0822
     12 C           6.0018    0.0966   33.8713 C.ar    1  UNL1        0.0243
     13 C           6.1714   -0.2513   32.4221 C.ar    1  UNL1        0.0761
     14 CL          7.1127    0.5424   31.5655 Cl      1  UNL1       -0.0806
     15 C           3.7601   -0.0738   29.3354 C.ar    1  UNL1        0.0175
     16 C           4.1503    1.3745   29.3419 C.ar    1  UNL1        0.0024
     17 C           3.0947    2.4353   29.4434 C.ar    1  UNL1        0.0114
     18 C           1.6487    2.0477   29.5384 C.ar    1  UNL1        0.0577
     19 CL          0.5931    3.1084   29.6399 Cl      1  UNL1       -0.0822
     20 C           1.2585    0.5993   29.5320 C.ar    1  UNL1        0.0114
     21 C           2.3142   -0.4614   29.4305 C.ar    1  UNL1        0.0024
     22 C           7.1154   -3.6482   27.3740 C.2     1  UNL1        0.2782
     23 O           8.6009   -3.4944   27.2344 O.2     1  UNL1       -0.2671
     24 N           6.3872   -4.6725   26.5552 N.am    1  UNL1       -0.2417
     25 H           5.4121   -4.7734   26.6468 H       1  UNL1        0.1696
     26 N           7.1445   -5.5431   25.5968 N.3     1  UNL1       -0.2057
     27 C           7.5332   -6.9359   25.9954 C.3     1  UNL1        0.0919
     28 C           8.2905   -7.8065   25.0369 C.3     1  UNL1        0.0191
     29 C           8.6591   -7.2842   23.6800 C.3     1  UNL1        0.0030
     30 C           8.2704   -5.8914   23.2814 C.3     1  UNL1        0.0191
     31 C           7.5131   -5.0208   24.2398 C.3     1  UNL1        0.0919
@<TRIPOS>BOND
     1     1     2    1
     2     2     3   ar
     3     3    22    1
     4    22    23    2
     5    22    24   am
     6    24    26    1
     7    26    27    1
     8    27    28    1
     9    28    29    1
    10    29    30    1
    11    30    31    1
    12     3     4   ar
    13     4     5   ar
    14     5     7    1
    15     7     8   ar
    16     8     9   ar
    17     9    10   ar
    18    10    11    1
    19    10    12   ar
    20    12    13   ar
    21    13    14    1
    22     5     6   ar
    23     6    15    1
    24    15    16   ar
    25    16    17   ar
    26    17    18   ar
    27    18    19    1
    28    18    20   ar
    29    20    21   ar
    30     6     2   ar
    31    21    15   ar
    32    31    26    1
    33    13     7   ar
    34    24    25    1
@<TRIPOS>MOLECULE
*****
 31 34 0 0 0
SMALL
GASTEIGER

@<TRIPOS>ATOM
      1 C          -0.2052    3.1748   23.3742 C.3     1  UNL1        0.0344
      2 C           0.1441    2.4504   22.1080 C.ar    1  UNL1        0.0197
      3 C          -0.6325    2.4922   20.8253 C.ar    1  UNL1        0.1530
      4 N           0.0747    1.6247   19.8268 N.ar    1  UNL1       -0.1607
      5 N           1.2884    1.0466   20.4922 N.ar    1  UNL1       -0.2290
      6 C           1.3313    1.5569   21.9022 C.ar    1  UNL1        0.0804
      7 C           2.2842    0.1208   19.8590 C.ar    1  UNL1        0.0933
      8 C           2.2930   -1.3342   20.2235 C.ar    1  UNL1        0.0209
      9 C           3.2889   -2.2601   19.5904 C.ar    1  UNL1        0.0130
     10 C           4.2761   -1.7309   18.5926 C.ar    1  UNL1        0.0586
     11 CL          5.2720   -2.6568   17.9594 Cl      1  UNL1       -0.0822
     12 C           4.2674   -0.2759   18.2281 C.ar    1  UNL1        0.0243
     13 C           3.2715    0.6499   18.8613 C.ar    1  UNL1        0.0761
     14 CL          3.2628    2.1049   18.4969 Cl      1  UNL1       -0.0806
     15 C           2.3776    1.2310   22.9263 C.ar    1  UNL1        0.0175
     16 C           2.3056   -0.0594   23.6877 C.ar    1  UNL1        0.0024
     17 C           3.3519   -0.3853   24.7119 C.ar    1  UNL1        0.0114
     18 C           4.4702    0.5792   24.9747 C.ar    1  UNL1        0.0577
     19 CL          5.5166    0.2533   25.9989 Cl      1  UNL1       -0.0822
     20 C           4.5423    1.8696   24.2133 C.ar    1  UNL1        0.0114
     21 C           3.4960    2.1955   23.1891 C.ar    1  UNL1        0.0024
     22 C          -1.8947    3.2659   20.5837 C.2     1  UNL1        0.2782
     23 O          -1.8242    4.7081   20.1772 O.2     1  UNL1       -0.2671
     24 N          -3.2273    2.5974   20.7486 N.am    1  UNL1       -0.2417
     25 H          -3.2735    1.6509   21.0153 H       1  UNL1        0.1696
     26 N          -4.4895    3.3711   20.5069 N.3     1  UNL1       -0.2057
     27 C          -5.2712    3.9123   21.6671 C.3     1  UNL1        0.0919
     28 C          -6.5334    4.6859   21.4254 C.3     1  UNL1        0.0191
     29 C          -7.0138    4.9183   20.0236 C.3     1  UNL1        0.0030
     30 C          -6.2321    4.3772   18.8634 C.3     1  UNL1        0.0191
     31 C          -4.9700    3.6035   19.1051 C.3     1  UNL1        0.0919
@<TRIPOS>BOND
     1     1     2    1
     2     2     3   ar
     3     3    22    1
     4    22    23    2
     5    22    24   am
     6    24    26    1
     7    26    27    1
     8    27    28    1
     9    28    29    1
    10    29    30    1
    11    30    31    1
    12     3     4   ar
    13     4     5   ar
    14     5     7    1
    15     7     8   ar
    16     8     9   ar
    17     9    10   ar
    18    10    11    1
    19    10    12   ar
    20    12    13   ar
    21    13    14    1
    22     5     6   ar
    23     6    15    1
    24    15    16   ar
    25    16    17   ar
    26    17    18   ar
    27    18    19    1
    28    18    20   ar
    29    20    21   ar
    30     6     2   ar
    31    21    15   ar
    32    31    26    1
    33    13     7   ar
    34    24    25    1
@<TRIPOS>MOLECULE
*****
 31 34 0 0 0
SMALL
GASTEIGER

@<TRIPOS>ATOM
      1 C           0.4111    3.3060   18.0656 C.3     1  UNL1        0.0344
      2 C           0.5375    2.5468   19.3531 C.ar    1  UNL1        0.0197
      3 C          -0.4629    2.5334   20.4707 C.ar    1  UNL1        0.1530
      4 N           0.0678    1.6460   21.5574 N.ar    1  UNL1       -0.1607
      5 N           1.3962    1.1108   21.1114 N.ar    1  UNL1       -0.2290
      6 C           1.6865    1.6675   19.7490 C.ar    1  UNL1        0.0804
      7 C           2.2792    0.1821   21.8908 C.ar    1  UNL1        0.0933
      8 C           2.7798   -1.0831   21.2594 C.ar    1  UNL1        0.0209
      9 C           3.6629   -2.0120   22.0388 C.ar    1  UNL1        0.0130
     10 C           4.0454   -1.6755   23.4497 C.ar    1  UNL1        0.0586
     11 CL          4.9285   -2.6043   24.2292 Cl      1  UNL1       -0.0822
     12 C           3.5448   -0.4103   24.0811 C.ar    1  UNL1        0.0243
     13 C           2.6618    0.5185   23.3017 C.ar    1  UNL1        0.0761
     14 CL          2.1612    1.7837   23.9331 Cl      1  UNL1       -0.0806
     15 C           2.9108    1.3931   18.9270 C.ar    1  UNL1        0.0175
     16 C           2.9761    0.1675   18.0647 C.ar    1  UNL1        0.0024
     17 C           4.2004   -0.1069   17.2427 C.ar    1  UNL1        0.0114
     18 C           5.3595    0.8443   17.2830 C.ar    1  UNL1        0.0577
     19 CL          6.5838    0.5699   16.4609 Cl      1  UNL1       -0.0822
     20 C           5.2942    2.0700   18.1453 C.ar    1  UNL1        0.0114
     21 C           4.0699    2.3444   18.9673 C.ar    1  UNL1        0.0024
     22 C          -1.7654    3.2771   20.4970 C.2     1  UNL1        0.2782
     23 O          -1.7727    4.7771   20.4979 O.2     1  UNL1       -0.2671
     24 N          -3.0604    2.5207   20.5224 N.am    1  UNL1       -0.2417
     25 H          -3.0556    1.5363   20.5219 H       1  UNL1        0.1696
     26 N          -4.3629    3.2644   20.5487 N.3     1  UNL1       -0.2057
     27 C          -4.9645    3.6773   21.8593 C.3     1  UNL1        0.0919
     28 C          -6.2669    4.4209   21.8855 C.3     1  UNL1        0.0191
     29 C          -6.9678    4.7516   20.6012 C.3     1  UNL1        0.0030
     30 C          -6.3662    4.3387   19.2907 C.3     1  UNL1        0.0191
     31 C          -5.0638    3.5951   19.2644 C.3     1  UNL1        0.0919
@<TRIPOS>BOND
     1     1     2    1
     2     2     3   ar
     3     3    22    1
     4    22    23    2
     5    22    24   am
     6    24    26    1
     7    26    27    1
     8    27    28    1
     9    28    29    1
    10    29    30    1
    11    30    31    1
    12     3     4   ar
    13     4     5   ar
    14     5     7    1
    15     7     8   ar
    16     8     9   ar
    17     9    10   ar
    18    10    11    1
    19    10    12   ar
    20    12    13   ar
    21    13    14    1
    22     5     6   ar
    23     6    15    1
    24    15    16   ar
    25    16    17   ar
    26    17    18   ar
    27    18    19    1
    28    18    20   ar
    29    20    21   ar
    30     6     2   ar
    31    21    15   ar
    32    31    26    1
    33    13     7   ar
    34    24    25    1
@<TRIPOS>MOLECULE
*****
 31 34 0 0 0
SMALL
GASTEIGER

@<TRIPOS>ATOM
      1 C          -0.6397    2.9015   23.4768 C.3     1  UNL1        0.0344
      2 C          -1.4265    3.1241   22.2192 C.ar    1  UNL1        0.0197
      3 C          -0.9936    2.7551   20.8313 C.ar    1  UNL1        0.1530
      4 N          -2.0839    3.1578   19.8831 N.ar    1  UNL1       -0.1607
      5 N          -3.1907    3.7757   20.6850 N.ar    1  UNL1       -0.2290
      6 C          -2.7845    3.7550   22.1289 C.ar    1  UNL1        0.0804
      7 C          -4.4778    4.3190   20.1390 C.ar    1  UNL1        0.0933
      8 C          -5.5786    3.3813   19.7405 C.ar    1  UNL1        0.0209
      9 C          -6.8658    3.9245   19.1945 C.ar    1  UNL1        0.0130
     10 C          -7.0521    5.4057   19.0470 C.ar    1  UNL1        0.0586
     11 CL         -8.3392    5.9490   18.5010 Cl      1  UNL1       -0.0822
     12 C          -5.9512    6.3434   19.4455 C.ar    1  UNL1        0.0243
     13 C          -4.6642    5.8001   19.9915 C.ar    1  UNL1        0.0761
     14 CL         -3.5633    6.7378   20.3900 Cl      1  UNL1       -0.0806
     15 C          -3.5940    4.2739   23.2801 C.ar    1  UNL1        0.0175
     16 C          -3.3733    5.6696   23.7835 C.ar    1  UNL1        0.0024
     17 C          -4.1828    6.1885   24.9347 C.ar    1  UNL1        0.0114
     18 C          -5.2130    5.3116   25.5826 C.ar    1  UNL1        0.0577
     19 CL         -6.0225    5.8305   26.7339 Cl      1  UNL1       -0.0822
     20 C          -5.4337    3.9159   25.0793 C.ar    1  UNL1        0.0114
     21 C          -4.6242    3.3970   23.9280 C.ar    1  UNL1        0.0024
     22 C           0.3022    2.0986   20.4572 C.2     1  UNL1        0.2782
     23 O           1.6001    2.8133   20.6914 O.2     1  UNL1       -0.2671
     24 N           0.3002    0.7274   19.8490 N.am    1  UNL1       -0.2417
     25 H          -0.5516    0.2584   19.6954 H       1  UNL1        0.1696
     26 N           1.5961    0.0709   19.4750 N.3     1  UNL1       -0.2057
     27 C           2.2905    0.4535   18.2017 C.3     1  UNL1        0.0919
     28 C           3.5863   -0.2030   17.8277 C.3     1  UNL1        0.0191
     29 C           4.1876   -1.2421   18.7270 C.3     1  UNL1        0.0030
     30 C           3.4931   -1.6247   20.0003 C.3     1  UNL1        0.0191
     31 C           2.1974   -0.9681   20.3743 C.3     1  UNL1        0.0919
@<TRIPOS>BOND
     1     1     2    1
     2     2     3   ar
     3     3    22    1
     4    22    23    2
     5    22    24   am
     6    24    26    1
     7    26    27    1
     8    27    28    1
     9    28    29    1
    10    29    30    1
    11    30    31    1
    12     3     4   ar
    13     4     5   ar
    14     5     7    1
    15     7     8   ar
    16     8     9   ar
    17     9    10   ar
    18    10    11    1
    19    10    12   ar
    20    12    13   ar
    21    13    14    1
    22     5     6   ar
    23     6    15    1
    24    15    16   ar
    25    16    17   ar
    26    17    18   ar
    27    18    19    1
    28    18    20   ar
    29    20    21   ar
    30     6     2   ar
    31    21    15   ar
    32    31    26    1
    33    13     7   ar
    34    24    25    1
@<TRIPOS>MOLECULE
*****
 31 34 0 0 0
SMALL
GASTEIGER

@<TRIPOS>ATOM
      1 C           8.9510   -3.3061   21.4356 C.3     1  UNL1        0.0344
      2 C           7.5003   -3.1558   21.7863 C.ar    1  UNL1        0.0197
      3 C           6.7622   -3.9316   22.8368 C.ar    1  UNL1        0.1530
      4 N           5.3387   -3.4586   22.8478 N.ar    1  UNL1       -0.1607
      5 N           5.1971   -2.3906   21.8042 N.ar    1  UNL1       -0.2290
      6 C           6.5330   -2.2034   21.1481 C.ar    1  UNL1        0.0804
      7 C           3.9402   -1.6413   21.4745 C.ar    1  UNL1        0.0933
      8 C           3.4904   -0.5093   22.3499 C.ar    1  UNL1        0.0209
      9 C           2.2335    0.2401   22.0203 C.ar    1  UNL1        0.0130
     10 C           1.4264   -0.1425   20.8152 C.ar    1  UNL1        0.0586
     11 CL          0.1695    0.6068   20.4855 Cl      1  UNL1       -0.0822
     12 C           1.8762   -1.2745   19.9398 C.ar    1  UNL1        0.0243
     13 C           3.1331   -2.0238   20.2695 C.ar    1  UNL1        0.0761
     14 CL          3.5829   -3.1558   19.3941 Cl      1  UNL1       -0.0806
     15 C           6.8465   -1.2340   20.0472 C.ar    1  UNL1        0.0175
     16 C           6.5479   -1.5952   18.6223 C.ar    1  UNL1        0.0024
     17 C           6.8615   -0.6258   17.5214 C.ar    1  UNL1        0.0114
     18 C           7.4736    0.7047   17.8454 C.ar    1  UNL1        0.0577
     19 CL          7.7871    1.6741   16.7445 Cl      1  UNL1       -0.0822
     20 C           7.7721    1.0659   19.2704 C.ar    1  UNL1        0.0114
     21 C           7.4586    0.0965   20.3713 C.ar    1  UNL1        0.0024
     22 C           7.3452   -4.9938   23.7209 C.2     1  UNL1        0.2782
     23 O           8.0294   -6.1827   23.1138 O.2     1  UNL1       -0.2671
     24 N           7.2441   -4.8672   25.2121 N.am    1  UNL1       -0.2417
     25 H           6.7950   -4.0870   25.6106 H       1  UNL1        0.1696
     26 N           7.8272   -5.9295   26.0963 N.3     1  UNL1       -0.2057
     27 C           8.9527   -5.5942   27.0293 C.3     1  UNL1        0.0919
     28 C           9.5358   -6.6564   27.9134 C.3     1  UNL1        0.0191
     29 C           8.9932   -8.0540   27.8645 C.3     1  UNL1        0.0030
     30 C           7.8676   -8.3893   26.9315 C.3     1  UNL1        0.0191
     31 C           7.2846   -7.3271   26.0474 C.3     1  UNL1        0.0919
@<TRIPOS>BOND
     1     1     2    1
     2     2     3   ar
     3     3    22    1
     4    22    23    2
     5    22    24   am
     6    24    26    1
     7    26    27    1
     8    27    28    1
     9    28    29    1
    10    29    30    1
    11    30    31    1
    12     3     4   ar
    13     4     5   ar
    14     5     7    1
    15     7     8   ar
    16     8     9   ar
    17     9    10   ar
    18    10    11    1
    19    10    12   ar
    20    12    13   ar
    21    13    14    1
    22     5     6   ar
    23     6    15    1
    24    15    16   ar
    25    16    17   ar
    26    17    18   ar
    27    18    19    1
    28    18    20   ar
    29    20    21   ar
    30     6     2   ar
    31    21    15   ar
    32    31    26    1
    33    13     7   ar
    34    24    25    1
@<TRIPOS>MOLECULE
*****
 31 34 0 0 0
SMALL
GASTEIGER

@<TRIPOS>ATOM
      1 C           4.7050   -1.5489   27.3325 C.3     1  UNL1        0.0344
      2 C           5.3624   -1.6857   28.6738 C.ar    1  UNL1        0.0197
      3 C           6.4720   -2.6341   29.0193 C.ar    1  UNL1        0.1530
      4 N           6.8210   -2.4327   30.4642 N.ar    1  UNL1       -0.1607
      5 N           5.9271   -1.3598   31.0117 N.ar    1  UNL1       -0.2290
      6 C           5.0256   -0.8981   29.9052 C.ar    1  UNL1        0.0804
      7 C           5.9335   -0.8398   32.4186 C.ar    1  UNL1        0.0933
      8 C           6.8144    0.3172   32.7866 C.ar    1  UNL1        0.0209
      9 C           6.8209    0.8373   34.1935 C.ar    1  UNL1        0.0130
     10 C           5.9464    0.2002   35.2326 C.ar    1  UNL1        0.0586
     11 CL          5.9529    0.7202   36.6396 Cl      1  UNL1       -0.0822
     12 C           5.0656   -0.9569   34.8646 C.ar    1  UNL1        0.0243
     13 C           5.0592   -1.4768   33.4577 C.ar    1  UNL1        0.0761
     14 CL          4.1784   -2.6338   33.0898 Cl      1  UNL1       -0.0806
     15 C           3.9724    0.1646   30.0114 C.ar    1  UNL1        0.0175
     16 C           4.3632    1.6127   29.9911 C.ar    1  UNL1        0.0024
     17 C           3.3099    2.6754   30.0973 C.ar    1  UNL1        0.0114
     18 C           1.8658    2.2900   30.2239 C.ar    1  UNL1        0.0577
     19 CL          0.8126    3.3527   30.3301 Cl      1  UNL1       -0.0822
     20 C           1.4750    0.8419   30.2442 C.ar    1  UNL1        0.0114
     21 C           2.5283   -0.2208   30.1380 C.ar    1  UNL1        0.0024
     22 C           7.1190   -3.6123   28.0841 C.2     1  UNL1        0.2782
     23 O           8.6137   -3.7295   28.0377 O.2     1  UNL1       -0.2671
     24 N           6.2713   -4.4733   27.1952 N.am    1  UNL1       -0.2417
     25 H           5.2903   -4.3964   27.2256 H       1  UNL1        0.1696
     26 N           6.9183   -5.4515   26.2599 N.3     1  UNL1       -0.2057
     27 C           7.1586   -6.8647   26.7014 C.3     1  UNL1        0.0919
     28 C           7.8056   -7.8428   25.7661 C.3     1  UNL1        0.0191
     29 C           8.2122   -7.4076   24.3894 C.3     1  UNL1        0.0030
     30 C           7.9719   -5.9944   23.9480 C.3     1  UNL1        0.0191
     31 C           7.3250   -5.0163   24.8833 C.3     1  UNL1        0.0919
@<TRIPOS>BOND
     1     1     2    1
     2     2     3   ar
     3     3    22    1
     4    22    23    2
     5    22    24   am
     6    24    26    1
     7    26    27    1
     8    27    28    1
     9    28    29    1
    10    29    30    1
    11    30    31    1
    12     3     4   ar
    13     4     5   ar
    14     5     7    1
    15     7     8   ar
    16     8     9   ar
    17     9    10   ar
    18    10    11    1
    19    10    12   ar
    20    12    13   ar
    21    13    14    1
    22     5     6   ar
    23     6    15    1
    24    15    16   ar
    25    16    17   ar
    26    17    18   ar
    27    18    19    1
    28    18    20   ar
    29    20    21   ar
    30     6     2   ar
    31    21    15   ar
    32    31    26    1
    33    13     7   ar
    34    24    25    1
@<TRIPOS>MOLECULE
*****
 31 34 0 0 0
SMALL
GASTEIGER

@<TRIPOS>ATOM
      1 C          -1.0800    3.2255   21.8727 C.3     1  UNL1        0.0344
      2 C          -0.4284    2.5387   23.0362 C.ar    1  UNL1        0.0197
      3 C           0.5371    1.3935   22.9563 C.ar    1  UNL1        0.1530
      4 N           0.9343    1.0237   24.3547 N.ar    1  UNL1       -0.1607
      5 N           0.2144    1.9402   25.2989 N.ar    1  UNL1       -0.2290
      6 C          -0.6279    2.8766   24.4841 C.ar    1  UNL1        0.0804
      7 C           0.3184    1.9234   26.7951 C.ar    1  UNL1        0.0933
      8 C          -0.5542    1.0041   27.5972 C.ar    1  UNL1        0.0209
      9 C          -0.4503    0.9871   29.0936 C.ar    1  UNL1        0.0130
     10 C           0.5263    1.8897   29.7877 C.ar    1  UNL1        0.0586
     11 CL          0.6303    1.8728   31.2840 Cl      1  UNL1       -0.0822
     12 C           1.3989    2.8090   28.9855 C.ar    1  UNL1        0.0243
     13 C           1.2949    2.8259   27.4893 C.ar    1  UNL1        0.0761
     14 CL          2.1675    3.7452   26.6872 Cl      1  UNL1       -0.0806
     15 C          -1.5140    3.9606   25.0225 C.ar    1  UNL1        0.0175
     16 C          -1.0137    5.3730   25.0917 C.ar    1  UNL1        0.0024
     17 C          -1.8998    6.4569   25.6301 C.ar    1  UNL1        0.0114
     18 C          -3.2861    6.1284   26.0994 C.ar    1  UNL1        0.0577
     19 CL         -4.1722    7.2123   26.6378 Cl      1  UNL1       -0.0822
     20 C          -3.7863    4.7160   26.0302 C.ar    1  UNL1        0.0114
     21 C          -2.9003    3.6320   25.4918 C.ar    1  UNL1        0.0024
     22 C           1.0205    0.7340   21.6987 C.2     1  UNL1        0.2782
     23 O           0.0327    0.1830   20.7135 O.2     1  UNL1       -0.2671
     24 N           2.4915    0.6256   21.4264 N.am    1  UNL1       -0.2417
     25 H           3.1398    0.9873   22.0731 H       1  UNL1        0.1696
     26 N           2.9749   -0.0339   20.1688 N.3     1  UNL1       -0.2057
     27 C           3.3656   -1.4820   20.1838 C.3     1  UNL1        0.0919
     28 C           3.8490   -2.1415   18.9263 C.3     1  UNL1        0.0191
     29 C           3.9415   -1.3528   17.6537 C.3     1  UNL1        0.0030
     30 C           3.5508    0.0953   17.6387 C.3     1  UNL1        0.0191
     31 C           3.0674    0.7547   18.8962 C.3     1  UNL1        0.0919
@<TRIPOS>BOND
     1     1     2    1
     2     2     3   ar
     3     3    22    1
     4    22    23    2
     5    22    24   am
     6    24    26    1
     7    26    27    1
     8    27    28    1
     9    28    29    1
    10    29    30    1
    11    30    31    1
    12     3     4   ar
    13     4     5   ar
    14     5     7    1
    15     7     8   ar
    16     8     9   ar
    17     9    10   ar
    18    10    11    1
    19    10    12   ar
    20    12    13   ar
    21    13    14    1
    22     5     6   ar
    23     6    15    1
    24    15    16   ar
    25    16    17   ar
    26    17    18   ar
    27    18    19    1
    28    18    20   ar
    29    20    21   ar
    30     6     2   ar
    31    21    15   ar
    32    31    26    1
    33    13     7   ar
    34    24    25    1
@<TRIPOS>MOLECULE
*****
 31 34 0 0 0
SMALL
GASTEIGER

@<TRIPOS>ATOM
      1 C           2.0001    0.2105   24.5294 C.3     1  UNL1        0.0344
      2 C           0.9482    1.1968   24.1162 C.ar    1  UNL1        0.0197
      3 C           0.4967    1.4680   22.7117 C.ar    1  UNL1        0.1530
      4 N          -0.5674    2.5239   22.7625 N.ar    1  UNL1       -0.1607
      5 N          -0.7737    2.9054   24.1984 N.ar    1  UNL1       -0.2290
      6 C           0.1630    2.0852   25.0351 C.ar    1  UNL1        0.0804
      7 C          -1.7459    3.9275   24.7081 C.ar    1  UNL1        0.0933
      8 C          -3.1651    3.5354   24.9945 C.ar    1  UNL1        0.0209
      9 C          -4.1375    4.5575   25.5043 C.ar    1  UNL1        0.0130
     10 C          -3.6905    5.9719   25.7276 C.ar    1  UNL1        0.0586
     11 CL         -4.6627    6.9941   26.2374 Cl      1  UNL1       -0.0822
     12 C          -2.2712    6.3640   25.4412 C.ar    1  UNL1        0.0243
     13 C          -1.2990    5.3419   24.9315 C.ar    1  UNL1        0.0761
     14 CL          0.1202    5.7340   24.6451 Cl      1  UNL1       -0.0806
     15 C           0.2918    2.1433   26.5284 C.ar    1  UNL1        0.0175
     16 C           1.0640    3.2567   27.1719 C.ar    1  UNL1        0.0024
     17 C           1.1929    3.3147   28.6652 C.ar    1  UNL1        0.0114
     18 C           0.5496    2.2594   29.5151 C.ar    1  UNL1        0.0577
     19 CL          0.6784    2.3174   31.0084 Cl      1  UNL1       -0.0822
     20 C          -0.2226    1.1459   28.8716 C.ar    1  UNL1        0.0114
     21 C          -0.3515    1.0879   27.3783 C.ar    1  UNL1        0.0024
     22 C           1.0180    0.8003   21.4737 C.2     1  UNL1        0.2782
     23 O           0.0615    0.2072   20.4821 O.2     1  UNL1       -0.2671
     24 N           2.4958    0.7258   21.2274 N.am    1  UNL1       -0.2417
     25 H           3.1235    1.1150   21.8782 H       1  UNL1        0.1696
     26 N           3.0170    0.0581   19.9894 N.3     1  UNL1       -0.2057
     27 C           3.3895   -1.3945   20.0209 C.3     1  UNL1        0.0919
     28 C           3.9107   -2.0621   18.7829 C.3     1  UNL1        0.0191
     29 C           4.0595   -1.2770   17.5135 C.3     1  UNL1        0.0030
     30 C           3.6871    0.1756   17.4820 C.3     1  UNL1        0.0191
     31 C           3.1659    0.8432   18.7199 C.3     1  UNL1        0.0919
@<TRIPOS>BOND
     1     1     2    1
     2     2     3   ar
     3     3    22    1
     4    22    23    2
     5    22    24   am
     6    24    26    1
     7    26    27    1
     8    27    28    1
     9    28    29    1
    10    29    30    1
    11    30    31    1
    12     3     4   ar
    13     4     5   ar
    14     5     7    1
    15     7     8   ar
    16     8     9   ar
    17     9    10   ar
    18    10    11    1
    19    10    12   ar
    20    12    13   ar
    21    13    14    1
    22     5     6   ar
    23     6    15    1
    24    15    16   ar
    25    16    17   ar
    26    17    18   ar
    27    18    19    1
    28    18    20   ar
    29    20    21   ar
    30     6     2   ar
    31    21    15   ar
    32    31    26    1
    33    13     7   ar
    34    24    25    1
