@<TRIPOS>MOLECULE
*****
 31 33 0 0 0
SMALL
GASTEIGER

@<TRIPOS>ATOM
      1 C          -9.2218  -19.1357   22.7922 C.3     1  UNL1        0.1565
      2 C         -10.3947  -18.2019   22.8415 C.ar    1  UNL1        0.0369
      3 C         -11.7017  -18.6689   23.4104 C.ar    1  UNL1        0.0121
      4 C         -12.8746  -17.7351   23.4597 C.ar    1  UNL1        0.0576
      5 CL        -14.1816  -18.2021   24.0285 Cl      1  UNL1       -0.0823
      6 C         -12.7405  -16.3344   22.9402 C.ar    1  UNL1        0.0145
      7 C         -11.4334  -15.8674   22.3713 C.ar    1  UNL1        0.0375
      8 C         -10.2605  -16.8011   22.3220 C.ar    1  UNL1        0.1369
      9 O          -8.9535  -16.3341   21.7532 O.3     1  UNL1       -0.4709
     10 C          -8.2129  -15.2042   22.4049 C.3     1  UNL1        0.2320
     11 C          -7.7422  -15.3351   23.8231 C.ar    1  UNL1        0.0212
     12 C          -8.7402  -15.4526   24.9368 C.ar    1  UNL1       -0.0007
     13 C          -8.2695  -15.5834   26.3550 C.ar    1  UNL1       -0.0002
     14 C          -6.8007  -15.5969   26.6595 C.ar    1  UNL1       -0.0000
     15 C          -5.8028  -15.4794   25.5459 C.ar    1  UNL1       -0.0002
     16 C          -6.2735  -15.3486   24.1277 C.ar    1  UNL1       -0.0007
     17 C         -10.0396  -19.9491   19.7395 C.3     1  UNL1        0.0518
     18 C          -8.6835  -19.5032   20.1999 C.ar    1  UNL1        0.0592
     19 C          -7.4651  -19.3530   19.3379 C.ar    1  UNL1        0.0506
     20 C          -6.3362  -18.8862   20.2084 C.ar    1  UNL1        0.1576
     21 N          -6.8569  -18.7480   21.6084 N.ar    1  UNL1       -0.1539
     22 N          -8.3075  -19.1293   21.6031 N.ar    1  UNL1       -0.2491
     23 N          -4.9329  -18.6067   19.7580 N.am    1  UNL1       -0.2336
     24 C          -3.9234  -19.7153   19.7173 C.2     1  UNL1        0.4063
     25 O          -4.3171  -21.1036   20.1270 O.2     1  UNL1       -0.2261
     26 H          -4.6746  -17.6955   19.4891 H       1  UNL1        0.1597
     27 O          -2.5202  -19.4359   19.2669 O.3     1  UNL1       -0.4417
     28 C          -1.7827  -18.2459   19.8051 C.3     1  UNL1        0.1378
     29 C          -1.7620  -17.6385   18.4336 C.3     1  UNL1        0.0437
     30 C          -1.8033  -18.8531   21.1765 C.3     1  UNL1        0.0437
     31 C          -1.0452  -17.0557   20.3432 C.3     1  UNL1        0.0437
@<TRIPOS>BOND
     1    17    18    1
     2    18    19   ar
     3    19    20   ar
     4    20    23    1
     5    23    24   am
     6    24    25    2
     7    24    27    1
     8    27    28    1
     9    28    29    1
    10    28    30    1
    11    28    31    1
    12    20    21   ar
    13    21    22   ar
    14    22     1    1
    15     1     2    1
    16     2     3   ar
    17     3     4   ar
    18     4     5    1
    19     4     6   ar
    20     6     7   ar
    21     7     8   ar
    22     8     9    1
    23     9    10    1
    24    10    11    1
    25    11    12   ar
    26    12    13   ar
    27    13    14   ar
    28    14    15   ar
    29    15    16   ar
    30    22    18   ar
    31     8     2   ar
    32    16    11   ar
    33    23    26    1
@<TRIPOS>MOLECULE
*****
 31 33 0 0 0
SMALL
GASTEIGER

@<TRIPOS>ATOM
      1 C         -10.0121  -19.6025   21.8171 C.3     1  UNL1        0.1565
      2 C         -10.9316  -18.4174   21.8131 C.ar    1  UNL1        0.0369
      3 C         -11.1184  -17.6173   20.5581 C.ar    1  UNL1        0.0121
      4 C         -12.0379  -16.4322   20.5541 C.ar    1  UNL1        0.0576
      5 CL        -12.2247  -15.6321   19.2992 Cl      1  UNL1       -0.0823
      6 C         -12.7705  -16.0472   21.8051 C.ar    1  UNL1        0.0145
      7 C         -12.5837  -16.8472   23.0601 C.ar    1  UNL1        0.0375
      8 C         -11.6643  -18.0323   23.0641 C.ar    1  UNL1        0.1369
      9 O         -11.4774  -18.8324   24.3191 O.3     1  UNL1       -0.4709
     10 C         -10.1154  -18.9532   24.9357 C.3     1  UNL1        0.2320
     11 C          -9.3846  -17.7234   25.3866 C.ar    1  UNL1        0.0212
     12 C          -8.9593  -16.6932   24.3826 C.ar    1  UNL1       -0.0007
     13 C          -8.2284  -15.4634   24.8335 C.ar    1  UNL1       -0.0002
     14 C          -7.9228  -15.2637   26.2884 C.ar    1  UNL1       -0.0000
     15 C          -8.3481  -16.2938   27.2924 C.ar    1  UNL1       -0.0002
     16 C          -9.0789  -17.5236   26.8415 C.ar    1  UNL1       -0.0007
     17 C          -9.1588  -20.1315   18.7120 C.3     1  UNL1        0.0518
     18 C          -8.2367  -19.7237   19.8225 C.ar    1  UNL1        0.0592
     19 C          -6.7604  -19.4874   19.7008 C.ar    1  UNL1        0.0506
     20 C          -6.2403  -19.0982   21.0529 C.ar    1  UNL1        0.1576
     21 N          -7.3951  -19.0940   22.0102 N.ar    1  UNL1       -0.1539
     22 N          -8.6289  -19.4805   21.2498 N.ar    1  UNL1       -0.2491
     23 N          -4.8155  -18.7708   21.3886 N.am    1  UNL1       -0.2336
     24 C          -3.7101  -19.6756   20.9310 C.2     1  UNL1        0.4063
     25 O          -4.0295  -20.9080   20.1377 O.2     1  UNL1       -0.2261
     26 H          -4.6058  -17.9620   21.9093 H       1  UNL1        0.1597
     27 O          -2.2853  -19.3482   21.2668 O.3     1  UNL1       -0.4417
     28 C          -1.7707  -17.9527   21.0732 C.3     1  UNL1        0.1378
     29 C          -1.9897  -17.6699   22.5301 C.3     1  UNL1        0.0437
     30 C          -1.5517  -18.2353   19.6165 C.3     1  UNL1        0.0437
     31 C          -1.2562  -16.5570   20.8798 C.3     1  UNL1        0.0437
@<TRIPOS>BOND
     1    17    18    1
     2    18    19   ar
     3    19    20   ar
     4    20    23    1
     5    23    24   am
     6    24    25    2
     7    24    27    1
     8    27    28    1
     9    28    29    1
    10    28    30    1
    11    28    31    1
    12    20    21   ar
    13    21    22   ar
    14    22     1    1
    15     1     2    1
    16     2     3   ar
    17     3     4   ar
    18     4     5    1
    19     4     6   ar
    20     6     7   ar
    21     7     8   ar
    22     8     9    1
    23     9    10    1
    24    10    11    1
    25    11    12   ar
    26    12    13   ar
    27    13    14   ar
    28    14    15   ar
    29    15    16   ar
    30    22    18   ar
    31     8     2   ar
    32    16    11   ar
    33    23    26    1
@<TRIPOS>MOLECULE
*****
 31 33 0 0 0
SMALL
GASTEIGER

@<TRIPOS>ATOM
      1 C          -9.5391  -16.0847   23.7879 C.3     1  UNL1        0.1565
      2 C          -9.9915  -16.7081   22.5008 C.ar    1  UNL1        0.0369
      3 C         -10.7086  -15.8788   21.4771 C.ar    1  UNL1        0.0121
      4 C         -11.1611  -16.5021   20.1900 C.ar    1  UNL1        0.0576
      5 CL        -11.8781  -15.6727   19.1663 Cl      1  UNL1       -0.0823
      6 C         -10.8965  -17.9549   19.9266 C.ar    1  UNL1        0.0145
      7 C         -10.1794  -18.7843   20.9503 C.ar    1  UNL1        0.0375
      8 C          -9.7269  -18.1609   22.2374 C.ar    1  UNL1        0.1369
      9 O          -9.0099  -18.9903   23.2611 O.3     1  UNL1       -0.4709
     10 C          -8.2053  -20.1811   22.8317 C.3     1  UNL1        0.2320
     11 C          -7.1187  -20.0232   21.8098 C.ar    1  UNL1        0.0212
     12 C          -6.4097  -21.2324   21.2758 C.ar    1  UNL1       -0.0007
     13 C          -5.3230  -21.0745   20.2539 C.ar    1  UNL1       -0.0002
     14 C          -4.9454  -19.7072   19.7659 C.ar    1  UNL1       -0.0000
     15 C          -5.6544  -18.4980   20.2999 C.ar    1  UNL1       -0.0002
     16 C          -6.7410  -18.6560   21.3218 C.ar    1  UNL1       -0.0007
     17 C          -8.2265  -15.4764   26.7131 C.3     1  UNL1        0.0518
     18 C          -7.4713  -15.6866   25.4344 C.ar    1  UNL1        0.0592
     19 C          -5.9800  -15.6540   25.2756 C.ar    1  UNL1        0.0506
     20 C          -5.6617  -15.9136   23.8329 C.ar    1  UNL1        0.1576
     21 N          -6.9562  -16.1065   23.1000 N.ar    1  UNL1       -0.1539
     22 N          -8.0746  -15.9662   24.0898 N.ar    1  UNL1       -0.2491
     23 N          -4.2898  -15.9702   23.2291 N.am    1  UNL1       -0.2336
     24 C          -3.5570  -17.2769   23.1535 C.2     1  UNL1        0.4063
     25 O          -4.1962  -18.5269   23.6817 O.2     1  UNL1       -0.2261
     26 H          -3.8703  -15.1498   22.8824 H       1  UNL1        0.1597
     27 O          -2.1851  -17.3336   22.5497 O.3     1  UNL1       -0.4417
     28 C          -1.9905  -17.9219   21.1837 C.3     1  UNL1        0.1378
     29 C          -2.0741  -19.3018   21.7661 C.3     1  UNL1        0.0437
     30 C          -1.9070  -16.5421   20.6013 C.3     1  UNL1        0.0437
     31 C          -1.7960  -18.5103   19.8177 C.3     1  UNL1        0.0437
@<TRIPOS>BOND
     1    17    18    1
     2    18    19   ar
     3    19    20   ar
     4    20    23    1
     5    23    24   am
     6    24    25    2
     7    24    27    1
     8    27    28    1
     9    28    29    1
    10    28    30    1
    11    28    31    1
    12    20    21   ar
    13    21    22   ar
    14    22     1    1
    15     1     2    1
    16     2     3   ar
    17     3     4   ar
    18     4     5    1
    19     4     6   ar
    20     6     7   ar
    21     7     8   ar
    22     8     9    1
    23     9    10    1
    24    10    11    1
    25    11    12   ar
    26    12    13   ar
    27    13    14   ar
    28    14    15   ar
    29    15    16   ar
    30    22    18   ar
    31     8     2   ar
    32    16    11   ar
    33    23    26    1
@<TRIPOS>MOLECULE
*****
 31 33 0 0 0
SMALL
GASTEIGER

@<TRIPOS>ATOM
      1 C          -9.3875  -16.0137   22.7843 C.3     1  UNL1        0.1565
      2 C         -10.2685  -17.2015   23.0356 C.ar    1  UNL1        0.0369
      3 C         -11.6718  -17.0039   23.5272 C.ar    1  UNL1        0.0121
      4 C         -12.5527  -18.1916   23.7785 C.ar    1  UNL1        0.0576
      5 CL        -13.9560  -17.9940   24.2701 Cl      1  UNL1       -0.0823
      6 C         -12.0304  -19.5770   23.5381 C.ar    1  UNL1        0.0145
      7 C         -10.6271  -19.7746   23.0464 C.ar    1  UNL1        0.0375
      8 C          -9.7461  -18.5869   22.7952 C.ar    1  UNL1        0.1369
      9 O          -8.3428  -18.7845   22.3035 O.3     1  UNL1       -0.4709
     10 C          -8.0999  -19.3007   20.9163 C.3     1  UNL1        0.2320
     11 C          -6.7106  -19.6659   20.4845 C.ar    1  UNL1        0.0212
     12 C          -6.2338  -21.0825   20.6112 C.ar    1  UNL1       -0.0007
     13 C          -4.8445  -21.4477   20.1795 C.ar    1  UNL1       -0.0002
     14 C          -3.9319  -20.3963   19.6210 C.ar    1  UNL1       -0.0000
     15 C          -4.4087  -18.9798   19.4943 C.ar    1  UNL1       -0.0002
     16 C          -5.7980  -18.6146   19.9261 C.ar    1  UNL1       -0.0007
     17 C          -8.7319  -15.3963   25.9209 C.3     1  UNL1        0.0518
     18 C          -7.7215  -15.6639   24.8451 C.ar    1  UNL1        0.0592
     19 C          -6.2323  -15.6948   25.0221 C.ar    1  UNL1        0.0506
     20 C          -5.6133  -15.9976   23.6897 C.ar    1  UNL1        0.1576
     21 N          -6.7199  -16.1540   22.6893 N.ar    1  UNL1       -0.1539
     22 N          -8.0229  -15.9477   23.4033 N.ar    1  UNL1       -0.2491
     23 N          -4.1454  -16.1223   23.4074 N.am    1  UNL1       -0.2336
     24 C          -3.5455  -17.4702   23.1366 C.2     1  UNL1        0.4063
     25 O          -4.4136  -18.6935   23.1482 O.2     1  UNL1       -0.2261
     26 H          -3.5756  -15.3194   23.3998 H       1  UNL1        0.1597
     27 O          -2.0776  -17.5949   22.8543 O.3     1  UNL1       -0.4417
     28 C          -1.5965  -17.7590   21.4431 C.3     1  UNL1        0.1378
     29 C          -1.6899  -16.2758   21.2389 C.3     1  UNL1        0.0437
     30 C          -1.5032  -19.2421   21.6473 C.3     1  UNL1        0.0437
     31 C          -1.1155  -17.9230   20.0318 C.3     1  UNL1        0.0437
@<TRIPOS>BOND
     1    17    18    1
     2    18    19   ar
     3    19    20   ar
     4    20    23    1
     5    23    24   am
     6    24    25    2
     7    24    27    1
     8    27    28    1
     9    28    29    1
    10    28    30    1
    11    28    31    1
    12    20    21   ar
    13    21    22   ar
    14    22     1    1
    15     1     2    1
    16     2     3   ar
    17     3     4   ar
    18     4     5    1
    19     4     6   ar
    20     6     7   ar
    21     7     8   ar
    22     8     9    1
    23     9    10    1
    24    10    11    1
    25    11    12   ar
    26    12    13   ar
    27    13    14   ar
    28    14    15   ar
    29    15    16   ar
    30    22    18   ar
    31     8     2   ar
    32    16    11   ar
    33    23    26    1
@<TRIPOS>MOLECULE
*****
 31 33 0 0 0
SMALL
GASTEIGER

@<TRIPOS>ATOM
      1 C          -9.0923  -16.1951   24.5422 C.3     1  UNL1        0.1565
      2 C          -9.8050  -17.4907   24.2898 C.ar    1  UNL1        0.0369
      3 C          -9.5014  -18.6910   25.1365 C.ar    1  UNL1        0.0121
      4 C         -10.2141  -19.9865   24.8841 C.ar    1  UNL1        0.0576
      5 CL         -9.9104  -21.1869   25.7308 Cl      1  UNL1       -0.0823
      6 C         -11.2304  -20.0817   23.7851 C.ar    1  UNL1        0.0145
      7 C         -11.5340  -18.8813   22.9384 C.ar    1  UNL1        0.0375
      8 C         -10.8214  -17.5858   23.1907 C.ar    1  UNL1        0.1369
      9 O         -11.1250  -16.3854   22.3441 O.3     1  UNL1       -0.4709
     10 C         -10.7489  -16.3773   20.8920 C.3     1  UNL1        0.2320
     11 C         -10.1038  -17.5840   20.2776 C.ar    1  UNL1        0.0212
     12 C         -10.8842  -18.4553   19.3385 C.ar    1  UNL1       -0.0007
     13 C         -10.2391  -19.6621   18.7241 C.ar    1  UNL1       -0.0002
     14 C          -8.8135  -19.9975   19.0487 C.ar    1  UNL1       -0.0000
     15 C          -8.0331  -19.1262   19.9877 C.ar    1  UNL1       -0.0002
     16 C          -8.6783  -17.9195   20.6021 C.ar    1  UNL1       -0.0007
     17 C          -7.1871  -15.3776   27.0625 C.3     1  UNL1        0.0518
     18 C          -6.7173  -15.7746   25.6944 C.ar    1  UNL1        0.0592
     19 C          -5.2892  -15.8654   25.2445 C.ar    1  UNL1        0.0506
     20 C          -5.2824  -16.2974   23.8080 C.ar    1  UNL1        0.1576
     21 N          -6.7062  -16.4734   23.3701 N.ar    1  UNL1       -0.1539
     22 N          -7.5930  -16.1503   24.5359 N.ar    1  UNL1       -0.2491
     23 N          -4.0654  -16.5150   22.9585 N.am    1  UNL1       -0.2336
     24 C          -3.5848  -17.9083   22.6796 C.2     1  UNL1        0.4063
     25 O          -4.3213  -19.0840   23.2500 O.2     1  UNL1       -0.2261
     26 H          -3.5820  -15.7434   22.5841 H       1  UNL1        0.1597
     27 O          -2.3678  -18.1260   21.8301 O.3     1  UNL1       -0.4417
     28 C          -2.3976  -17.7732   20.3726 C.3     1  UNL1        0.1378
     29 C          -3.4282  -18.8373   20.1361 C.3     1  UNL1        0.0437
     30 C          -1.3671  -16.7092   20.6089 C.3     1  UNL1        0.0437
     31 C          -2.4275  -17.4205   18.9149 C.3     1  UNL1        0.0437
@<TRIPOS>BOND
     1    17    18    1
     2    18    19   ar
     3    19    20   ar
     4    20    23    1
     5    23    24   am
     6    24    25    2
     7    24    27    1
     8    27    28    1
     9    28    29    1
    10    28    30    1
    11    28    31    1
    12    20    21   ar
    13    21    22   ar
    14    22     1    1
    15     1     2    1
    16     2     3   ar
    17     3     4   ar
    18     4     5    1
    19     4     6   ar
    20     6     7   ar
    21     7     8   ar
    22     8     9    1
    23     9    10    1
    24    10    11    1
    25    11    12   ar
    26    12    13   ar
    27    13    14   ar
    28    14    15   ar
    29    15    16   ar
    30    22    18   ar
    31     8     2   ar
    32    16    11   ar
    33    23    26    1
