@<TRIPOS>MOLECULE
*****
 24 26 0 0 0
SMALL
GASTEIGER

@<TRIPOS>ATOM
      1 C          -7.3416  -19.3286   21.3441 C.ar    1  UNL1        0.0188
      2 C          -8.0673  -19.6556   22.6155 C.ar    1  UNL1        0.0046
      3 C          -9.5647  -19.7431   22.6232 C.ar    1  UNL1        0.0369
      4 C         -10.3365  -19.5035   21.3594 C.ar    1  UNL1        0.1386
      5 C          -9.6108  -19.1765   20.0880 C.ar    1  UNL1        0.0369
      6 C          -8.1133  -19.0890   20.0804 C.ar    1  UNL1        0.0046
      7 C          -5.7206  -21.4710   20.0089 C.3     1  UNL1        0.0285
      8 C          -5.0337  -20.3123   20.6689 C.2     1  UNL1       -0.0155
      9 C          -3.5363  -20.2249   20.6613 C.3     1  UNL1        0.1122
     10 C          -2.8493  -19.0662   21.3213 C.2     1  UNL1        0.2668
     11 O          -1.3518  -18.9788   21.3137 O.2     1  UNL1       -0.2711
     12 N          -3.6597  -17.9951   21.9889 N.am    1  UNL1       -0.0790
     13 N          -5.1571  -18.0825   21.9965 N.2     1  UNL1       -0.1568
     14 C          -5.8441  -19.2412   21.3365 C.2     1  UNL1        0.0931
     15 O         -11.8339  -19.5909   21.3670 O.3     1  UNL1       -0.4754
     16 C         -12.6577  -18.3408   21.4595 C.3     1  UNL1        0.2068
     17 C         -12.8431  -17.6610   22.7836 C.3     1  UNL1        0.0646
     18 C         -12.1786  -16.3428   23.0495 C.3     1  UNL1        0.0759
     19 N         -10.6876  -16.2190   22.9405 N.3     1  UNL1       -0.2738
     20 C          -9.7032  -16.4103   24.0559 C.3     1  UNL1        0.0721
     21 C          -8.3265  -16.1917   23.5018 C.3     1  UNL1        0.0187
     22 C          -8.4602  -15.8653   22.0438 C.3     1  UNL1        0.0174
     23 C          -9.9194  -15.8821   21.6970 C.3     1  UNL1        0.0576
     24 C         -10.5074  -15.6099   20.3440 C.3     1  UNL1        0.0173
@<TRIPOS>BOND
     1     7     8    1
     2     8     9    1
     3     9    10    1
     4    10    11    2
     5    10    12    1
     6    12    13    2
     7    13    14    1
     8    14     1    1
     9     1     2   ar
    10     2     3   ar
    11     3     4   ar
    12     4    15    1
    13    15    16    1
    14    16    17    1
    15    17    18    1
    16    18    19    1
    17    19    20    1
    18    20    21    1
    19    21    22    1
    20    22    23    1
    21    23    24    1
    22     4     5   ar
    23     5     6   ar
    24    14     8    2
    25     6     1   ar
    26    23    19    1
@<TRIPOS>MOLECULE
*****
 24 26 0 0 0
SMALL
GASTEIGER

@<TRIPOS>ATOM
      1 C          -6.4964  -18.8003   22.0548 C.ar    1  UNL1        0.0188
      2 C          -7.2358  -17.5483   22.4232 C.ar    1  UNL1        0.0046
      3 C          -8.5590  -17.6374   23.1240 C.ar    1  UNL1        0.0369
      4 C          -9.1429  -18.9786   23.4564 C.ar    1  UNL1        0.1386
      5 C          -8.4034  -20.2306   23.0880 C.ar    1  UNL1        0.0369
      6 C          -7.0802  -20.1414   22.3871 C.ar    1  UNL1        0.0046
      7 C          -4.0129  -18.1665   23.6139 C.3     1  UNL1        0.0285
      8 C          -3.9314  -18.3942   22.1335 C.2     1  UNL1       -0.0155
      9 C          -2.6082  -18.3050   21.4327 C.3     1  UNL1        0.1122
     10 C          -2.5268  -18.5327   19.9523 C.2     1  UNL1        0.2668
     11 O          -1.2035  -18.4435   19.2515 O.2     1  UNL1       -0.2711
     12 N          -3.7684  -18.8496   19.1728 N.am    1  UNL1       -0.0790
     13 N          -5.0916  -18.9388   19.8736 N.2     1  UNL1       -0.1568
     14 C          -5.1731  -18.7111   21.3540 C.2     1  UNL1        0.0931
     15 O         -10.4661  -19.0677   24.1572 O.3     1  UNL1       -0.4754
     16 C         -11.4221  -17.9131   24.1042 C.3     1  UNL1        0.2068
     17 C         -12.7781  -18.0899   23.4877 C.3     1  UNL1        0.0646
     18 C         -12.9459  -17.9820   22.0010 C.3     1  UNL1        0.0759
     19 N         -11.8342  -18.4068   21.0880 N.3     1  UNL1       -0.2738
     20 C         -11.3295  -19.8075   20.9057 C.3     1  UNL1        0.0721
     21 C         -10.2153  -19.7719   19.9020 C.3     1  UNL1        0.0187
     22 C         -10.0314  -18.3490   19.4639 C.3     1  UNL1        0.0174
     23 C         -11.0319  -17.5054   20.1969 C.3     1  UNL1        0.0576
     24 C         -11.2007  -16.0210   20.0624 C.3     1  UNL1        0.0173
@<TRIPOS>BOND
     1     7     8    1
     2     8     9    1
     3     9    10    1
     4    10    11    2
     5    10    12    1
     6    12    13    2
     7    13    14    1
     8    14     1    1
     9     1     2   ar
    10     2     3   ar
    11     3     4   ar
    12     4    15    1
    13    15    16    1
    14    16    17    1
    15    17    18    1
    16    18    19    1
    17    19    20    1
    18    20    21    1
    19    21    22    1
    20    22    23    1
    21    23    24    1
    22     4     5   ar
    23     5     6   ar
    24    14     8    2
    25     6     1   ar
    26    23    19    1
@<TRIPOS>MOLECULE
*****
 24 26 0 0 0
SMALL
GASTEIGER

@<TRIPOS>ATOM
      1 C          -9.5446  -18.4439   22.4566 C.ar    1  UNL1        0.0188
      2 C          -9.2497  -19.3680   21.3124 C.ar    1  UNL1        0.0046
      3 C          -7.8767  -19.4006   20.7093 C.ar    1  UNL1        0.0369
      4 C          -6.7985  -18.5090   21.2503 C.ar    1  UNL1        0.1386
      5 C          -7.0934  -17.5849   22.3945 C.ar    1  UNL1        0.0369
      6 C          -8.4665  -17.5524   22.9976 C.ar    1  UNL1        0.0046
      7 C         -11.8095  -17.1644   20.9622 C.3     1  UNL1        0.0285
      8 C         -12.0501  -17.7717   22.3125 C.2     1  UNL1       -0.0155
      9 C         -13.4230  -17.7392   22.9157 C.3     1  UNL1        0.1122
     10 C         -13.6636  -18.3464   24.2660 C.2     1  UNL1        0.2668
     11 O         -15.0367  -18.3139   24.8691 O.2     1  UNL1       -0.2711
     12 N         -12.5312  -18.9862   25.0132 N.am    1  UNL1       -0.0790
     13 N         -11.1582  -19.0187   24.4100 N.2     1  UNL1       -0.1568
     14 C         -10.9177  -18.4114   23.0597 C.2     1  UNL1        0.0931
     15 O          -5.4255  -18.5416   20.6472 O.3     1  UNL1       -0.4754
     16 C          -4.9997  -19.7144   19.8146 C.3     1  UNL1        0.2068
     17 C          -3.7751  -20.4951   20.1894 C.3     1  UNL1        0.0646
     18 C          -2.8528  -19.9784   21.2536 C.3     1  UNL1        0.0759
     19 N          -2.2343  -18.6189   21.1146 N.3     1  UNL1       -0.2738
     20 C          -1.2303  -18.2087   20.0785 C.3     1  UNL1        0.0721
     21 C          -0.8868  -16.7672   20.3110 C.3     1  UNL1        0.0187
     22 C          -1.6786  -16.2864   21.4908 C.3     1  UNL1        0.0174
     23 C          -2.5114  -17.4309   21.9875 C.3     1  UNL1        0.0576
     24 C          -3.4556  -17.3938   23.1525 C.3     1  UNL1        0.0173
@<TRIPOS>BOND
     1     7     8    1
     2     8     9    1
     3     9    10    1
     4    10    11    2
     5    10    12    1
     6    12    13    2
     7    13    14    1
     8    14     1    1
     9     1     2   ar
    10     2     3   ar
    11     3     4   ar
    12     4    15    1
    13    15    16    1
    14    16    17    1
    15    17    18    1
    16    18    19    1
    17    19    20    1
    18    20    21    1
    19    21    22    1
    20    22    23    1
    21    23    24    1
    22     4     5   ar
    23     5     6   ar
    24    14     8    2
    25     6     1   ar
    26    23    19    1
@<TRIPOS>MOLECULE
*****
 24 26 0 0 0
SMALL
GASTEIGER

@<TRIPOS>ATOM
      1 C          -9.4878  -18.7674   21.9126 C.ar    1  UNL1        0.0188
      2 C          -9.4505  -19.3435   20.5281 C.ar    1  UNL1        0.0046
      3 C          -8.1367  -19.5310   19.8289 C.ar    1  UNL1        0.0369
      4 C          -6.8602  -19.1422   20.5141 C.ar    1  UNL1        0.1386
      5 C          -6.8975  -18.5661   21.8986 C.ar    1  UNL1        0.0369
      6 C          -8.2113  -18.3786   22.5978 C.ar    1  UNL1        0.0046
      7 C          -9.8847  -19.8606   24.6779 C.3     1  UNL1        0.0285
      8 C         -11.0000  -19.1265   23.9944 C.2     1  UNL1       -0.0155
      9 C         -12.3138  -18.9391   24.6935 C.3     1  UNL1        0.1122
     10 C         -13.4291  -18.2050   24.0100 C.2     1  UNL1        0.2668
     11 O         -14.7430  -18.0176   24.7092 O.2     1  UNL1       -0.2711
     12 N         -13.2307  -17.6584   22.6274 N.am    1  UNL1       -0.0790
     13 N         -11.9169  -17.8459   21.9282 N.2     1  UNL1       -0.1568
     14 C         -10.8016  -18.5799   22.6118 C.2     1  UNL1        0.0931
     15 O          -5.5465  -19.3297   19.8149 O.3     1  UNL1       -0.4754
     16 C          -4.7044  -20.5351   20.1114 C.3     1  UNL1        0.2068
     17 C          -3.2098  -20.4469   20.0191 C.3     1  UNL1        0.0646
     18 C          -2.4139  -19.9529   21.1905 C.3     1  UNL1        0.0759
     19 N          -2.4114  -18.4925   21.5333 N.3     1  UNL1       -0.2738
     20 C          -3.2990  -17.8215   22.5393 C.3     1  UNL1        0.0721
     21 C          -2.9570  -16.3611   22.5579 C.3     1  UNL1        0.0187
     22 C          -1.8581  -16.1295   21.5635 C.3     1  UNL1        0.0174
     23 C          -1.5209  -17.4468   20.9303 C.3     1  UNL1        0.0576
     24 C          -0.4766  -17.6780   19.8786 C.3     1  UNL1        0.0173
@<TRIPOS>BOND
     1     7     8    1
     2     8     9    1
     3     9    10    1
     4    10    11    2
     5    10    12    1
     6    12    13    2
     7    13    14    1
     8    14     1    1
     9     1     2   ar
    10     2     3   ar
    11     3     4   ar
    12     4    15    1
    13    15    16    1
    14    16    17    1
    15    17    18    1
    16    18    19    1
    17    19    20    1
    18    20    21    1
    19    21    22    1
    20    22    23    1
    21    23    24    1
    22     4     5   ar
    23     5     6   ar
    24    14     8    2
    25     6     1   ar
    26    23    19    1
@<TRIPOS>MOLECULE
*****
 24 26 0 0 0
SMALL
GASTEIGER

@<TRIPOS>ATOM
      1 C          -5.6914  -19.2210   20.8471 C.ar    1  UNL1        0.0188
      2 C          -6.6071  -19.1383   19.6619 C.ar    1  UNL1        0.0046
      3 C          -8.0787  -19.3723   19.8333 C.ar    1  UNL1        0.0369
      4 C          -8.6348  -19.6890   21.1900 C.ar    1  UNL1        0.1386
      5 C          -7.7192  -19.7717   22.3752 C.ar    1  UNL1        0.0369
      6 C          -6.2474  -19.5377   22.2037 C.ar    1  UNL1        0.0046
      7 C          -4.0567  -18.2012   23.1466 C.3     1  UNL1        0.0285
      8 C          -3.4024  -18.4771   21.8254 C.2     1  UNL1       -0.0155
      9 C          -1.9307  -18.2431   21.6539 C.3     1  UNL1        0.1122
     10 C          -1.2764  -18.5190   20.3326 C.2     1  UNL1        0.2668
     11 O           0.1953  -18.2850   20.1611 O.2     1  UNL1       -0.2711
     12 N          -2.0937  -19.0288   19.1828 N.am    1  UNL1       -0.0790
     13 N          -3.5654  -19.2628   19.3543 N.2     1  UNL1       -0.1568
     14 C          -4.2197  -18.9870   20.6756 C.2     1  UNL1        0.0931
     15 O         -10.1065  -19.9230   21.3614 O.3     1  UNL1       -0.4754
     16 C         -11.0861  -19.2281   20.4628 C.3     1  UNL1        0.2068
     17 C         -10.9700  -17.7514   20.2264 C.3     1  UNL1        0.0646
     18 C         -11.1671  -16.7921   21.3626 C.3     1  UNL1        0.0759
     19 N         -10.2597  -16.8464   22.5559 N.3     1  UNL1       -0.2738
     20 C          -8.9265  -16.1705   22.6812 C.3     1  UNL1        0.0721
     21 C          -8.3692  -16.4925   24.0361 C.3     1  UNL1        0.0187
     22 C          -9.3580  -17.3673   24.7482 C.3     1  UNL1        0.0174
     23 C         -10.5264  -17.5860   23.8333 C.3     1  UNL1        0.0576
     24 C         -11.7472  -18.4013   24.1417 C.3     1  UNL1        0.0173
@<TRIPOS>BOND
     1     7     8    1
     2     8     9    1
     3     9    10    1
     4    10    11    2
     5    10    12    1
     6    12    13    2
     7    13    14    1
     8    14     1    1
     9     1     2   ar
    10     2     3   ar
    11     3     4   ar
    12     4    15    1
    13    15    16    1
    14    16    17    1
    15    17    18    1
    16    18    19    1
    17    19    20    1
    18    20    21    1
    19    21    22    1
    20    22    23    1
    21    23    24    1
    22     4     5   ar
    23     5     6   ar
    24    14     8    2
    25     6     1   ar
    26    23    19    1
@<TRIPOS>MOLECULE
*****
 24 26 0 0 0
SMALL
GASTEIGER

@<TRIPOS>ATOM
      1 C          -9.3858  -17.6074   23.4918 C.ar    1  UNL1        0.0188
      2 C          -8.5960  -18.5709   22.6563 C.ar    1  UNL1        0.0046
      3 C          -7.1295  -18.3454   22.4360 C.ar    1  UNL1        0.0369
      4 C          -6.4527  -17.1564   23.0511 C.ar    1  UNL1        0.1386
      5 C          -7.2425  -16.1929   23.8866 C.ar    1  UNL1        0.0369
      6 C          -8.7091  -16.4185   24.1069 C.ar    1  UNL1        0.0046
      7 C         -11.3949  -16.2312   21.7398 C.3     1  UNL1        0.0285
      8 C         -11.8568  -17.1449   22.8361 C.2     1  UNL1       -0.0155
      9 C         -13.3233  -17.3704   23.0564 C.3     1  UNL1        0.1122
     10 C         -13.7852  -18.2840   24.1528 C.2     1  UNL1        0.2668
     11 O         -15.2518  -18.5096   24.3731 O.2     1  UNL1       -0.2711
     12 N         -12.7807  -18.9721   25.0287 N.am    1  UNL1       -0.0790
     13 N         -11.3142  -18.7466   24.8084 N.2     1  UNL1       -0.1568
     14 C         -10.8523  -17.8329   23.7121 C.2     1  UNL1        0.0931
     15 O          -4.9863  -16.9310   22.8308 O.3     1  UNL1       -0.4754
     16 C          -3.9801  -17.7548   23.5784 C.3     1  UNL1        0.2068
     17 C          -2.5211  -17.6347   23.2519 C.3     1  UNL1        0.0646
     18 C          -1.8864  -18.5943   22.2894 C.3     1  UNL1        0.0759
     19 N          -2.0639  -18.4025   20.8123 N.3     1  UNL1       -0.2738
     20 C          -1.1590  -17.6168   19.9102 C.3     1  UNL1        0.0721
     21 C          -1.7134  -17.6914   18.5184 C.3     1  UNL1        0.0187
     22 C          -2.9609  -18.5232   18.5603 C.3     1  UNL1        0.0174
     23 C          -3.1776  -18.9627   19.9780 C.3     1  UNL1        0.0576
     24 C          -4.3092  -19.8131   20.4744 C.3     1  UNL1        0.0173
@<TRIPOS>BOND
     1     7     8    1
     2     8     9    1
     3     9    10    1
     4    10    11    2
     5    10    12    1
     6    12    13    2
     7    13    14    1
     8    14     1    1
     9     1     2   ar
    10     2     3   ar
    11     3     4   ar
    12     4    15    1
    13    15    16    1
    14    16    17    1
    15    17    18    1
    16    18    19    1
    17    19    20    1
    18    20    21    1
    19    21    22    1
    20    22    23    1
    21    23    24    1
    22     4     5   ar
    23     5     6   ar
    24    14     8    2
    25     6     1   ar
    26    23    19    1
@<TRIPOS>MOLECULE
*****
 24 26 0 0 0
SMALL
GASTEIGER

@<TRIPOS>ATOM
      1 C          -8.7949  -16.8951   23.6568 C.ar    1  UNL1        0.0188
      2 C          -7.8190  -17.6941   22.8449 C.ar    1  UNL1        0.0046
      3 C          -6.3718  -17.3011   22.8119 C.ar    1  UNL1        0.0369
      4 C          -5.9005  -16.1089   23.5909 C.ar    1  UNL1        0.1386
      5 C          -6.8764  -15.3099   24.4028 C.ar    1  UNL1        0.0369
      6 C          -8.3237  -15.7030   24.4357 C.ar    1  UNL1        0.0046
      7 C         -10.6938  -15.8002   21.6085 C.3     1  UNL1        0.0285
      8 C         -11.1915  -16.7408   22.6656 C.2     1  UNL1       -0.0155
      9 C         -12.6387  -17.1340   22.6986 C.3     1  UNL1        0.1122
     10 C         -13.1365  -18.0746   23.7556 C.2     1  UNL1        0.2668
     11 O         -14.5837  -18.4678   23.7886 O.2     1  UNL1       -0.2711
     12 N         -12.1871  -18.6221   24.7798 N.am    1  UNL1       -0.0790
     13 N         -10.7399  -18.2289   24.7468 N.2     1  UNL1       -0.1568
     14 C         -10.2422  -17.2883   23.6897 C.2     1  UNL1        0.0931
     15 O          -4.4533  -15.7158   23.5579 O.3     1  UNL1       -0.4754
     16 C          -3.5156  -16.3866   22.5985 C.3     1  UNL1        0.2068
     17 C          -2.4966  -17.3638   23.1051 C.3     1  UNL1        0.0646
     18 C          -2.2212  -18.6245   22.3403 C.3     1  UNL1        0.0759
     19 N          -3.2688  -19.1932   21.4296 N.3     1  UNL1       -0.2738
     20 C          -4.4723  -19.9815   21.8539 C.3     1  UNL1        0.0721
     21 C          -5.2440  -20.3489   20.6213 C.3     1  UNL1        0.0187
     22 C          -4.5174  -19.7876   19.4350 C.3     1  UNL1        0.0174
     23 C          -3.2967  -19.0733   19.9346 C.3     1  UNL1        0.0576
     24 C          -2.2819  -18.3637   19.0879 C.3     1  UNL1        0.0173
@<TRIPOS>BOND
     1     7     8    1
     2     8     9    1
     3     9    10    1
     4    10    11    2
     5    10    12    1
     6    12    13    2
     7    13    14    1
     8    14     1    1
     9     1     2   ar
    10     2     3   ar
    11     3     4   ar
    12     4    15    1
    13    15    16    1
    14    16    17    1
    15    17    18    1
    16    18    19    1
    17    19    20    1
    18    20    21    1
    19    21    22    1
    20    22    23    1
    21    23    24    1
    22     4     5   ar
    23     5     6   ar
    24    14     8    2
    25     6     1   ar
    26    23    19    1
@<TRIPOS>MOLECULE
*****
 24 26 0 0 0
SMALL
GASTEIGER

@<TRIPOS>ATOM
      1 C          -8.2896  -17.0448   22.7584 C.ar    1  UNL1        0.0188
      2 C          -7.2708  -18.0927   22.4209 C.ar    1  UNL1        0.0046
      3 C          -5.8281  -17.8759   22.7697 C.ar    1  UNL1        0.0369
      4 C          -5.4042  -16.6112   23.4560 C.ar    1  UNL1        0.1386
      5 C          -6.4230  -15.5633   23.7935 C.ar    1  UNL1        0.0369
      6 C          -7.8657  -15.7801   23.4447 C.ar    1  UNL1        0.0046
      7 C         -10.1359  -18.3302   24.7431 C.3     1  UNL1        0.0285
      8 C         -10.6555  -17.9042   23.4020 C.2     1  UNL1       -0.0155
      9 C         -12.0981  -18.1210   23.0531 C.3     1  UNL1        0.1122
     10 C         -12.6176  -17.6951   21.7120 C.2     1  UNL1        0.2668
     11 O         -14.0604  -17.9119   21.3632 O.2     1  UNL1       -0.2711
     12 N         -11.6945  -17.0524   20.7197 N.am    1  UNL1       -0.0790
     13 N         -10.2519  -16.8356   21.0685 N.2     1  UNL1       -0.1568
     14 C          -9.7323  -17.2616   22.4096 C.2     1  UNL1        0.0931
     15 O          -3.9615  -16.3945   23.8048 O.3     1  UNL1       -0.4754
     16 C          -2.8866  -16.8237   22.8507 C.3     1  UNL1        0.2068
     17 C          -2.1977  -18.1425   23.0409 C.3     1  UNL1        0.0646
     18 C          -2.0866  -19.1029   21.8941 C.3     1  UNL1        0.0759
     19 N          -1.8338  -18.5895   20.5075 N.3     1  UNL1       -0.2738
     20 C          -0.5212  -18.0950   19.9761 C.3     1  UNL1        0.0721
     21 C          -0.7254  -17.6802   18.5492 C.3     1  UNL1        0.0187
     22 C          -2.1643  -17.9184   18.1986 C.3     1  UNL1        0.0174
     23 C          -2.8493  -18.4803   19.4089 C.3     1  UNL1        0.0576
     24 C          -4.2960  -18.8656   19.5041 C.3     1  UNL1        0.0173
@<TRIPOS>BOND
     1     7     8    1
     2     8     9    1
     3     9    10    1
     4    10    11    2
     5    10    12    1
     6    12    13    2
     7    13    14    1
     8    14     1    1
     9     1     2   ar
    10     2     3   ar
    11     3     4   ar
    12     4    15    1
    13    15    16    1
    14    16    17    1
    15    17    18    1
    16    18    19    1
    17    19    20    1
    18    20    21    1
    19    21    22    1
    20    22    23    1
    21    23    24    1
    22     4     5   ar
    23     5     6   ar
    24    14     8    2
    25     6     1   ar
    26    23    19    1
@<TRIPOS>MOLECULE
*****
 24 26 0 0 0
SMALL
GASTEIGER

@<TRIPOS>ATOM
      1 C          -9.0210  -18.4316   22.8157 C.ar    1  UNL1        0.0188
      2 C          -8.4891  -19.6400   22.1037 C.ar    1  UNL1        0.0046
      3 C          -7.0487  -19.6921   21.6883 C.ar    1  UNL1        0.0369
      4 C          -6.1402  -18.5359   21.9847 C.ar    1  UNL1        0.1386
      5 C          -6.6722  -17.3275   22.6967 C.ar    1  UNL1        0.0369
      6 C          -8.1126  -17.2754   23.1122 C.ar    1  UNL1        0.0046
      7 C         -11.0669  -17.2199   20.9865 C.3     1  UNL1        0.0285
      8 C         -11.4843  -17.7736   22.3166 C.2     1  UNL1       -0.0155
      9 C         -12.9247  -17.7216   22.7321 C.3     1  UNL1        0.1122
     10 C         -13.3421  -18.2753   24.0622 C.2     1  UNL1        0.2668
     11 O         -14.7825  -18.2232   24.4777 O.2     1  UNL1       -0.2711
     12 N         -12.3191  -18.8812   24.9768 N.am    1  UNL1       -0.0790
     13 N         -10.8788  -18.9332   24.5613 N.2     1  UNL1       -0.1568
     14 C         -10.4614  -18.3795   23.2312 C.2     1  UNL1        0.0931
     15 O          -4.6999  -18.5880   21.5692 O.3     1  UNL1       -0.4754
     16 C          -3.6242  -18.7154   22.6068 C.3     1  UNL1        0.2068
     17 C          -2.7273  -17.5504   22.9042 C.3     1  UNL1        0.0646
     18 C          -2.3923  -16.5665   21.8226 C.3     1  UNL1        0.0759
     19 N          -2.2142  -17.0371   20.4095 N.3     1  UNL1       -0.2738
     20 C          -3.2860  -17.1095   19.3626 C.3     1  UNL1        0.0721
     21 C          -2.6672  -17.6351   18.1013 C.3     1  UNL1        0.0187
     22 C          -1.2129  -17.8875   18.3687 C.3     1  UNL1        0.0174
     23 C          -0.9330  -17.5180   19.7952 C.3     1  UNL1        0.0576
     24 C           0.3950  -17.6126   20.4863 C.3     1  UNL1        0.0173
@<TRIPOS>BOND
     1     7     8    1
     2     8     9    1
     3     9    10    1
     4    10    11    2
     5    10    12    1
     6    12    13    2
     7    13    14    1
     8    14     1    1
     9     1     2   ar
    10     2     3   ar
    11     3     4   ar
    12     4    15    1
    13    15    16    1
    14    16    17    1
    15    17    18    1
    16    18    19    1
    17    19    20    1
    18    20    21    1
    19    21    22    1
    20    22    23    1
    21    23    24    1
    22     4     5   ar
    23     5     6   ar
    24    14     8    2
    25     6     1   ar
    26    23    19    1
