@<TRIPOS>MOLECULE
*****
 29 31 0 0 0
SMALL
GASTEIGER

@<TRIPOS>ATOM
      1 C          -6.0378  -15.9266   24.9507 C.3     1  UNL1        0.1533
      2 C          -5.7133  -15.3776   26.3084 C.3     1  UNL1        0.0293
      3 C          -6.8110  -15.1367   27.3019 C.3     1  UNL1        0.0040
      4 C          -8.2331  -15.4447   26.9377 C.3     1  UNL1        0.0216
      5 C          -8.5576  -15.9937   25.5800 C.3     1  UNL1        0.0954
      6 N          -7.4599  -16.2346   24.5865 N.am    1  UNL1       -0.2573
      7 C          -7.7844  -16.7835   23.2287 C.2     1  UNL1        0.3076
      8 O          -6.6867  -17.0244   22.2353 O.2     1  UNL1       -0.2523
      9 N          -9.2065  -17.0915   22.8645 N.am    1  UNL1       -0.2604
     10 C         -10.3042  -16.8506   23.8581 C.3     1  UNL1        0.1203
     11 C         -11.7263  -17.1586   23.4939 C.3     1  UNL1        0.1723
     12 S         -12.0508  -17.7076   22.1361 S.O2    1  UNL1       -0.0066
     13 O         -12.8533  -18.2367   20.9845 O.2     1  UNL1       -0.1729
     14 O         -13.4272  -17.6504   22.7297 O.2     1  UNL1       -0.1729
     15 C         -10.9531  -17.9485   21.1427 C.3     1  UNL1        0.1723
     16 C          -9.5310  -17.6405   21.5069 C.3     1  UNL1        0.1203
     17 N          -4.3373  -17.5344   23.8223 N.am    1  UNL1       -0.2654
     18 C          -4.9401  -16.1675   23.9572 C.2     1  UNL1        0.2454
     19 O          -4.4453  -15.0415   23.0985 O.2     1  UNL1       -0.2730
     20 H          -4.6620  -18.2734   24.3859 H       1  UNL1        0.1564
     21 C          -2.0135  -17.9544   20.7417 C.ar    1  UNL1        0.1549
     22 C          -3.3437  -17.6068   21.3419 C.ar    1  UNL1        0.0733
     23 C          -3.2396  -17.7753   22.8287 C.ar    1  UNL1        0.1760
     24 N          -1.8452  -18.2270   23.1476 N.ar    1  UNL1       -0.0621
     25 O          -1.0875  -18.3377   21.8578 O.2     1  UNL1       -0.3565
     26 C          -0.2104  -17.8895   19.6263 C.3     1  UNL1        0.0076
     27 C          -1.6699  -17.9240   19.2820 C.3     1  UNL1        0.0539
     28 C          -3.1294  -17.9585   18.9376 C.3     1  UNL1        0.0076
     29 C          -1.3262  -17.8936   17.8222 C.3     1  UNL1        0.0076
@<TRIPOS>BOND
     1    26    27    1
     2    27    28    1
     3    27    29    1
     4    27    21    1
     5    21    22   ar
     6    22    23   ar
     7    23    17    1
     8    17    18   am
     9    18    19    2
    10     1    18    1
    11     1     2    1
    12     2     3    1
    13     3     4    1
    14     4     5    1
    15     5     6    1
    16     6     7   am
    17     7     8    2
    18     7     9   am
    19     9    10    1
    20    10    11    1
    21    11    12    1
    22    12    13    2
    23    12    14    2
    24    12    15    1
    25    15    16    1
    26    23    24   ar
    27    24    25   ar
    28    25    21   ar
    29     6     1    1
    30    16     9    1
    31    17    20    1
@<TRIPOS>MOLECULE
*****
 29 31 0 0 0
SMALL
GASTEIGER

@<TRIPOS>ATOM
      1 C         -11.8394   -4.5588   19.0752 C.3     1  UNL1        0.1533
      2 C         -10.3437   -4.5959   18.9675 C.3     1  UNL1        0.0293
      3 C          -9.6435   -5.8941   18.6947 C.3     1  UNL1        0.0040
      4 C         -10.4389   -7.1551   18.5297 C.3     1  UNL1        0.0216
      5 C         -11.9345   -7.1179   18.6374 C.3     1  UNL1        0.0954
      6 N         -12.6348   -5.8198   18.9102 N.am    1  UNL1       -0.2573
      7 C         -14.1305   -5.7826   19.0180 C.2     1  UNL1        0.3076
      8 O         -14.8307   -4.4844   19.2907 O.2     1  UNL1       -0.2523
      9 N         -14.9259   -7.0436   18.8529 N.am    1  UNL1       -0.2604
     10 C         -14.2256   -8.3418   18.5802 C.3     1  UNL1        0.1203
     11 C         -15.0210   -9.6027   18.4151 C.3     1  UNL1        0.1723
     12 S         -16.5167   -9.5655   18.5229 S.O2    1  UNL1       -0.0066
     13 O         -17.9410  -10.0360   18.5377 O.2     1  UNL1       -0.1729
     14 O         -16.3111  -11.0271   18.2553 O.2     1  UNL1       -0.1729
     15 C         -17.2169   -8.2674   18.7957 C.3     1  UNL1        0.1723
     16 C         -16.4215   -7.0064   18.9607 C.3     1  UNL1        0.1203
     17 N         -12.7797   -2.2888   18.2310 N.am    1  UNL1       -0.2654
     18 C         -12.5397   -3.2606   19.3480 C.2     1  UNL1        0.2454
     19 O         -12.9999   -2.9343   20.7379 O.2     1  UNL1       -0.2730
     20 H         -12.4777   -2.5029   17.3187 H       1  UNL1        0.1564
     21 C         -15.1765    0.6318   19.1208 C.ar    1  UNL1        0.1549
     22 C         -14.8928   -0.8348   18.9832 C.ar    1  UNL1        0.0733
     23 C         -13.4801   -0.9906   18.5037 C.ar    1  UNL1        0.1760
     24 N         -12.8906    0.3796   18.3450 N.ar    1  UNL1       -0.0621
     25 O         -13.9390    1.3823   18.7263 O.2     1  UNL1       -0.3565
     26 C         -16.1742    2.4699   18.7659 C.3     1  UNL1        0.0076
     27 C         -16.4704    1.2409   19.5733 C.3     1  UNL1        0.0539
     28 C         -16.7665    0.0120   20.3807 C.3     1  UNL1        0.0076
     29 C         -17.7643    1.8500   20.0258 C.3     1  UNL1        0.0076
@<TRIPOS>BOND
     1    26    27    1
     2    27    28    1
     3    27    29    1
     4    27    21    1
     5    21    22   ar
     6    22    23   ar
     7    23    17    1
     8    17    18   am
     9    18    19    2
    10     1    18    1
    11     1     2    1
    12     2     3    1
    13     3     4    1
    14     4     5    1
    15     5     6    1
    16     6     7   am
    17     7     8    2
    18     7     9   am
    19     9    10    1
    20    10    11    1
    21    11    12    1
    22    12    13    2
    23    12    14    2
    24    12    15    1
    25    15    16    1
    26    23    24   ar
    27    24    25   ar
    28    25    21   ar
    29     6     1    1
    30    16     9    1
    31    17    20    1
@<TRIPOS>MOLECULE
*****
 29 31 0 0 0
SMALL
GASTEIGER

@<TRIPOS>ATOM
      1 C           8.3937   -6.1084   26.5295 C.3     1  UNL1        0.1533
      2 C           9.2550   -7.3202   26.3311 C.3     1  UNL1        0.0293
      3 C           9.4268   -7.9018   24.9592 C.3     1  UNL1        0.0040
      4 C           8.7372   -7.2715   23.7856 C.3     1  UNL1        0.0216
      5 C           7.8759   -6.0596   23.9840 C.3     1  UNL1        0.0954
      6 N           7.7041   -5.4780   25.3559 N.am    1  UNL1       -0.2573
      7 C           6.8427   -4.2661   25.5543 C.2     1  UNL1        0.3076
      8 O           6.6710   -3.6845   26.9263 O.2     1  UNL1       -0.2523
      9 N           6.1532   -3.6358   24.3808 N.am    1  UNL1       -0.2604
     10 C           6.3250   -4.2174   23.0088 C.3     1  UNL1        0.1203
     11 C           5.6354   -3.5871   21.8353 C.3     1  UNL1        0.1723
     12 S           4.7740   -2.3752   22.0337 S.O2    1  UNL1       -0.0066
     13 O           3.8624   -1.2267   21.7175 O.2     1  UNL1       -0.1729
     14 O           4.6292   -2.5579   20.5519 O.2     1  UNL1       -0.1729
     15 C           4.6023   -1.7936   23.4056 C.3     1  UNL1        0.1723
     16 C           5.2918   -2.4239   24.5792 C.3     1  UNL1        0.1203
     17 N           7.0084   -5.8682   28.7143 N.am    1  UNL1       -0.2654
     18 C           8.2219   -5.5267   27.9014 C.2     1  UNL1        0.2454
     19 O           9.2636   -4.6035   28.4605 O.2     1  UNL1       -0.2730
     20 H           6.3247   -6.4742   28.3473 H       1  UNL1        0.1564
     21 C           6.5325   -3.7038   31.9009 C.ar    1  UNL1        0.1549
     22 C           6.6713   -3.8319   30.4127 C.ar    1  UNL1        0.0733
     23 C           6.8366   -5.2866   30.0863 C.ar    1  UNL1        0.1760
     24 N           6.7999   -6.0575   31.3725 N.ar    1  UNL1       -0.0621
     25 O           6.6119   -5.0793   32.4940 O.2     1  UNL1       -0.3565
     26 C           4.8867   -2.7304   32.8196 C.3     1  UNL1        0.0076
     27 C           6.3468   -2.4247   32.6622 C.3     1  UNL1        0.0539
     28 C           7.8068   -2.1190   32.5047 C.3     1  UNL1        0.0076
     29 C           6.1610   -1.1457   33.4234 C.3     1  UNL1        0.0076
@<TRIPOS>BOND
     1    26    27    1
     2    27    28    1
     3    27    29    1
     4    27    21    1
     5    21    22   ar
     6    22    23   ar
     7    23    17    1
     8    17    18   am
     9    18    19    2
    10     1    18    1
    11     1     2    1
    12     2     3    1
    13     3     4    1
    14     4     5    1
    15     5     6    1
    16     6     7   am
    17     7     8    2
    18     7     9   am
    19     9    10    1
    20    10    11    1
    21    11    12    1
    22    12    13    2
    23    12    14    2
    24    12    15    1
    25    15    16    1
    26    23    24   ar
    27    24    25   ar
    28    25    21   ar
    29     6     1    1
    30    16     9    1
    31    17    20    1
@<TRIPOS>MOLECULE
*****
 29 31 0 0 0
SMALL
GASTEIGER

@<TRIPOS>ATOM
      1 C           4.4495   -2.1590   19.5039 C.3     1  UNL1        0.1533
      2 C           4.6291   -2.1060   18.0157 C.3     1  UNL1        0.0293
      3 C           3.9826   -1.0105   17.2208 C.3     1  UNL1        0.0040
      4 C           3.1565    0.0320   17.9142 C.3     1  UNL1        0.0216
      5 C           2.9769   -0.0210   19.4024 C.3     1  UNL1        0.0954
      6 N           3.6234   -1.1165   20.1973 N.am    1  UNL1       -0.2573
      7 C           3.4438   -1.1696   21.6856 C.2     1  UNL1        0.3076
      8 O           4.0903   -2.2651   22.4805 O.2     1  UNL1       -0.2523
      9 N           2.6177   -0.1271   22.3790 N.am    1  UNL1       -0.2604
     10 C           1.9712    0.9684   21.5840 C.3     1  UNL1        0.1203
     11 C           1.1451    2.0109   22.2774 C.3     1  UNL1        0.1723
     12 S           0.9655    1.9579   23.7657 S.O2    1  UNL1       -0.0066
     13 O           0.5059    2.3302   25.1442 O.2     1  UNL1       -0.1729
     14 O           0.1593    3.1827   23.4495 O.2     1  UNL1       -0.1729
     15 C           1.6120    0.8624   24.5606 C.3     1  UNL1        0.1723
     16 C           2.4381   -0.1801   23.8672 C.3     1  UNL1        0.1203
     17 N           6.4143   -3.0143   20.9731 N.am    1  UNL1       -0.2654
     18 C           5.0961   -3.2546   20.2989 C.2     1  UNL1        0.2454
     19 O           4.4243   -4.5903   20.4196 O.2     1  UNL1       -0.2730
     20 H           6.8551   -2.1377   20.8938 H       1  UNL1        0.1564
     21 C           7.7095   -5.5509   23.6101 C.ar    1  UNL1        0.1549
     22 C           6.8807   -4.3577   23.2364 C.ar    1  UNL1        0.0733
     23 C           7.0608   -4.1099   21.7680 C.ar    1  UNL1        0.1760
     24 N           8.0008   -5.1498   21.2342 N.ar    1  UNL1       -0.0621
     25 O           8.4017   -6.0404   22.3726 O.2     1  UNL1       -0.3565
     26 C           7.2561   -4.8962   25.5762 C.3     1  UNL1        0.0076
     27 C           7.8257   -6.1495   24.9806 C.3     1  UNL1        0.0539
     28 C           8.3953   -7.4028   24.3849 C.3     1  UNL1        0.0076
     29 C           7.9419   -6.7481   26.3510 C.3     1  UNL1        0.0076
@<TRIPOS>BOND
     1    26    27    1
     2    27    28    1
     3    27    29    1
     4    27    21    1
     5    21    22   ar
     6    22    23   ar
     7    23    17    1
     8    17    18   am
     9    18    19    2
    10     1    18    1
    11     1     2    1
    12     2     3    1
    13     3     4    1
    14     4     5    1
    15     5     6    1
    16     6     7   am
    17     7     8    2
    18     7     9   am
    19     9    10    1
    20    10    11    1
    21    11    12    1
    22    12    13    2
    23    12    14    2
    24    12    15    1
    25    15    16    1
    26    23    24   ar
    27    24    25   ar
    28    25    21   ar
    29     6     1    1
    30    16     9    1
    31    17    20    1
@<TRIPOS>MOLECULE
*****
 29 31 0 0 0
SMALL
GASTEIGER

@<TRIPOS>ATOM
      1 C          -1.1086    2.9530   22.4591 C.3     1  UNL1        0.1533
      2 C          -0.7641    2.9427   23.9189 C.3     1  UNL1        0.0293
      3 C          -1.7592    3.4346   24.9278 C.3     1  UNL1        0.0040
      4 C          -3.0988    3.9367   24.4768 C.3     1  UNL1        0.0216
      5 C          -3.4433    3.9469   23.0170 C.3     1  UNL1        0.0954
      6 N          -2.4482    3.4551   22.0082 N.am    1  UNL1       -0.2573
      7 C          -2.7927    3.4653   20.5482 C.2     1  UNL1        0.3076
      8 O          -1.7977    2.9735   19.5394 O.2     1  UNL1       -0.2523
      9 N          -4.1323    3.9674   20.0973 N.am    1  UNL1       -0.2604
     10 C          -5.1274    4.4593   21.1062 C.3     1  UNL1        0.1203
     11 C          -6.4670    4.9614   20.6552 C.3     1  UNL1        0.1723
     12 S          -6.8115    4.9716   19.1953 S.O2    1  UNL1       -0.0066
     13 O          -7.5963    5.1775   17.9336 O.2     1  UNL1       -0.1729
     14 O          -8.0792    5.5350   19.7661 O.2     1  UNL1       -0.1729
     15 C          -5.8164    4.4798   18.1865 C.3     1  UNL1        0.1723
     16 C          -4.4769    3.9777   18.6374 C.3     1  UNL1        0.1203
     17 N          -0.2192    1.0653   20.9114 N.am    1  UNL1       -0.2654
     18 C          -0.1135    2.4611   21.4502 C.2     1  UNL1        0.2454
     19 O           0.9872    3.3652   20.9801 O.2     1  UNL1       -0.2730
     20 H          -0.9417    0.4719   21.2199 H       1  UNL1        0.1564
     21 C           2.6107   -0.6326   18.8682 C.ar    1  UNL1        0.1549
     22 C           1.8519   -0.4424   20.1482 C.ar    1  UNL1        0.0733
     23 C           0.7759    0.5734   19.9024 C.ar    1  UNL1        0.1760
     24 N           0.8696    1.0109   18.4707 N.ar    1  UNL1       -0.0621
     25 O           2.0036    0.2656   17.8315 O.2     1  UNL1       -0.3565
     26 C           4.0295   -0.9366   17.3208 C.3     1  UNL1        0.0076
     27 C           3.7726   -1.5585   18.6614 C.3     1  UNL1        0.0539
     28 C           3.5157   -2.1804   20.0019 C.3     1  UNL1        0.0076
     29 C           4.9345   -2.4843   18.4545 C.3     1  UNL1        0.0076
@<TRIPOS>BOND
     1    26    27    1
     2    27    28    1
     3    27    29    1
     4    27    21    1
     5    21    22   ar
     6    22    23   ar
     7    23    17    1
     8    17    18   am
     9    18    19    2
    10     1    18    1
    11     1     2    1
    12     2     3    1
    13     3     4    1
    14     4     5    1
    15     5     6    1
    16     6     7   am
    17     7     8    2
    18     7     9   am
    19     9    10    1
    20    10    11    1
    21    11    12    1
    22    12    13    2
    23    12    14    2
    24    12    15    1
    25    15    16    1
    26    23    24   ar
    27    24    25   ar
    28    25    21   ar
    29     6     1    1
    30    16     9    1
    31    17    20    1
@<TRIPOS>MOLECULE
*****
 29 31 0 0 0
SMALL
GASTEIGER

@<TRIPOS>ATOM
      1 C           7.7087   -5.2310   23.7115 C.3     1  UNL1        0.1533
      2 C           8.3916   -6.1589   22.7510 C.3     1  UNL1        0.0293
      3 C           9.1551   -7.3427   23.2662 C.3     1  UNL1        0.0040
      4 C           9.2359   -7.5985   24.7420 C.3     1  UNL1        0.0216
      5 C           8.5530   -6.6706   25.7026 C.3     1  UNL1        0.0954
      6 N           7.7895   -5.4868   25.1873 N.am    1  UNL1       -0.2573
      7 C           7.1066   -4.5588   26.1478 C.2     1  UNL1        0.3076
      8 O           6.3430   -3.3750   25.6325 O.2     1  UNL1       -0.2523
      9 N           7.1873   -4.8147   27.6236 N.am    1  UNL1       -0.2604
     10 C           7.9509   -5.9986   28.1389 C.3     1  UNL1        0.1203
     11 C           8.0317   -6.2544   29.6147 C.3     1  UNL1        0.1723
     12 S           7.3488   -5.3264   30.5753 S.O2    1  UNL1       -0.0066
     13 O           6.8738   -4.7387   31.8711 O.2     1  UNL1       -0.1729
     14 O           7.9474   -6.3061   31.5406 O.2     1  UNL1       -0.1729
     15 C           6.5852   -4.1426   30.0600 C.3     1  UNL1        0.1723
     16 C           6.5045   -3.8868   28.5842 C.3     1  UNL1        0.1203
     17 N           5.4570   -4.1302   23.0273 N.am    1  UNL1       -0.2654
     18 C           6.9451   -4.0471   23.1962 C.2     1  UNL1        0.2454
     19 O           7.6697   -2.7802   22.8499 O.2     1  UNL1       -0.2730
     20 H           4.9815   -4.9617   23.2546 H       1  UNL1        0.1564
     21 C           3.6121   -1.3699   21.0165 C.ar    1  UNL1        0.1549
     22 C           4.3964   -2.6474   21.0724 C.ar    1  UNL1        0.0733
     23 C           4.6934   -2.9463   22.5120 C.ar    1  UNL1        0.1760
     24 N           4.0927   -1.8537   23.3458 N.ar    1  UNL1       -0.0621
     25 O           3.4245   -0.8794   22.4216 O.2     1  UNL1       -0.3565
     26 C           4.5124   -0.5578   19.2758 C.3     1  UNL1        0.0076
     27 C           3.1047   -0.7005   19.7738 C.3     1  UNL1        0.0539
     28 C           1.6970   -0.8432   20.2718 C.3     1  UNL1        0.0076
     29 C           2.5972   -0.0311   18.5311 C.3     1  UNL1        0.0076
@<TRIPOS>BOND
     1    26    27    1
     2    27    28    1
     3    27    29    1
     4    27    21    1
     5    21    22   ar
     6    22    23   ar
     7    23    17    1
     8    17    18   am
     9    18    19    2
    10     1    18    1
    11     1     2    1
    12     2     3    1
    13     3     4    1
    14     4     5    1
    15     5     6    1
    16     6     7   am
    17     7     8    2
    18     7     9   am
    19     9    10    1
    20    10    11    1
    21    11    12    1
    22    12    13    2
    23    12    14    2
    24    12    15    1
    25    15    16    1
    26    23    24   ar
    27    24    25   ar
    28    25    21   ar
    29     6     1    1
    30    16     9    1
    31    17    20    1
@<TRIPOS>MOLECULE
*****
 29 31 0 0 0
SMALL
GASTEIGER

@<TRIPOS>ATOM
      1 C           6.9601   -2.8494   27.3028 C.3     1  UNL1        0.1533
      2 C           8.1091   -3.5316   27.9842 C.3     1  UNL1        0.0293
      3 C           8.2207   -3.4988   29.4797 C.3     1  UNL1        0.0040
      4 C           7.1832   -2.7839   30.2937 C.3     1  UNL1        0.0216
      5 C           6.0342   -2.1017   29.6123 C.3     1  UNL1        0.0954
      6 N           5.9226   -2.1345   28.1168 N.am    1  UNL1       -0.2573
      7 C           4.7736   -1.4523   27.4353 C.2     1  UNL1        0.3076
      8 O           4.6620   -1.4851   25.9399 O.2     1  UNL1       -0.2523
      9 N           3.7362   -0.7374   28.2493 N.am    1  UNL1       -0.2604
     10 C           3.8478   -0.7047   29.7449 C.3     1  UNL1        0.1203
     11 C           2.8104    0.0102   30.5589 C.3     1  UNL1        0.1723
     12 S           1.6613    0.6924   29.8774 S.O2    1  UNL1       -0.0066
     13 O           0.3987    1.4811   29.6931 O.2     1  UNL1       -0.1729
     14 O           1.3344    0.9991   31.3089 O.2     1  UNL1       -0.1729
     15 C           1.5497    0.6596   28.3819 C.3     1  UNL1        0.1723
     16 C           2.5871   -0.0553   27.5679 C.3     1  UNL1        0.1203
     17 N           6.0317   -3.9483   25.1393 N.am    1  UNL1       -0.2654
     18 C           6.8484   -2.8822   25.8073 C.2     1  UNL1        0.2454
     19 O           7.5536   -1.8488   24.9798 O.2     1  UNL1       -0.2730
     20 H           5.5689   -4.6266   25.6825 H       1  UNL1        0.1564
     21 C           5.1061   -3.6459   21.3820 C.ar    1  UNL1        0.1549
     22 C           4.8154   -3.3764   22.8288 C.ar    1  UNL1        0.0733
     23 C           5.9200   -3.9811   23.6438 C.ar    1  UNL1        0.1760
     24 N           6.8933   -4.6242   22.7009 N.ar    1  UNL1       -0.0621
     25 O           6.3903   -4.4170   21.3030 O.2     1  UNL1       -0.3565
     26 C           4.7201   -4.4192   19.4448 C.3     1  UNL1        0.0076
     27 C           4.2610   -3.2191   20.2186 C.3     1  UNL1        0.0539
     28 C           3.8018   -2.0190   20.9924 C.3     1  UNL1        0.0076
     29 C           3.4158   -2.7923   19.0551 C.3     1  UNL1        0.0076
@<TRIPOS>BOND
     1    26    27    1
     2    27    28    1
     3    27    29    1
     4    27    21    1
     5    21    22   ar
     6    22    23   ar
     7    23    17    1
     8    17    18   am
     9    18    19    2
    10     1    18    1
    11     1     2    1
    12     2     3    1
    13     3     4    1
    14     4     5    1
    15     5     6    1
    16     6     7   am
    17     7     8    2
    18     7     9   am
    19     9    10    1
    20    10    11    1
    21    11    12    1
    22    12    13    2
    23    12    14    2
    24    12    15    1
    25    15    16    1
    26    23    24   ar
    27    24    25   ar
    28    25    21   ar
    29     6     1    1
    30    16     9    1
    31    17    20    1
@<TRIPOS>MOLECULE
*****
 29 31 0 0 0
SMALL
GASTEIGER

@<TRIPOS>ATOM
      1 C          -0.4922    2.6773   23.1533 C.3     1  UNL1        0.1533
      2 C          -1.6863    3.5413   22.8750 C.3     1  UNL1        0.0293
      3 C          -2.5742    3.9792   24.0019 C.3     1  UNL1        0.0040
      4 C          -2.2680    3.5529   25.4071 C.3     1  UNL1        0.0216
      5 C          -1.0739    2.6889   25.6854 C.3     1  UNL1        0.0954
      6 N          -0.1860    2.2511   24.5585 N.am    1  UNL1       -0.2573
      7 C           1.0082    1.3870   24.8368 C.2     1  UNL1        0.3076
      8 O           1.8961    0.9491   23.7099 O.2     1  UNL1       -0.2523
      9 N           1.3144    0.9607   26.2420 N.am    1  UNL1       -0.2604
     10 C           0.4264    1.3986   27.3689 C.3     1  UNL1        0.1203
     11 C           0.7326    0.9723   28.7741 C.3     1  UNL1        0.1723
     12 S           1.9267    0.1082   29.0524 S.O2    1  UNL1       -0.0066
     13 O           2.9340   -0.7015   29.8139 O.2     1  UNL1       -0.1729
     14 O           1.3886    0.2649   30.4438 O.2     1  UNL1       -0.1729
     15 C           2.8146   -0.3296   27.9255 C.3     1  UNL1        0.1723
     16 C           2.5085    0.0967   26.5203 C.3     1  UNL1        0.1203
     17 N           0.1471    0.9283   21.3416 N.am    1  UNL1       -0.2654
     18 C           0.3958    2.2394   22.0264 C.2     1  UNL1        0.2454
     19 O           1.5325    3.1127   21.5845 O.2     1  UNL1       -0.2730
     20 H          -0.5989    0.3552   21.6316 H       1  UNL1        0.1564
     21 C           2.7430   -0.6695   18.9385 C.ar    1  UNL1        0.1549
     22 C           2.1094   -0.5534   20.2933 C.ar    1  UNL1        0.0733
     23 C           1.0351    0.4905   20.2146 C.ar    1  UNL1        0.1760
     24 N           1.0047    1.0196   18.8114 N.ar    1  UNL1       -0.0621
     25 O           2.0601    0.3028   18.0227 O.2     1  UNL1       -0.3565
     26 C           4.0279   -0.8699   17.2626 C.3     1  UNL1        0.0076
     27 C           3.8626   -1.5951   18.5652 C.3     1  UNL1        0.0539
     28 C           3.6974   -2.3204   19.8677 C.3     1  UNL1        0.0076
     29 C           4.9823   -2.5208   18.1918 C.3     1  UNL1        0.0076
@<TRIPOS>BOND
     1    26    27    1
     2    27    28    1
     3    27    29    1
     4    27    21    1
     5    21    22   ar
     6    22    23   ar
     7    23    17    1
     8    17    18   am
     9    18    19    2
    10     1    18    1
    11     1     2    1
    12     2     3    1
    13     3     4    1
    14     4     5    1
    15     5     6    1
    16     6     7   am
    17     7     8    2
    18     7     9   am
    19     9    10    1
    20    10    11    1
    21    11    12    1
    22    12    13    2
    23    12    14    2
    24    12    15    1
    25    15    16    1
    26    23    24   ar
    27    24    25   ar
    28    25    21   ar
    29     6     1    1
    30    16     9    1
    31    17    20    1
@<TRIPOS>MOLECULE
*****
 29 31 0 0 0
SMALL
GASTEIGER

@<TRIPOS>ATOM
      1 C           2.8688   -0.3859   19.4897 C.3     1  UNL1        0.1533
      2 C           2.8449   -0.0179   18.0358 C.3     1  UNL1        0.0293
      3 C           3.9027   -0.5441   17.1116 C.3     1  UNL1        0.0040
      4 C           4.9843   -1.4383   17.6413 C.3     1  UNL1        0.0216
      5 C           5.0081   -1.8063   19.0952 C.3     1  UNL1        0.0954
      6 N           3.9504   -1.2801   20.0194 N.am    1  UNL1       -0.2573
      7 C           3.9742   -1.6481   21.4734 C.2     1  UNL1        0.3076
      8 O           2.9164   -1.1219   22.3977 O.2     1  UNL1       -0.2523
      9 N           5.0558   -2.5423   22.0031 N.am    1  UNL1       -0.2604
     10 C           6.1136   -3.0685   21.0788 C.3     1  UNL1        0.1203
     11 C           7.1952   -3.9626   21.6085 C.3     1  UNL1        0.1723
     12 S           7.2190   -4.3306   23.0626 S.O2    1  UNL1       -0.0066
     13 O           7.6638   -4.9569   24.3510 O.2     1  UNL1       -0.1729
     14 O           8.4313   -5.0743   22.5857 O.2     1  UNL1       -0.1729
     15 C           6.1612   -3.8045   23.9868 C.3     1  UNL1        0.1723
     16 C           5.0796   -2.9103   23.4571 C.3     1  UNL1        0.1203
     17 N           2.0920    1.3393   21.2703 N.am    1  UNL1       -0.2654
     18 C           1.8110    0.1403   20.4140 C.2     1  UNL1        0.2454
     19 O           0.4721   -0.5327   20.4821 O.2     1  UNL1       -0.2730
     20 H           2.9708    1.7810   21.2256 H       1  UNL1        0.1564
     21 C          -0.2857    2.2949   24.1855 C.ar    1  UNL1        0.1549
     22 C           0.9105    1.5595   23.6578 C.ar    1  UNL1        0.0733
     23 C           1.0342    1.8655   22.1946 C.ar    1  UNL1        0.1760
     24 N          -0.0853    2.7900   21.8179 N.ar    1  UNL1       -0.0621
     25 O          -0.9011    3.0554   23.0484 O.2     1  UNL1       -0.3565
     26 C           0.3299    1.3359   25.9747 C.3     1  UNL1        0.0076
     27 C          -0.7798    2.2736   25.6017 C.3     1  UNL1        0.0539
     28 C          -1.8894    3.2114   25.2287 C.3     1  UNL1        0.0076
     29 C          -1.2738    2.2523   27.0178 C.3     1  UNL1        0.0076
@<TRIPOS>BOND
     1    26    27    1
     2    27    28    1
     3    27    29    1
     4    27    21    1
     5    21    22   ar
     6    22    23   ar
     7    23    17    1
     8    17    18   am
     9    18    19    2
    10     1    18    1
    11     1     2    1
    12     2     3    1
    13     3     4    1
    14     4     5    1
    15     5     6    1
    16     6     7   am
    17     7     8    2
    18     7     9   am
    19     9    10    1
    20    10    11    1
    21    11    12    1
    22    12    13    2
    23    12    14    2
    24    12    15    1
    25    15    16    1
    26    23    24   ar
    27    24    25   ar
    28    25    21   ar
    29     6     1    1
    30    16     9    1
    31    17    20    1
