@<TRIPOS>MOLECULE
*****
 31 34 0 0 0
SMALL
GASTEIGER

@<TRIPOS>ATOM
      1 C          -4.2899  -16.7951   22.9952 C.ar    1  UNL1        0.1215
      2 N          -3.1325  -15.9558   22.5414 N.ar    1  UNL1       -0.2309
      3 C          -2.2982  -16.7824   21.6083 C.ar    1  UNL1        0.0983
      4 C          -1.0370  -16.4801   20.8547 C.ar    1  UNL1        0.0206
      5 C          -0.4176  -17.5279   19.9782 C.ar    1  UNL1        0.0016
      6 C          -1.0594  -18.8781   19.8553 C.ar    1  UNL1        0.0016
      7 C          -2.3206  -19.1804   20.6089 C.ar    1  UNL1        0.0188
      8 C          -2.9400  -18.1325   21.4854 C.ar    1  UNL1        0.0789
      9 N          -4.1710  -18.1404   22.3425 N.ar    1  UNL1       -0.3106
     10 N          -7.8811  -15.8561   24.3994 N.3     1  UNL1       -0.2646
     11 C          -7.5473  -15.5037   25.8187 C.3     1  UNL1        0.0725
     12 C          -6.1277  -15.5817   26.2968 C.3     1  UNL1        0.0178
     13 C          -5.0419  -16.0122   25.3556 C.3     1  UNL1        0.0103
     14 C          -5.3757  -16.3646   23.9363 C.3     1  UNL1        0.0729
     15 C          -6.7953  -16.2866   23.4583 C.3     1  UNL1        0.0800
     16 C          -9.3008  -15.7781   23.9213 C.3     1  UNL1        0.1587
     17 N         -11.4107  -17.0942   23.1690 N.am    1  UNL1       -0.2784
     18 C         -10.2014  -16.9710   24.0477 C.2     1  UNL1        0.2420
     19 O          -9.8925  -18.0407   25.0530 O.2     1  UNL1       -0.2734
     20 C         -13.6754  -18.1361   23.9009 C.3     1  UNL1        0.0233
     21 C         -12.3113  -18.2871   23.2955 C.3     1  UNL1        0.0935
     22 C         -11.7195  -16.0245   22.1637 C.3     1  UNL1        0.0935
     23 C         -11.7278  -16.3510   20.6998 C.3     1  UNL1        0.0233
     24 C          -5.1169  -19.2914   22.5164 C.3     1  UNL1        0.1339
     25 C          -6.3940  -19.3379   21.7313 C.ar    1  UNL1        0.0006
     26 C          -6.3535  -19.3260   20.2318 C.ar    1  UNL1       -0.0001
     27 C          -7.6307  -19.3724   19.4466 C.ar    1  UNL1        0.0294
     28 C          -8.9485  -19.4309   20.1608 C.ar    1  UNL1        0.1401
     29 F         -10.2257  -19.4773   19.3755 F       1  UNL1       -0.2042
     30 C          -8.9890  -19.4428   21.6602 C.ar    1  UNL1        0.0294
     31 C          -7.7118  -19.3963   22.4454 C.ar    1  UNL1       -0.0001
@<TRIPOS>BOND
     1    20    21    1
     2    21    17    1
     3    17    22    1
     4    22    23    1
     5    17    18   am
     6    18    19    2
     7    18    16    1
     8    16    10    1
     9    10    11    1
    10    11    12    1
    11    12    13    1
    12    13    14    1
    13    14     1    1
    14     1     2   ar
    15     2     3   ar
    16     3     4   ar
    17     4     5   ar
    18     5     6   ar
    19     6     7   ar
    20     7     8   ar
    21     8     9   ar
    22     9    24    1
    23    24    25    1
    24    25    26   ar
    25    26    27   ar
    26    27    28   ar
    27    28    29    1
    28    28    30   ar
    29    30    31   ar
    30    14    15    1
    31    15    10    1
    32     9     1   ar
    33    31    25   ar
    34     8     3   ar
@<TRIPOS>MOLECULE
*****
 31 34 0 0 0
SMALL
GASTEIGER

@<TRIPOS>ATOM
      1 C          -8.7197  -18.7422   21.4112 C.ar    1  UNL1        0.1215
      2 N         -10.0701  -19.3794   21.2682 N.ar    1  UNL1       -0.2309
      3 C         -11.1004  -18.3900   21.7260 C.ar    1  UNL1        0.0983
      4 C         -12.5961  -18.4648   21.8100 C.ar    1  UNL1        0.0206
      5 C         -13.3782  -17.2908   22.3199 C.ar    1  UNL1        0.0016
      6 C         -12.6646  -16.0421   22.7458 C.ar    1  UNL1        0.0016
      7 C         -11.1689  -15.9673   22.6618 C.ar    1  UNL1        0.0188
      8 C         -10.3867  -17.1412   22.1519 C.ar    1  UNL1        0.0789
      9 N          -8.9154  -17.3589   21.9573 N.ar    1  UNL1       -0.3106
     10 N          -4.8341  -19.5497   21.4043 N.3     1  UNL1       -0.2646
     11 C          -4.7742  -20.6461   20.3825 C.3     1  UNL1        0.0725
     12 C          -6.0295  -21.1079   19.7036 C.3     1  UNL1        0.0178
     13 C          -7.3446  -20.4733   20.0465 C.3     1  UNL1        0.0103
     14 C          -7.4045  -19.3769   21.0683 C.3     1  UNL1        0.0729
     15 C          -6.1493  -18.9151   21.7472 C.3     1  UNL1        0.0800
     16 C          -3.5788  -19.0878   22.0833 C.3     1  UNL1        0.1587
     17 N          -1.5771  -18.1550   20.7148 N.am    1  UNL1       -0.2784
     18 C          -2.2486  -19.2948   21.4217 C.2     1  UNL1        0.2420
     19 O          -1.5899  -20.6418   21.4670 O.2     1  UNL1       -0.2734
     20 C           0.7935  -17.2826   20.1069 C.3     1  UNL1        0.0233
     21 C          -0.2469  -18.3619   20.0532 C.3     1  UNL1        0.0935
     22 C          -2.2358  -16.8080   20.6695 C.3     1  UNL1        0.0935
     23 C          -2.2115  -15.9202   21.8783 C.3     1  UNL1        0.0233
     24 C          -7.8303  -16.3674   22.2564 C.3     1  UNL1        0.1339
     25 C          -7.4678  -16.0585   23.6787 C.ar    1  UNL1        0.0006
     26 C          -6.0696  -15.6371   24.0218 C.ar    1  UNL1       -0.0001
     27 C          -5.7070  -15.3282   25.4441 C.ar    1  UNL1        0.0294
     28 C          -6.7425  -15.4407   26.5234 C.ar    1  UNL1        0.1401
     29 F          -6.3799  -15.1317   27.9458 F       1  UNL1       -0.2042
     30 C          -8.1406  -15.8620   26.1804 C.ar    1  UNL1        0.0294
     31 C          -8.5033  -16.1710   24.7581 C.ar    1  UNL1       -0.0001
@<TRIPOS>BOND
     1    20    21    1
     2    21    17    1
     3    17    22    1
     4    22    23    1
     5    17    18   am
     6    18    19    2
     7    18    16    1
     8    16    10    1
     9    10    11    1
    10    11    12    1
    11    12    13    1
    12    13    14    1
    13    14     1    1
    14     1     2   ar
    15     2     3   ar
    16     3     4   ar
    17     4     5   ar
    18     5     6   ar
    19     6     7   ar
    20     7     8   ar
    21     8     9   ar
    22     9    24    1
    23    24    25    1
    24    25    26   ar
    25    26    27   ar
    26    27    28   ar
    27    28    29    1
    28    28    30   ar
    29    30    31   ar
    30    14    15    1
    31    15    10    1
    32     9     1   ar
    33    31    25   ar
    34     8     3   ar
@<TRIPOS>MOLECULE
*****
 31 34 0 0 0
SMALL
GASTEIGER

@<TRIPOS>ATOM
      1 C          -6.9272  -17.5646   23.2409 C.ar    1  UNL1        0.1215
      2 N          -5.8632  -16.7184   23.8747 N.ar    1  UNL1       -0.2309
      3 C          -6.4510  -16.0701   25.0931 C.ar    1  UNL1        0.0983
      4 C          -5.8709  -15.1317   26.1093 C.ar    1  UNL1        0.0206
      5 C          -6.7182  -14.6388   27.2447 C.ar    1  UNL1        0.0016
      6 C          -8.1455  -15.0844   27.3639 C.ar    1  UNL1        0.0016
      7 C          -8.7256  -16.0229   26.3476 C.ar    1  UNL1        0.0188
      8 C          -7.8783  -16.5157   25.2122 C.ar    1  UNL1        0.0789
      9 N          -8.1726  -17.4394   24.0676 N.ar    1  UNL1       -0.3106
     10 N          -5.2601  -19.6958   20.3377 N.3     1  UNL1       -0.2646
     11 C          -6.4644  -20.0438   19.5140 C.3     1  UNL1        0.0725
     12 C          -7.8230  -19.5653   19.9326 C.3     1  UNL1        0.0178
     13 C          -7.9773  -18.7389   21.1749 C.3     1  UNL1        0.0103
     14 C          -6.7730  -18.3910   21.9986 C.3     1  UNL1        0.0729
     15 C          -5.4144  -18.8694   21.5800 C.3     1  UNL1        0.0800
     16 C          -3.9014  -20.1743   19.9191 C.3     1  UNL1        0.1587
     17 N          -2.1636  -18.2486   20.0670 N.am    1  UNL1       -0.2784
     18 C          -2.6725  -19.5783   20.5392 C.2     1  UNL1        0.2420
     19 O          -1.9525  -20.3120   21.6317 O.2     1  UNL1       -0.2734
     20 C           0.3874  -17.7627   19.9870 C.3     1  UNL1        0.0233
     21 C          -0.9347  -17.6526   20.6871 C.3     1  UNL1        0.0935
     22 C          -2.8836  -17.5149   18.9746 C.3     1  UNL1        0.0935
     23 C          -2.2540  -17.3809   17.6198 C.3     1  UNL1        0.0233
     24 C          -9.4824  -18.1185   23.7970 C.3     1  UNL1        0.1339
     25 C         -10.4347  -17.5388   22.7936 C.ar    1  UNL1        0.0006
     26 C         -10.0543  -16.3107   22.0209 C.ar    1  UNL1       -0.0001
     27 C         -11.0065  -15.7309   21.0174 C.ar    1  UNL1        0.0294
     28 C         -12.3393  -16.3793   20.7866 C.ar    1  UNL1        0.1401
     29 F         -13.2916  -15.7996   19.7831 F       1  UNL1       -0.2042
     30 C         -12.7198  -17.6074   21.5592 C.ar    1  UNL1        0.0294
     31 C         -11.7675  -18.1872   22.5627 C.ar    1  UNL1       -0.0001
@<TRIPOS>BOND
     1    20    21    1
     2    21    17    1
     3    17    22    1
     4    22    23    1
     5    17    18   am
     6    18    19    2
     7    18    16    1
     8    16    10    1
     9    10    11    1
    10    11    12    1
    11    12    13    1
    12    13    14    1
    13    14     1    1
    14     1     2   ar
    15     2     3   ar
    16     3     4   ar
    17     4     5   ar
    18     5     6   ar
    19     6     7   ar
    20     7     8   ar
    21     8     9   ar
    22     9    24    1
    23    24    25    1
    24    25    26   ar
    25    26    27   ar
    26    27    28   ar
    27    28    29    1
    28    28    30   ar
    29    30    31   ar
    30    14    15    1
    31    15    10    1
    32     9     1   ar
    33    31    25   ar
    34     8     3   ar
@<TRIPOS>MOLECULE
*****
 31 34 0 0 0
SMALL
GASTEIGER

@<TRIPOS>ATOM
      1 C          -4.8901  -18.7386   21.2155 C.ar    1  UNL1        0.1215
      2 N          -4.6354  -18.6505   19.7399 N.ar    1  UNL1       -0.2309
      3 C          -3.1848  -18.3262   19.5384 C.ar    1  UNL1        0.0983
      4 C          -2.3655  -18.1187   18.2992 C.ar    1  UNL1        0.0206
      5 C          -0.9043  -17.7989   18.4111 C.ar    1  UNL1        0.0016
      6 C          -0.2624  -17.6865   19.7622 C.ar    1  UNL1        0.0016
      7 C          -1.0818  -17.8941   21.0014 C.ar    1  UNL1        0.0188
      8 C          -2.5430  -18.2139   20.8895 C.ar    1  UNL1        0.0789
      9 N          -3.5969  -18.4687   21.9259 N.ar    1  UNL1       -0.3106
     10 N          -8.4746  -18.2342   22.8423 N.3     1  UNL1       -0.2646
     11 C          -8.8402  -19.6520   23.1680 C.3     1  UNL1        0.0725
     12 C          -7.8891  -20.7653   22.8428 C.3     1  UNL1        0.0178
     13 C          -6.5724  -20.4609   22.1920 C.3     1  UNL1        0.0103
     14 C          -6.2068  -19.0430   21.8663 C.3     1  UNL1        0.0729
     15 C          -7.1579  -17.9297   22.1915 C.3     1  UNL1        0.0800
     16 C          -9.4258  -17.1207   23.1675 C.3     1  UNL1        0.1587
     17 N         -11.5948  -16.9009   21.7542 N.am    1  UNL1       -0.2784
     18 C         -10.1993  -16.4508   22.0707 C.2     1  UNL1        0.2420
     19 O          -9.5774  -15.3308   21.2904 O.2     1  UNL1       -0.2734
     20 C         -11.7319  -16.0116   19.3169 C.3     1  UNL1        0.0233
     21 C         -12.3683  -16.2310   20.6575 C.3     1  UNL1        0.0935
     22 C         -12.2167  -18.0209   22.5346 C.3     1  UNL1        0.0935
     23 C         -13.3869  -17.7497   23.4330 C.3     1  UNL1        0.0233
     24 C          -3.3933  -18.4560   23.4120 C.3     1  UNL1        0.1339
     25 C          -4.0561  -17.4040   24.2509 C.ar    1  UNL1        0.0006
     26 C          -4.0774  -17.5392   25.7447 C.ar    1  UNL1       -0.0001
     27 C          -4.7403  -16.4871   26.5836 C.ar    1  UNL1        0.0294
     28 C          -5.3818  -15.2998   25.9288 C.ar    1  UNL1        0.1401
     29 F          -6.0447  -14.2478   26.7677 F       1  UNL1       -0.2042
     30 C          -5.3605  -15.1647   24.4351 C.ar    1  UNL1        0.0294
     31 C          -4.6977  -16.2167   23.5961 C.ar    1  UNL1       -0.0001
@<TRIPOS>BOND
     1    20    21    1
     2    21    17    1
     3    17    22    1
     4    22    23    1
     5    17    18   am
     6    18    19    2
     7    18    16    1
     8    16    10    1
     9    10    11    1
    10    11    12    1
    11    12    13    1
    12    13    14    1
    13    14     1    1
    14     1     2   ar
    15     2     3   ar
    16     3     4   ar
    17     4     5   ar
    18     5     6   ar
    19     6     7   ar
    20     7     8   ar
    21     8     9   ar
    22     9    24    1
    23    24    25    1
    24    25    26   ar
    25    26    27   ar
    26    27    28   ar
    27    28    29    1
    28    28    30   ar
    29    30    31   ar
    30    14    15    1
    31    15    10    1
    32     9     1   ar
    33    31    25   ar
    34     8     3   ar
@<TRIPOS>MOLECULE
*****
 31 34 0 0 0
SMALL
GASTEIGER

@<TRIPOS>ATOM
      1 C           1.8521    4.2984   34.5862 C.ar    1  UNL1        0.1215
      2 N           0.9116    4.9016   33.5855 N.ar    1  UNL1       -0.2309
      3 C          -0.0204    5.8193   34.3197 C.ar    1  UNL1        0.0983
      4 C          -1.1539    6.6831   33.8517 C.ar    1  UNL1        0.0206
      5 C          -1.9229    7.5109   34.8383 C.ar    1  UNL1        0.0016
      6 C          -1.5584    7.4748   36.2929 C.ar    1  UNL1        0.0016
      7 C          -0.4250    6.6110   36.7609 C.ar    1  UNL1        0.0188
      8 C           0.3440    5.7832   35.7743 C.ar    1  UNL1        0.0789
      9 N           1.5013    4.8432   35.9390 N.ar    1  UNL1       -0.3106
     10 N           3.7427    1.0743   33.2517 N.3     1  UNL1       -0.2646
     11 C           5.1473    1.3684   33.6880 C.3     1  UNL1        0.0725
     12 C           5.4536    2.6392   34.4237 C.3     1  UNL1        0.0178
     13 C           4.3552    3.6158   34.7231 C.3     1  UNL1        0.0103
     14 C           2.9505    3.3217   34.2868 C.3     1  UNL1        0.0729
     15 C           2.6443    2.0509   33.5511 C.3     1  UNL1        0.0800
     16 C           3.4364   -0.1966   32.5160 C.3     1  UNL1        0.1587
     17 N           5.3750   -1.8327   31.9551 N.am    1  UNL1       -0.2784
     18 C           4.2120   -1.4442   32.8190 C.2     1  UNL1        0.2420
     19 O           3.8245   -2.3033   33.9860 O.2     1  UNL1       -0.2734
     20 C           7.6487   -3.0695   32.1808 C.3     1  UNL1        0.0233
     21 C           6.1507   -3.0803   32.2581 C.3     1  UNL1        0.0935
     22 C           5.7625   -0.9735   30.7881 C.3     1  UNL1        0.0935
     23 C           5.1348   -1.2047   29.4455 C.3     1  UNL1        0.0233
     24 C           2.1873    4.5071   37.2299 C.3     1  UNL1        0.1339
     25 C           1.9094    3.1987   37.9085 C.ar    1  UNL1        0.0006
     26 C           0.6375    3.0097   38.6811 C.ar    1  UNL1       -0.0001
     27 C           0.3595    1.7012   39.3597 C.ar    1  UNL1        0.0294
     28 C           1.3533    0.5816   39.2658 C.ar    1  UNL1        0.1401
     29 F           1.0753   -0.7269   39.9444 F       1  UNL1       -0.2042
     30 C           2.6251    0.7705   38.4932 C.ar    1  UNL1        0.0294
     31 C           2.9031    2.0790   37.8146 C.ar    1  UNL1       -0.0001
@<TRIPOS>BOND
     1    20    21    1
     2    21    17    1
     3    17    22    1
     4    22    23    1
     5    17    18   am
     6    18    19    2
     7    18    16    1
     8    16    10    1
     9    10    11    1
    10    11    12    1
    11    12    13    1
    12    13    14    1
    13    14     1    1
    14     1     2   ar
    15     2     3   ar
    16     3     4   ar
    17     4     5   ar
    18     5     6   ar
    19     6     7   ar
    20     7     8   ar
    21     8     9   ar
    22     9    24    1
    23    24    25    1
    24    25    26   ar
    25    26    27   ar
    26    27    28   ar
    27    28    29    1
    28    28    30   ar
    29    30    31   ar
    30    14    15    1
    31    15    10    1
    32     9     1   ar
    33    31    25   ar
    34     8     3   ar
@<TRIPOS>MOLECULE
*****
 31 34 0 0 0
SMALL
GASTEIGER

@<TRIPOS>ATOM
      1 C          -6.9847  -17.5906   23.0008 C.ar    1  UNL1        0.1215
      2 N          -5.9918  -17.3396   24.0967 N.ar    1  UNL1       -0.2309
      3 C          -6.6488  -16.4702   25.1274 C.ar    1  UNL1        0.0983
      4 C          -6.1539  -15.9023   26.4245 C.ar    1  UNL1        0.0206
      5 C          -7.0581  -15.0480   27.2627 C.ar    1  UNL1        0.0016
      6 C          -8.4572  -14.7617   26.8039 C.ar    1  UNL1        0.0016
      7 C          -8.9521  -15.3296   25.5068 C.ar    1  UNL1        0.0188
      8 C          -8.0479  -16.1838   24.6685 C.ar    1  UNL1        0.0789
      9 N          -8.2555  -16.8763   23.3542 N.ar    1  UNL1       -0.3106
     10 N          -5.1212  -19.6655   20.1773 N.3     1  UNL1       -0.2646
     11 C          -6.2758  -20.0539   19.3022 C.3     1  UNL1        0.0725
     12 C          -7.6668  -19.6212   19.6599 C.3     1  UNL1        0.0178
     13 C          -7.9031  -18.8001   20.8928 C.3     1  UNL1        0.0103
     14 C          -6.7484  -18.4117   21.7679 C.3     1  UNL1        0.0729
     15 C          -5.3575  -18.8443   21.4102 C.3     1  UNL1        0.0800
     16 C          -3.7301  -20.0981   19.8196 C.3     1  UNL1        0.1587
     17 N          -2.0792  -18.0967   19.9560 N.am    1  UNL1       -0.2784
     18 C          -2.5491  -19.4296   20.4585 C.2     1  UNL1        0.2420
     19 O          -1.8381  -20.0939   21.6001 O.2     1  UNL1       -0.2734
     20 C           0.4837  -17.6867   20.0718 C.3     1  UNL1        0.0233
     21 C          -0.8982  -17.4282   20.5949 C.3     1  UNL1        0.0935
     22 C          -2.7902  -17.4324   18.8144 C.3     1  UNL1        0.0935
     23 C          -2.1481  -17.3792   17.4599 C.3     1  UNL1        0.0233
     24 C          -9.5131  -16.8577   22.5368 C.3     1  UNL1        0.1339
     25 C         -10.8055  -17.3245   23.1382 C.ar    1  UNL1        0.0006
     26 C         -12.1056  -16.7458   22.6640 C.ar    1  UNL1       -0.0001
     27 C         -13.3981  -17.2125   23.2654 C.ar    1  UNL1        0.0294
     28 C         -13.3904  -18.2580   24.3410 C.ar    1  UNL1        0.1401
     29 F         -14.6829  -18.7248   24.9424 F       1  UNL1       -0.2042
     30 C         -12.0904  -18.8367   24.8152 C.ar    1  UNL1        0.0294
     31 C         -10.7979  -18.3699   24.2139 C.ar    1  UNL1       -0.0001
@<TRIPOS>BOND
     1    20    21    1
     2    21    17    1
     3    17    22    1
     4    22    23    1
     5    17    18   am
     6    18    19    2
     7    18    16    1
     8    16    10    1
     9    10    11    1
    10    11    12    1
    11    12    13    1
    12    13    14    1
    13    14     1    1
    14     1     2   ar
    15     2     3   ar
    16     3     4   ar
    17     4     5   ar
    18     5     6   ar
    19     6     7   ar
    20     7     8   ar
    21     8     9   ar
    22     9    24    1
    23    24    25    1
    24    25    26   ar
    25    26    27   ar
    26    27    28   ar
    27    28    29    1
    28    28    30   ar
    29    30    31   ar
    30    14    15    1
    31    15    10    1
    32     9     1   ar
    33    31    25   ar
    34     8     3   ar
@<TRIPOS>MOLECULE
*****
 31 34 0 0 0
SMALL
GASTEIGER

@<TRIPOS>ATOM
      1 C          -8.5897  -17.0983   22.9397 C.ar    1  UNL1        0.1215
      2 N          -9.3687  -16.9365   21.6681 N.ar    1  UNL1       -0.2309
      3 C         -10.8018  -17.2733   21.9563 C.ar    1  UNL1        0.0983
      4 C         -12.0233  -17.2909   21.0859 C.ar    1  UNL1        0.0206
      5 C         -13.3514  -17.6783   21.6653 C.ar    1  UNL1        0.0016
      6 C         -13.4581  -18.0482   23.1151 C.ar    1  UNL1        0.0016
      7 C         -12.2366  -18.0306   23.9854 C.ar    1  UNL1        0.0188
      8 C         -10.9084  -17.6431   23.4060 C.ar    1  UNL1        0.0789
      9 N          -9.5413  -17.5350   24.0138 N.ar    1  UNL1       -0.3106
     10 N          -4.6750  -17.7451   23.0193 N.3     1  UNL1       -0.2646
     11 C          -4.1734  -16.3966   23.4437 C.3     1  UNL1        0.0725
     12 C          -5.1440  -15.2821   23.7000 C.3     1  UNL1        0.0178
     13 C          -6.6161  -15.5160   23.5320 C.3     1  UNL1        0.0103
     14 C          -7.1176  -16.8644   23.1077 C.3     1  UNL1        0.0729
     15 C          -6.1471  -17.9789   22.8513 C.3     1  UNL1        0.0800
     16 C          -3.7044  -18.8597   22.7629 C.3     1  UNL1        0.1587
     17 N          -3.3071  -19.0015   20.1993 N.am    1  UNL1       -0.2784
     18 C          -2.7766  -18.7904   21.5863 C.2     1  UNL1        0.2420
     19 O          -1.3181  -18.5100   21.7968 O.2     1  UNL1       -0.2734
     20 C          -1.9553  -17.5999   18.4793 C.3     1  UNL1        0.0233
     21 C          -2.3793  -18.9323   19.0227 C.3     1  UNL1        0.0935
     22 C          -4.7656  -19.2819   19.9888 C.3     1  UNL1        0.0935
     23 C          -5.2946  -20.6745   20.1642 C.3     1  UNL1        0.0233
     24 C          -9.1879  -17.8145   25.4445 C.3     1  UNL1        0.1339
     25 C          -8.4973  -16.7660   26.2651 C.ar    1  UNL1        0.0006
     26 C          -9.2228  -15.5072   26.6383 C.ar    1  UNL1       -0.0001
     27 C          -8.5322  -14.4585   27.4589 C.ar    1  UNL1        0.0294
     28 C          -7.1160  -14.6687   27.9064 C.ar    1  UNL1        0.1401
     29 F          -6.4254  -13.6201   28.7270 F       1  UNL1       -0.2042
     30 C          -6.3905  -15.9274   27.5333 C.ar    1  UNL1        0.0294
     31 C          -7.0811  -16.9760   26.7126 C.ar    1  UNL1       -0.0001
@<TRIPOS>BOND
     1    20    21    1
     2    21    17    1
     3    17    22    1
     4    22    23    1
     5    17    18   am
     6    18    19    2
     7    18    16    1
     8    16    10    1
     9    10    11    1
    10    11    12    1
    11    12    13    1
    12    13    14    1
    13    14     1    1
    14     1     2   ar
    15     2     3   ar
    16     3     4   ar
    17     4     5   ar
    18     5     6   ar
    19     6     7   ar
    20     7     8   ar
    21     8     9   ar
    22     9    24    1
    23    24    25    1
    24    25    26   ar
    25    26    27   ar
    26    27    28   ar
    27    28    29    1
    28    28    30   ar
    29    30    31   ar
    30    14    15    1
    31    15    10    1
    32     9     1   ar
    33    31    25   ar
    34     8     3   ar
