@<TRIPOS>MOLECULE
*****
 33 36 0 0 0
SMALL
GASTEIGER

@<TRIPOS>ATOM
      1 C           7.6532   -4.5848   23.0555 C.ar    1  UNL1        0.0644
      2 C           8.3836   -5.8949   23.0710 C.ar    1  UNL1        0.0155
      3 C           8.5653   -6.6370   24.3619 C.ar    1  UNL1       -0.0032
      4 C           8.0166   -6.0689   25.6372 C.ar    1  UNL1       -0.0246
      5 C           7.2863   -4.7590   25.6216 C.ar    1  UNL1       -0.0234
      6 C           7.1045   -4.0169   24.3308 C.ar    1  UNL1        0.0113
      7 C           6.6651   -4.0207   26.7702 C.3     1  UNL1        0.0434
      8 C           6.6211   -4.4102   28.2181 C.3     1  UNL1        0.0771
      9 N           7.1872   -5.6341   28.8749 N.3     1  UNL1       -0.2671
     10 C           7.9372   -6.7708   28.2462 C.3     1  UNL1        0.0771
     11 C           8.3064   -6.9644   26.8053 C.3     1  UNL1        0.0434
     12 N           7.4716   -3.8428   21.7646 N.pl3   1  UNL1       -0.2150
     13 H           8.2058   -3.8073   21.1097 H       1  UNL1        0.1737
     14 S           6.1712   -3.1550   21.4716 S.O2    1  UNL1        0.0736
     15 O           5.5023   -4.4879   21.3108 O.2     1  UNL1       -0.1499
     16 O           6.8401   -1.8220   21.6323 O.2     1  UNL1       -0.1499
     17 C           2.2700   -1.0913   20.5925 C.ar    1  UNL1       -0.0221
     18 C           2.8951   -0.9669   21.9504 C.ar    1  UNL1       -0.0029
     19 C           4.1954   -1.6548   22.2435 C.ar    1  UNL1        0.0199
     20 C           4.8708   -2.4671   21.1785 C.ar    1  UNL1        0.1251
     21 C           4.2458   -2.5915   19.8206 C.ar    1  UNL1        0.0199
     22 C           2.9454   -1.9036   19.5276 C.ar    1  UNL1       -0.0029
     23 C           0.9697   -0.4035   20.2994 C.3     1  UNL1        0.0264
     24 C           0.9026    0.6515   19.2351 C.3     1  UNL1        0.0047
     25 C           3.1180    1.6692   18.3371 C.3     1  UNL1        0.0000
     26 C           1.9078    1.7647   19.2182 C.3     1  UNL1        0.0003
     27 C           6.9753   -5.7346   30.3565 C.3     1  UNL1        0.1180
     28 C           7.1236   -4.5168   31.2197 C.ar    1  UNL1        0.0693
     29 C           8.3967   -3.7648   31.4724 C.ar    1  UNL1        0.0379
     30 C           8.0846   -2.6205   32.3906 C.ar    1  UNL1        0.1211
     31 N           6.6188   -2.6652   32.7055 N.ar    1  UNL1       -0.1713
     32 N           6.0247   -3.8372   31.9818 N.ar    1  UNL1       -0.2784
     33 H           5.0797   -4.1122   32.0033 H       1  UNL1        0.1886
@<TRIPOS>BOND
     1    25    26    1
     2    26    24    1
     3    24    23    1
     4    23    17    1
     5    17    18   ar
     6    18    19   ar
     7    19    20   ar
     8    20    14    1
     9    14    15    2
    10    14    16    2
    11    14    12    1
    12    12     1    1
    13     1     2   ar
    14     2     3   ar
    15     3     4   ar
    16     4     5   ar
    17     5     6   ar
    18     5     7    1
    19     7     8    1
    20     8     9    1
    21     9    27    1
    22    27    28    1
    23    28    29   ar
    24    29    30   ar
    25    30    31   ar
    26    31    32   ar
    27     9    10    1
    28    10    11    1
    29    20    21   ar
    30    21    22   ar
    31    22    17   ar
    32     6     1   ar
    33    32    28   ar
    34    11     4    1
    35    12    13    1
    36    32    33    1
@<TRIPOS>MOLECULE
*****
 33 36 0 0 0
SMALL
GASTEIGER

@<TRIPOS>ATOM
      1 C           3.7241   -2.0570   19.0351 C.ar    1  UNL1        0.0644
      2 C           3.8828   -1.2429   17.7853 C.ar    1  UNL1        0.0155
      3 C           3.1079    0.0303   17.6161 C.ar    1  UNL1       -0.0032
      4 C           2.1743    0.4893   18.6967 C.ar    1  UNL1       -0.0246
      5 C           2.0157   -0.3247   19.9465 C.ar    1  UNL1       -0.0234
      6 C           2.7905   -1.5979   20.1157 C.ar    1  UNL1        0.0113
      7 C           1.1455   -0.0505   21.1372 C.3     1  UNL1        0.0434
      8 C           0.2191    1.1058   21.3720 C.3     1  UNL1        0.0771
      9 N          -0.0658    2.2731   20.4743 N.3     1  UNL1       -0.2671
     10 C           0.5051    2.5727   19.1199 C.3     1  UNL1        0.0771
     11 C           1.5021    1.7788   18.3288 C.3     1  UNL1        0.0434
     12 N           4.4991   -3.3301   19.2043 N.pl3   1  UNL1       -0.2150
     13 H           4.4847   -4.0130   18.4953 H       1  UNL1        0.1737
     14 S           5.2958   -3.5626   20.4537 S.O2    1  UNL1        0.0736
     15 O           4.3595   -4.6672   20.8453 O.2     1  UNL1       -0.1499
     16 O           6.2322   -2.4581   20.0622 O.2     1  UNL1       -0.1499
     17 C           7.6862   -4.2604   24.2020 C.ar    1  UNL1       -0.0221
     18 C           8.3499   -4.3570   22.8603 C.ar    1  UNL1       -0.0029
     19 C           7.5532   -4.1245   21.6109 C.ar    1  UNL1        0.0199
     20 C           6.0926   -3.7952   21.7032 C.ar    1  UNL1        0.1251
     21 C           5.4289   -3.6985   23.0449 C.ar    1  UNL1        0.0199
     22 C           6.2257   -3.9311   24.2943 C.ar    1  UNL1       -0.0029
     23 C           8.4829   -4.4929   25.4515 C.3     1  UNL1        0.0264
     24 C           8.4509   -5.8341   26.1226 C.3     1  UNL1        0.0047
     25 C           9.0064   -7.6799   24.3807 C.3     1  UNL1        0.0000
     26 C           8.0456   -7.0518   25.3461 C.3     1  UNL1        0.0003
     27 C          -1.0522    3.2732   21.0005 C.3     1  UNL1        0.1180
     28 C          -2.4108    3.3875   20.3748 C.ar    1  UNL1        0.0693
     29 C          -2.7388    4.1186   19.1067 C.ar    1  UNL1        0.0379
     30 C          -4.2105    3.9736   18.8556 C.ar    1  UNL1        0.1211
     31 N          -4.7920    3.1530   19.9684 N.ar    1  UNL1       -0.1713
     32 N          -3.6797    2.7907   20.9073 N.ar    1  UNL1       -0.2784
     33 H          -3.7672    2.2552   21.7289 H       1  UNL1        0.1886
@<TRIPOS>BOND
     1    25    26    1
     2    26    24    1
     3    24    23    1
     4    23    17    1
     5    17    18   ar
     6    18    19   ar
     7    19    20   ar
     8    20    14    1
     9    14    15    2
    10    14    16    2
    11    14    12    1
    12    12     1    1
    13     1     2   ar
    14     2     3   ar
    15     3     4   ar
    16     4     5   ar
    17     5     6   ar
    18     5     7    1
    19     7     8    1
    20     8     9    1
    21     9    27    1
    22    27    28    1
    23    28    29   ar
    24    29    30   ar
    25    30    31   ar
    26    31    32   ar
    27     9    10    1
    28    10    11    1
    29    20    21   ar
    30    21    22   ar
    31    22    17   ar
    32     6     1   ar
    33    32    28   ar
    34    11     4    1
    35    12    13    1
    36    32    33    1
@<TRIPOS>MOLECULE
*****
 33 36 0 0 0
SMALL
GASTEIGER

@<TRIPOS>ATOM
      1 C          -0.4494    2.5190   22.3300 C.ar    1  UNL1        0.0644
      2 C          -1.5852    3.3262   22.8854 C.ar    1  UNL1        0.0155
      3 C          -1.7774    3.4284   24.3696 C.ar    1  UNL1       -0.0032
      4 C          -0.8337    2.7233   25.2983 C.ar    1  UNL1       -0.0246
      5 C           0.3020    1.9162   24.7429 C.ar    1  UNL1       -0.0234
      6 C           0.4942    1.8140   23.2588 C.ar    1  UNL1        0.0113
      7 C           1.3494    1.1408   25.4858 C.3     1  UNL1        0.0434
      8 C           1.5196    0.9811   26.9676 C.3     1  UNL1        0.0771
      9 N           0.6845    1.5573   28.0723 N.3     1  UNL1       -0.2671
     10 C          -0.5270    2.4356   27.9683 C.3     1  UNL1        0.0771
     11 C          -1.2028    2.9545   26.7337 C.3     1  UNL1        0.0434
     12 N          -0.2573    2.4168   20.8459 N.pl3   1  UNL1       -0.2150
     13 H          -0.7900    2.9817   20.2406 H       1  UNL1        0.1737
     14 S           0.7464    1.4540   20.2842 S.O2    1  UNL1        0.0736
     15 O           1.7217    2.5786   20.0994 O.2     1  UNL1       -0.1499
     16 O          -0.2289    0.3295   20.4689 O.2     1  UNL1       -0.1499
     17 C           3.7576   -1.4344   18.5989 C.ar    1  UNL1       -0.0221
     18 C           3.1527   -1.6840   19.9486 C.ar    1  UNL1       -0.0029
     19 C           2.1490   -0.7212   20.5104 C.ar    1  UNL1        0.0199
     20 C           1.7501    0.4912   19.7224 C.ar    1  UNL1        0.1251
     21 C           2.3550    0.7408   18.3726 C.ar    1  UNL1        0.0199
     22 C           3.3587   -0.2220   17.8108 C.ar    1  UNL1       -0.0029
     23 C           4.7613   -2.3971   18.0370 C.3     1  UNL1        0.0264
     24 C           5.2488   -3.5443   18.8716 C.3     1  UNL1        0.0047
     25 C           3.5208   -5.3048   19.6870 C.3     1  UNL1        0.0000
     26 C           4.6080   -4.8940   18.7387 C.3     1  UNL1        0.0003
     27 C           1.1184    1.2093   29.4654 C.3     1  UNL1        0.1180
     28 C           1.1537    2.2688   30.5267 C.ar    1  UNL1        0.0693
     29 C           2.0866    3.4426   30.5700 C.ar    1  UNL1        0.0379
     30 C           1.7718    4.2396   31.8011 C.ar    1  UNL1        0.1211
     31 N           0.6444    3.5584   32.5187 N.ar    1  UNL1       -0.1713
     32 N           0.2624    2.3403   31.7311 N.ar    1  UNL1       -0.2784
     33 H          -0.4485    1.7002   31.9637 H       1  UNL1        0.1886
@<TRIPOS>BOND
     1    25    26    1
     2    26    24    1
     3    24    23    1
     4    23    17    1
     5    17    18   ar
     6    18    19   ar
     7    19    20   ar
     8    20    14    1
     9    14    15    2
    10    14    16    2
    11    14    12    1
    12    12     1    1
    13     1     2   ar
    14     2     3   ar
    15     3     4   ar
    16     4     5   ar
    17     5     6   ar
    18     5     7    1
    19     7     8    1
    20     8     9    1
    21     9    27    1
    22    27    28    1
    23    28    29   ar
    24    29    30   ar
    25    30    31   ar
    26    31    32   ar
    27     9    10    1
    28    10    11    1
    29    20    21   ar
    30    21    22   ar
    31    22    17   ar
    32     6     1   ar
    33    32    28   ar
    34    11     4    1
    35    12    13    1
    36    32    33    1
@<TRIPOS>MOLECULE
*****
 33 36 0 0 0
SMALL
GASTEIGER

@<TRIPOS>ATOM
      1 C          -0.5079    2.6885   21.9388 C.ar    1  UNL1        0.0644
      2 C          -1.6848    3.5101   22.3744 C.ar    1  UNL1        0.0155
      3 C          -2.0248    3.6200   23.8313 C.ar    1  UNL1       -0.0032
      4 C          -1.1878    2.9082   24.8525 C.ar    1  UNL1       -0.0246
      5 C          -0.0109    2.0867   24.4169 C.ar    1  UNL1       -0.0234
      6 C           0.3291    1.9767   22.9601 C.ar    1  UNL1        0.0113
      7 C           0.9473    1.3027   25.2639 C.3     1  UNL1        0.0434
      8 C           0.9652    1.1468   26.7558 C.3     1  UNL1        0.0771
      9 N           0.0293    1.7363   27.7689 N.3     1  UNL1       -0.2671
     10 C          -1.1556    2.6273   27.5406 C.3     1  UNL1        0.0771
     11 C          -1.6973    3.1489   26.2427 C.3     1  UNL1        0.0434
     12 N          -0.1679    2.5786   20.4820 N.pl3   1  UNL1       -0.2150
     13 H          -0.6126    3.1641   19.8273 H       1  UNL1        0.1737
     14 S           0.8495    1.5766   20.0228 S.O2    1  UNL1        0.0736
     15 O          -0.1453    0.4727   20.2274 O.2     1  UNL1       -0.1499
     16 O           1.8443    2.6805   19.8182 O.2     1  UNL1       -0.1499
     17 C           3.9019   -1.4294   18.6453 C.ar    1  UNL1       -0.0221
     18 C           3.5427   -0.2683   17.7661 C.ar    1  UNL1       -0.0029
     19 C           2.5253    0.7337   18.2252 C.ar    1  UNL1        0.0199
     20 C           1.8670    0.5746   19.5636 C.ar    1  UNL1        0.1251
     21 C           2.2261   -0.5865   20.4429 C.ar    1  UNL1        0.0199
     22 C           3.2435   -1.5885   19.9837 C.ar    1  UNL1       -0.0029
     23 C           4.9193   -2.4314   18.1862 C.3     1  UNL1        0.0264
     24 C           5.2533   -3.6109   19.0506 C.3     1  UNL1        0.0047
     25 C           3.3738   -5.2748   19.7209 C.3     1  UNL1        0.0000
     26 C           4.5397   -4.9148   18.8486 C.3     1  UNL1        0.0003
     27 C           0.3162    1.3889   29.1996 C.3     1  UNL1        0.1180
     28 C           1.6415    0.7956   29.5761 C.ar    1  UNL1        0.0693
     29 C           2.9145    1.5553   29.8051 C.ar    1  UNL1        0.0379
     30 C           3.9861    0.5676   30.1602 C.ar    1  UNL1        0.1211
     31 N           3.3755   -0.8024   30.1508 N.ar    1  UNL1       -0.1713
     32 N           1.9264   -0.6616   29.7898 N.ar    1  UNL1       -0.2784
     33 H           1.2764   -1.3964   29.7076 H       1  UNL1        0.1886
@<TRIPOS>BOND
     1    25    26    1
     2    26    24    1
     3    24    23    1
     4    23    17    1
     5    17    18   ar
     6    18    19   ar
     7    19    20   ar
     8    20    14    1
     9    14    15    2
    10    14    16    2
    11    14    12    1
    12    12     1    1
    13     1     2   ar
    14     2     3   ar
    15     3     4   ar
    16     4     5   ar
    17     5     6   ar
    18     5     7    1
    19     7     8    1
    20     8     9    1
    21     9    27    1
    22    27    28    1
    23    28    29   ar
    24    29    30   ar
    25    30    31   ar
    26    31    32   ar
    27     9    10    1
    28    10    11    1
    29    20    21   ar
    30    21    22   ar
    31    22    17   ar
    32     6     1   ar
    33    32    28   ar
    34    11     4    1
    35    12    13    1
    36    32    33    1
@<TRIPOS>MOLECULE
*****
 33 36 0 0 0
SMALL
GASTEIGER

@<TRIPOS>ATOM
      1 C           3.0164   -0.3576   30.3460 C.ar    1  UNL1        0.0644
      2 C           4.0898   -1.2922   30.8199 C.ar    1  UNL1        0.0155
      3 C           4.6039   -1.1929   32.2255 C.ar    1  UNL1       -0.0032
      4 C           4.0446   -0.1589   33.1573 C.ar    1  UNL1       -0.0246
      5 C           2.9713    0.7756   32.6835 C.ar    1  UNL1       -0.0234
      6 C           2.4572    0.6763   31.2779 C.ar    1  UNL1        0.0113
      7 C           2.2817    1.8699   33.4431 C.3     1  UNL1        0.0434
      8 C           2.4951    2.2998   34.8643 C.3     1  UNL1        0.0771
      9 N           3.4508    1.7417   35.8767 N.3     1  UNL1       -0.2671
     10 C           4.4292    0.6157   35.7181 C.3     1  UNL1        0.0771
     11 C           4.6934   -0.2301   34.5079 C.3     1  UNL1        0.0434
     12 N           2.5024   -0.4570   28.9404 N.pl3   1  UNL1       -0.2150
     13 H           2.7599   -1.2207   28.3749 H       1  UNL1        0.1737
     14 S           1.5960    0.6072   28.3963 S.O2    1  UNL1        0.0736
     15 O           0.4009   -0.2060   28.7968 O.2     1  UNL1       -0.1499
     16 O           2.7912    1.4203   27.9958 O.2     1  UNL1       -0.1499
     17 C          -1.1231    3.7998   26.7641 C.ar    1  UNL1       -0.0221
     18 C          -1.1265    2.4287   26.1558 C.ar    1  UNL1       -0.0029
     19 C          -0.2202    1.3644   26.6998 C.ar    1  UNL1        0.0199
     20 C           0.6896    1.6714   27.8523 C.ar    1  UNL1        0.1251
     21 C           0.6931    3.0425   28.4606 C.ar    1  UNL1        0.0199
     22 C          -0.2133    4.1067   27.9166 C.ar    1  UNL1       -0.0029
     23 C          -2.0295    4.8640   26.2202 C.3     1  UNL1        0.0264
     24 C          -3.2661    5.2535   26.9746 C.3     1  UNL1        0.0047
     25 C          -4.7596    3.7502   25.4713 C.3     1  UNL1        0.0000
     26 C          -4.5486    4.5094   26.7477 C.3     1  UNL1        0.0003
     27 C           3.4247    2.3959   37.2262 C.3     1  UNL1        0.1180
     28 C           2.5230    1.8639   38.3005 C.ar    1  UNL1        0.0693
     29 C           1.3316    2.5673   38.8799 C.ar    1  UNL1        0.0379
     30 C           0.7267    1.6732   39.9214 C.ar    1  UNL1        0.1211
     31 N           1.5442    0.4172   39.9856 N.ar    1  UNL1       -0.1713
     32 N           2.6544    0.5350   38.9838 N.ar    1  UNL1       -0.2784
     33 H           3.3476   -0.1411   38.8060 H       1  UNL1        0.1886
@<TRIPOS>BOND
     1    25    26    1
     2    26    24    1
     3    24    23    1
     4    23    17    1
     5    17    18   ar
     6    18    19   ar
     7    19    20   ar
     8    20    14    1
     9    14    15    2
    10    14    16    2
    11    14    12    1
    12    12     1    1
    13     1     2   ar
    14     2     3   ar
    15     3     4   ar
    16     4     5   ar
    17     5     6   ar
    18     5     7    1
    19     7     8    1
    20     8     9    1
    21     9    27    1
    22    27    28    1
    23    28    29   ar
    24    29    30   ar
    25    30    31   ar
    26    31    32   ar
    27     9    10    1
    28    10    11    1
    29    20    21   ar
    30    21    22   ar
    31    22    17   ar
    32     6     1   ar
    33    32    28   ar
    34    11     4    1
    35    12    13    1
    36    32    33    1
@<TRIPOS>MOLECULE
*****
 33 36 0 0 0
SMALL
GASTEIGER

@<TRIPOS>ATOM
      1 C           1.8248    1.6458   27.4860 C.ar    1  UNL1        0.0644
      2 C           0.9416    1.7178   28.6963 C.ar    1  UNL1        0.0155
      3 C           1.3675    1.0607   29.9757 C.ar    1  UNL1       -0.0032
      4 C           2.6767    0.3317   30.0448 C.ar    1  UNL1       -0.0246
      5 C           3.5598    0.2598   28.8346 C.ar    1  UNL1       -0.0234
      6 C           3.1339    0.9168   27.5552 C.ar    1  UNL1        0.0113
      7 C           4.8937   -0.4107   28.6887 C.3     1  UNL1        0.0434
      8 C           5.6738   -1.1749   29.7171 C.3     1  UNL1        0.0771
      9 N           5.3126   -1.4573   31.1452 N.3     1  UNL1       -0.2671
     10 C           4.0822   -1.0453   31.8979 C.3     1  UNL1        0.0771
     11 C           2.9091   -0.2491   31.4082 C.3     1  UNL1        0.0434
     12 N           1.3989    2.3029   26.2067 N.pl3   1  UNL1       -0.2150
     13 H           1.0133    3.2086   26.2230 H       1  UNL1        0.1737
     14 S           1.5603    1.5800   24.9023 S.O2    1  UNL1        0.0736
     15 O           2.8354    2.3273   24.6460 O.2     1  UNL1       -0.1499
     16 O           0.2853    0.8326   25.1587 O.2     1  UNL1       -0.1499
     17 C           2.0448   -0.5889   20.9893 C.ar    1  UNL1       -0.0221
     18 C           0.9720    0.4479   21.1444 C.ar    1  UNL1       -0.0029
     19 C           0.8104    1.1709   22.4487 C.ar    1  UNL1        0.0199
     20 C           1.7218    0.8570   23.5980 C.ar    1  UNL1        0.1251
     21 C           2.7947   -0.1798   23.4430 C.ar    1  UNL1        0.0199
     22 C           2.9562   -0.9028   22.1386 C.ar    1  UNL1       -0.0029
     23 C           2.2064   -1.3119   19.6850 C.3     1  UNL1        0.0264
     24 C           3.5211   -1.9440   19.3358 C.3     1  UNL1        0.0047
     25 C           4.2626   -4.0949   20.5903 C.3     1  UNL1        0.0000
     26 C           3.6712   -3.4358   19.3796 C.3     1  UNL1        0.0003
     27 C           6.3143   -2.2575   31.9238 C.3     1  UNL1        0.1180
     28 C           6.5324   -3.7058   31.5998 C.ar    1  UNL1        0.0693
     29 C           6.9575   -4.2578   30.2714 C.ar    1  UNL1        0.0379
     30 C           7.0515   -5.7495   30.3980 C.ar    1  UNL1        0.1211
     31 N           6.6844   -6.1195   31.8045 N.ar    1  UNL1       -0.1713
     32 N           6.3636   -4.8564   32.5473 N.ar    1  UNL1       -0.2784
     33 H           6.0902   -4.7936   33.4910 H       1  UNL1        0.1886
@<TRIPOS>BOND
     1    25    26    1
     2    26    24    1
     3    24    23    1
     4    23    17    1
     5    17    18   ar
     6    18    19   ar
     7    19    20   ar
     8    20    14    1
     9    14    15    2
    10    14    16    2
    11    14    12    1
    12    12     1    1
    13     1     2   ar
    14     2     3   ar
    15     3     4   ar
    16     4     5   ar
    17     5     6   ar
    18     5     7    1
    19     7     8    1
    20     8     9    1
    21     9    27    1
    22    27    28    1
    23    28    29   ar
    24    29    30   ar
    25    30    31   ar
    26    31    32   ar
    27     9    10    1
    28    10    11    1
    29    20    21   ar
    30    21    22   ar
    31    22    17   ar
    32     6     1   ar
    33    32    28   ar
    34    11     4    1
    35    12    13    1
    36    32    33    1
@<TRIPOS>MOLECULE
*****
 33 36 0 0 0
SMALL
GASTEIGER

@<TRIPOS>ATOM
      1 C           0.3066    2.3319   23.8614 C.ar    1  UNL1        0.0644
      2 C          -0.9274    2.7795   24.5874 C.ar    1  UNL1        0.0155
      3 C          -1.0865    2.4833   26.0492 C.ar    1  UNL1       -0.0032
      4 C          -0.0116    1.7394   26.7850 C.ar    1  UNL1       -0.0246
      5 C           1.2223    1.2919   26.0590 C.ar    1  UNL1       -0.0234
      6 C           1.3814    1.5881   24.5972 C.ar    1  UNL1        0.0113
      7 C           2.4051    0.5434   26.5984 C.3     1  UNL1        0.0434
      8 C           2.6459    0.0575   27.9970 C.3     1  UNL1        0.0771
      9 N           1.7636    0.2003   29.2015 N.3     1  UNL1       -0.2671
     10 C           0.4225    0.8641   29.3052 C.3     1  UNL1        0.0771
     11 C          -0.3676    1.5491   28.2297 C.3     1  UNL1        0.0434
     12 N           0.4656    2.6282   22.3996 N.pl3   1  UNL1       -0.2150
     13 H           0.0682    3.4434   22.0164 H       1  UNL1        0.1737
     14 S           1.2300    1.6823   21.5215 S.O2    1  UNL1        0.0736
     15 O           0.0522    0.7538   21.4963 O.2     1  UNL1       -0.1499
     16 O           2.4079    2.6108   21.5467 O.2     1  UNL1       -0.1499
     17 C           3.5234   -1.1553   18.8874 C.ar    1  UNL1       -0.0221
     18 C           3.1932    0.2231   18.3964 C.ar    1  UNL1       -0.0029
     19 C           2.4288    1.1690   19.2744 C.ar    1  UNL1        0.0199
     20 C           1.9945    0.7365   20.6435 C.ar    1  UNL1        0.1251
     21 C           2.3247   -0.6419   21.1345 C.ar    1  UNL1        0.0199
     22 C           3.0892   -1.5878   20.2565 C.ar    1  UNL1       -0.0029
     23 C           4.2879   -2.1012   18.0094 C.3     1  UNL1        0.0264
     24 C           5.1452   -3.1677   18.6238 C.3     1  UNL1        0.0047
     25 C           3.5510   -5.0152   19.5157 C.3     1  UNL1        0.0000
     26 C           4.6820   -4.5944   18.6247 C.3     1  UNL1        0.0003
     27 C           2.2923   -0.4002   30.4703 C.3     1  UNL1        0.1180
     28 C           2.8427    0.4869   31.5475 C.ar    1  UNL1        0.0693
     29 C           4.2951    0.7221   31.8396 C.ar    1  UNL1        0.0379
     30 C           4.3872    1.6750   32.9943 C.ar    1  UNL1        0.1211
     31 N           2.9919    2.0288   33.4160 N.ar    1  UNL1       -0.1713
     32 N           2.0372    1.2945   32.5218 N.ar    1  UNL1       -0.2784
     33 H           1.0546    1.3354   32.5664 H       1  UNL1        0.1886
@<TRIPOS>BOND
     1    25    26    1
     2    26    24    1
     3    24    23    1
     4    23    17    1
     5    17    18   ar
     6    18    19   ar
     7    19    20   ar
     8    20    14    1
     9    14    15    2
    10    14    16    2
    11    14    12    1
    12    12     1    1
    13     1     2   ar
    14     2     3   ar
    15     3     4   ar
    16     4     5   ar
    17     5     6   ar
    18     5     7    1
    19     7     8    1
    20     8     9    1
    21     9    27    1
    22    27    28    1
    23    28    29   ar
    24    29    30   ar
    25    30    31   ar
    26    31    32   ar
    27     9    10    1
    28    10    11    1
    29    20    21   ar
    30    21    22   ar
    31    22    17   ar
    32     6     1   ar
    33    32    28   ar
    34    11     4    1
    35    12    13    1
    36    32    33    1
@<TRIPOS>MOLECULE
*****
 33 36 0 0 0
SMALL
GASTEIGER

@<TRIPOS>ATOM
      1 C           0.5680    2.5200   24.1774 C.ar    1  UNL1        0.0644
      2 C          -0.0133    2.5512   25.5599 C.ar    1  UNL1        0.0155
      3 C          -1.4437    2.9547   25.7632 C.ar    1  UNL1       -0.0032
      4 C          -2.2928    3.3270   24.5839 C.ar    1  UNL1       -0.0246
      5 C          -1.7115    3.2958   23.2016 C.ar    1  UNL1       -0.0234
      6 C          -0.2812    2.8924   22.9982 C.ar    1  UNL1        0.0113
      7 C          -2.3780    3.6266   21.8991 C.3     1  UNL1        0.0434
      8 C          -3.7904    4.0702   21.6574 C.3     1  UNL1        0.0771
      9 N          -4.8850    4.2926   22.6585 N.3     1  UNL1       -0.2671
     10 C          -4.8378    4.1264   24.1485 C.3     1  UNL1        0.0771
     11 C          -3.6841    3.6966   25.0054 C.3     1  UNL1        0.0434
     12 N           1.9983    2.1165   23.9742 N.pl3   1  UNL1       -0.2150
     13 H           2.7164    2.5923   24.4507 H       1  UNL1        0.1737
     14 S           2.3344    0.9881   23.0448 S.O2    1  UNL1        0.0736
     15 O           2.0751    0.0036   24.1465 O.2     1  UNL1       -0.1499
     16 O           2.5936    1.9725   21.9432 O.2     1  UNL1       -0.1499
     17 C           3.3426   -2.3973   20.2568 C.ar    1  UNL1       -0.0221
     18 C           2.3437   -1.3574   19.8435 C.ar    1  UNL1       -0.0029
     19 C           2.0076   -0.2290   20.7728 C.ar    1  UNL1        0.0199
     20 C           2.6705   -0.1404   22.1155 C.ar    1  UNL1        0.1251
     21 C           3.6694   -1.1803   22.5289 C.ar    1  UNL1        0.0199
     22 C           4.0055   -2.3087   21.5995 C.ar    1  UNL1       -0.0029
     23 C           3.6788   -3.5258   19.3276 C.3     1  UNL1        0.0264
     24 C           5.1016   -3.7571   18.9127 C.3     1  UNL1        0.0047
     25 C           6.8446   -1.8304   18.9151 C.3     1  UNL1        0.0000
     26 C           5.8535   -2.6846   18.1816 C.3     1  UNL1        0.0003
     27 C          -6.2010    4.7406   22.0951 C.3     1  UNL1        0.1180
     28 C          -7.3712    4.9617   23.0072 C.ar    1  UNL1        0.0693
     29 C          -7.7500    6.2598   23.6565 C.ar    1  UNL1        0.0379
     30 C          -8.9809    6.0239   24.4806 C.ar    1  UNL1        0.1211
     31 N          -9.3628    4.5801   24.3408 N.ar    1  UNL1       -0.1713
     32 N          -8.3679    3.9236   23.4301 N.ar    1  UNL1       -0.2784
     33 H          -8.3690    2.9775   23.1578 H       1  UNL1        0.1886
@<TRIPOS>BOND
     1    25    26    1
     2    26    24    1
     3    24    23    1
     4    23    17    1
     5    17    18   ar
     6    18    19   ar
     7    19    20   ar
     8    20    14    1
     9    14    15    2
    10    14    16    2
    11    14    12    1
    12    12     1    1
    13     1     2   ar
    14     2     3   ar
    15     3     4   ar
    16     4     5   ar
    17     5     6   ar
    18     5     7    1
    19     7     8    1
    20     8     9    1
    21     9    27    1
    22    27    28    1
    23    28    29   ar
    24    29    30   ar
    25    30    31   ar
    26    31    32   ar
    27     9    10    1
    28    10    11    1
    29    20    21   ar
    30    21    22   ar
    31    22    17   ar
    32     6     1   ar
    33    32    28   ar
    34    11     4    1
    35    12    13    1
    36    32    33    1
@<TRIPOS>MOLECULE
*****
 33 36 0 0 0
SMALL
GASTEIGER

@<TRIPOS>ATOM
      1 C           1.7081    1.5406   25.6052 C.ar    1  UNL1        0.0644
      2 C           2.7058    0.6397   26.2709 C.ar    1  UNL1        0.0155
      3 C           3.4283   -0.4018   25.4687 C.ar    1  UNL1       -0.0032
      4 C           3.1530   -0.5423   24.0008 C.ar    1  UNL1       -0.0246
      5 C           2.1554    0.3585   23.3353 C.ar    1  UNL1       -0.0234
      6 C           1.4329    1.4000   24.1374 C.ar    1  UNL1        0.0113
      7 C           1.7351    0.3867   21.8956 C.3     1  UNL1        0.0434
      8 C           2.2089   -0.4792   20.7659 C.3     1  UNL1        0.0771
      9 N           3.2197   -1.5869   20.7971 N.3     1  UNL1       -0.2671
     10 C           4.0066   -2.1024   21.9654 C.3     1  UNL1        0.0771
     11 C           3.9769   -1.6376   23.3912 C.3     1  UNL1        0.0434
     12 N           0.9858    2.5820   26.4074 N.pl3   1  UNL1       -0.2150
     13 H           1.4427    3.0331   27.1538 H       1  UNL1        0.1737
     14 S          -0.4328    2.9362   26.0725 S.O2    1  UNL1        0.0736
     15 O           0.0318    4.2306   25.4736 O.2     1  UNL1       -0.1499
     16 O          -0.8974    1.6418   26.6713 O.2     1  UNL1       -0.1499
     17 C          -4.6886    3.9988   25.0675 C.ar    1  UNL1       -0.0221
     18 C          -3.7152    3.6834   23.9707 C.ar    1  UNL1       -0.0029
     19 C          -2.2966    3.3292   24.3056 C.ar    1  UNL1        0.0199
     20 C          -1.8514    3.2904   25.7375 C.ar    1  UNL1        0.1251
     21 C          -2.8248    3.6058   26.8344 C.ar    1  UNL1        0.0199
     22 C          -4.2433    3.9599   26.4994 C.ar    1  UNL1       -0.0029
     23 C          -6.1072    4.3529   24.7326 C.3     1  UNL1        0.0264
     24 C          -6.3971    5.3116   23.6160 C.3     1  UNL1        0.0047
     25 C          -6.1790    4.2763   21.2431 C.3     1  UNL1        0.0000
     26 C          -7.0334    4.8184   22.3503 C.3     1  UNL1        0.0003
     27 C           3.4779   -2.2693   19.4865 C.3     1  UNL1        0.1180
     28 C           4.6950   -1.9163   18.6839 C.ar    1  UNL1        0.0693
     29 C           5.0912   -0.5384   18.2429 C.ar    1  UNL1        0.0379
     30 C           6.3706   -0.6498   17.4679 C.ar    1  UNL1        0.1211
     31 N           6.7652   -2.0964   17.4299 N.ar    1  UNL1       -0.1713
     32 N           5.7296   -2.8792   18.1815 N.ar    1  UNL1       -0.2784
     33 H           5.7290   -3.8539   18.3206 H       1  UNL1        0.1886
@<TRIPOS>BOND
     1    25    26    1
     2    26    24    1
     3    24    23    1
     4    23    17    1
     5    17    18   ar
     6    18    19   ar
     7    19    20   ar
     8    20    14    1
     9    14    15    2
    10    14    16    2
    11    14    12    1
    12    12     1    1
    13     1     2   ar
    14     2     3   ar
    15     3     4   ar
    16     4     5   ar
    17     5     6   ar
    18     5     7    1
    19     7     8    1
    20     8     9    1
    21     9    27    1
    22    27    28    1
    23    28    29   ar
    24    29    30   ar
    25    30    31   ar
    26    31    32   ar
    27     9    10    1
    28    10    11    1
    29    20    21   ar
    30    21    22   ar
    31    22    17   ar
    32     6     1   ar
    33    32    28   ar
    34    11     4    1
    35    12    13    1
    36    32    33    1
