@<TRIPOS>MOLECULE
*****
 42 47 0 0 0
SMALL
GASTEIGER

@<TRIPOS>ATOM
      1 N           1.8463    0.9252   29.0206 N.3     1  UNL1       -0.2688
      2 C           1.9653   -0.4217   29.6702 C.3     1  UNL1        0.0741
      3 C           2.6835   -0.5620   30.9796 C.3     1  UNL1        0.0372
      4 C           3.2828    0.6446   31.6393 C.3     1  UNL1        0.0799
      5 C           3.1639    1.9913   30.9897 C.3     1  UNL1        0.0372
      6 C           2.4456    2.1316   29.6803 C.3     1  UNL1        0.0741
      7 N           4.0010    0.5043   32.9487 N.am    1  UNL1       -0.2618
      8 C           3.6327    1.1847   34.2337 C.2     1  UNL1        0.3074
      9 O           2.4813    2.1249   34.4350 O.2     1  UNL1       -0.2523
     10 N           4.6177    0.7599   35.2822 N.am    1  UNL1       -0.2635
     11 C           5.5949   -0.1832   34.6451 C.3     1  UNL1        0.1192
     12 C           5.2137   -0.3411   33.2030 C.3     1  UNL1        0.1191
     13 C           4.6243    1.2006   36.7159 C.3     1  UNL1        0.0819
     14 C           3.4514    0.8955   37.5998 C.3     1  UNL1        0.0520
     15 C           3.4580    1.3363   39.0335 C.3     1  UNL1        0.1439
     16 O           4.6376    2.0822   39.5834 O.3     1  UNL1       -0.3537
     17 C           5.8104    2.3873   38.6995 C.3     1  UNL1        0.1439
     18 C           5.8038    1.9465   37.2658 C.3     1  UNL1        0.0520
     19 C           5.9212   -1.1946   32.1925 C.ar    1  UNL1       -0.0026
     20 C           6.7254   -0.5534   31.1006 C.ar    1  UNL1       -0.0026
     21 C           7.4329   -1.4069   30.0901 C.ar    1  UNL1       -0.0003
     22 C           7.3361   -2.9016   30.1715 C.ar    1  UNL1       -0.0000
     23 C           6.5319   -3.5427   31.2633 C.ar    1  UNL1       -0.0003
     24 C           5.8245   -2.6893   32.2738 C.ar    1  UNL1       -0.0026
     25 C           1.1281    1.0655   27.7112 C.3     1  UNL1        0.1003
     26 C          -0.2158    1.6714   25.0984 C.3     1  UNL1        0.0519
     27 C           1.2015    1.1805   25.1167 C.ar    1  UNL1        0.0598
     28 N           1.9468    0.9925   23.8286 N.ar    1  UNL1       -0.2160
     29 C           3.3641    0.5016   23.8469 C.ar    1  UNL1        0.2293
     30 C           4.0360    0.1986   25.1533 C.ar    1  UNL1        0.0578
     31 C           3.2907    0.3866   26.4414 C.ar    1  UNL1        0.0031
     32 C           1.8734    0.8775   26.4231 C.ar    1  UNL1        0.0077
     33 O           4.1094    0.3136   22.5588 O.3     1  UNL1       -0.4361
     34 C           4.0673   -1.0099   21.8542 C.ar    1  UNL1        0.1472
     35 C           3.4452   -1.1157   20.4934 C.ar    1  UNL1        0.0376
     36 C           3.4031   -2.4393   19.7888 C.ar    1  UNL1        0.0043
     37 C           3.9832   -3.6571   20.4451 C.ar    1  UNL1        0.0142
     38 C           4.6053   -3.5512   21.8059 C.ar    1  UNL1        0.0043
     39 C           4.6473   -2.2277   22.5104 C.ar    1  UNL1        0.0376
     40 C           3.9411   -4.9806   19.7405 C.2     1  UNL1        0.0729
     41 O           3.1961   -6.1312   20.3497 O.co2   1  UNL1       -0.5446
     42 O           4.6441   -5.1536   18.4267 O.co2   1  UNL1       -0.5446
@<TRIPOS>UNITY_ATOM_ATTR
41 1
charge -1
@<TRIPOS>BOND
     1    26    27    1
     2    27    28   ar
     3    28    29   ar
     4    29    33    1
     5    33    34    1
     6    34    35   ar
     7    35    36   ar
     8    36    37   ar
     9    37    40    1
    10    40    41   ar
    11    40    42   ar
    12    37    38   ar
    13    38    39   ar
    14    29    30   ar
    15    30    31   ar
    16    31    32   ar
    17    32    25    1
    18    25     1    1
    19     1     2    1
    20     2     3    1
    21     3     4    1
    22     4     7    1
    23     7     8   am
    24     8     9    2
    25     8    10   am
    26    10    13    1
    27    13    14    1
    28    14    15    1
    29    15    16    1
    30    16    17    1
    31    17    18    1
    32    10    11    1
    33    11    12    1
    34    12    19    1
    35    19    20   ar
    36    20    21   ar
    37    21    22   ar
    38    22    23   ar
    39    23    24   ar
    40     4     5    1
    41     5     6    1
    42    32    27   ar
    43     6     1    1
    44    39    34   ar
    45    12     7    1
    46    24    19   ar
    47    18    13    1
@<TRIPOS>MOLECULE
*****
 42 47 0 0 0
SMALL
GASTEIGER

@<TRIPOS>ATOM
      1 N           3.2344    0.7354   29.0788 N.3     1  UNL1       -0.2688
      2 C           4.2633    1.6763   29.6321 C.3     1  UNL1        0.0741
      3 C           4.5779    1.6655   31.0987 C.3     1  UNL1        0.0372
      4 C           3.8636    0.7138   32.0120 C.3     1  UNL1        0.0799
      5 C           2.8347   -0.2271   31.4587 C.3     1  UNL1        0.0372
      6 C           2.5201   -0.2163   29.9921 C.3     1  UNL1        0.0741
      7 N           4.1781    0.7029   33.4786 N.am    1  UNL1       -0.2618
      8 C           3.5482    1.5773   34.5220 C.2     1  UNL1        0.3074
      9 O           2.4930    2.6161   34.2819 O.2     1  UNL1       -0.2523
     10 N           4.1586    1.2307   35.8476 N.am    1  UNL1       -0.2635
     11 C           5.1659    0.1420   35.6235 C.3     1  UNL1        0.1192
     12 C           5.1779   -0.1841   34.1594 C.3     1  UNL1        0.1191
     13 C           3.8211    1.8618   37.1658 C.3     1  UNL1        0.0819
     14 C           2.4132    1.8145   37.6812 C.3     1  UNL1        0.0520
     15 C           2.0756    2.4457   38.9994 C.3     1  UNL1        0.1439
     16 O           3.1459    3.1241   39.8021 O.3     1  UNL1       -0.3537
     17 C           4.5537    3.1714   39.2866 C.3     1  UNL1        0.1439
     18 C           4.8913    2.5402   37.9684 C.3     1  UNL1        0.0520
     19 C           6.0387   -1.2162   33.4931 C.ar    1  UNL1       -0.0026
     20 C           5.4232   -2.4770   32.9624 C.ar    1  UNL1       -0.0026
     21 C           6.2840   -3.5091   32.2961 C.ar    1  UNL1       -0.0003
     22 C           7.7602   -3.2804   32.1605 C.ar    1  UNL1       -0.0000
     23 C           8.3757   -2.0196   32.6912 C.ar    1  UNL1       -0.0003
     24 C           7.5150   -0.9876   33.3574 C.ar    1  UNL1       -0.0026
     25 C           2.9198    0.7462   27.6122 C.3     1  UNL1        0.1003
     26 C           2.1373    0.6203   24.7188 C.3     1  UNL1        0.0519
     27 C           3.2156   -0.2805   25.2440 C.ar    1  UNL1        0.0598
     28 N           3.9027   -1.2442   24.3225 N.ar    1  UNL1       -0.2160
     29 C           4.9810   -2.1449   24.8477 C.ar    1  UNL1        0.2293
     30 C           5.3723   -2.0820   26.2944 C.ar    1  UNL1        0.0578
     31 C           4.6852   -1.1183   27.2159 C.ar    1  UNL1        0.0031
     32 C           3.6069   -0.2176   26.6907 C.ar    1  UNL1        0.0077
     33 O           5.6681   -3.1087   23.9262 O.3     1  UNL1       -0.4361
     34 C           5.6771   -2.8558   22.4477 C.ar    1  UNL1        0.1472
     35 C           4.6510   -3.5078   21.5690 C.ar    1  UNL1        0.0376
     36 C           4.6600   -3.2549   20.0905 C.ar    1  UNL1        0.0043
     37 C           5.6951   -2.3500   19.4907 C.ar    1  UNL1        0.0142
     38 C           6.7212   -1.6980   20.3693 C.ar    1  UNL1        0.0043
     39 C           6.7122   -1.9509   21.8478 C.ar    1  UNL1        0.0376
     40 C           5.7041   -2.0971   18.0122 C.2     1  UNL1        0.0729
     41 O           6.9787   -2.2406   17.2344 O.co2   1  UNL1       -0.5446
     42 O           4.4385   -1.7006   17.3114 O.co2   1  UNL1       -0.5446
@<TRIPOS>UNITY_ATOM_ATTR
41 1
charge -1
@<TRIPOS>BOND
     1    26    27    1
     2    27    28   ar
     3    28    29   ar
     4    29    33    1
     5    33    34    1
     6    34    35   ar
     7    35    36   ar
     8    36    37   ar
     9    37    40    1
    10    40    41   ar
    11    40    42   ar
    12    37    38   ar
    13    38    39   ar
    14    29    30   ar
    15    30    31   ar
    16    31    32   ar
    17    32    25    1
    18    25     1    1
    19     1     2    1
    20     2     3    1
    21     3     4    1
    22     4     7    1
    23     7     8   am
    24     8     9    2
    25     8    10   am
    26    10    13    1
    27    13    14    1
    28    14    15    1
    29    15    16    1
    30    16    17    1
    31    17    18    1
    32    10    11    1
    33    11    12    1
    34    12    19    1
    35    19    20   ar
    36    20    21   ar
    37    21    22   ar
    38    22    23   ar
    39    23    24   ar
    40     4     5    1
    41     5     6    1
    42    32    27   ar
    43     6     1    1
    44    39    34   ar
    45    12     7    1
    46    24    19   ar
    47    18    13    1
@<TRIPOS>MOLECULE
*****
 42 47 0 0 0
SMALL
GASTEIGER

@<TRIPOS>ATOM
      1 N           3.4233   -0.6900   19.5336 N.3     1  UNL1       -0.2688
      2 C           2.0936   -1.2271   19.9737 C.3     1  UNL1        0.0741
      3 C           1.1850   -0.3819   20.8163 C.3     1  UNL1        0.0372
      4 C           1.6060    1.0005   21.2187 C.3     1  UNL1        0.0799
      5 C           2.9356    1.5376   20.7785 C.3     1  UNL1        0.0372
      6 C           3.8442    0.6923   19.9360 C.3     1  UNL1        0.0741
      7 N           0.6974    1.8458   22.0612 N.am    1  UNL1       -0.2618
      8 C          -0.5312    2.5634   21.5861 C.2     1  UNL1        0.3074
      9 O          -1.0668    2.5618   20.1850 O.2     1  UNL1       -0.2523
     10 N          -1.1301    3.2830   22.7581 N.am    1  UNL1       -0.2635
     11 C          -0.2717    3.0101   23.9576 C.3     1  UNL1        0.1192
     12 C           0.8577    2.1218   23.5269 C.3     1  UNL1        0.1191
     13 C          -2.3697    4.1272   22.7347 C.3     1  UNL1        0.0819
     14 C          -2.4118    5.3748   21.9029 C.3     1  UNL1        0.0520
     15 C          -3.6514    6.2190   21.8795 C.3     1  UNL1        0.1439
     16 O          -4.8489    5.8157   22.6878 O.3     1  UNL1       -0.3537
     17 C          -4.8068    4.5681   23.5195 C.3     1  UNL1        0.1439
     18 C          -3.5672    3.7239   23.5429 C.3     1  UNL1        0.0520
     19 C           1.9548    1.6011   24.4073 C.ar    1  UNL1       -0.0026
     20 C           2.3352    0.1510   24.3535 C.ar    1  UNL1       -0.0026
     21 C           3.4323   -0.3697   25.2339 C.ar    1  UNL1       -0.0003
     22 C           4.1491    0.5595   26.1681 C.ar    1  UNL1       -0.0000
     23 C           3.7688    2.0095   26.2219 C.ar    1  UNL1       -0.0003
     24 C           2.6717    2.5302   25.3415 C.ar    1  UNL1       -0.0026
     25 C           4.3319   -1.5353   18.6910 C.3     1  UNL1        0.1003
     26 C           3.8287   -4.4437   19.2277 C.3     1  UNL1        0.0519
     27 C           5.1418   -3.8269   19.6090 C.ar    1  UNL1        0.0598
     28 N           6.2032   -4.6643   20.2586 N.ar    1  UNL1       -0.2160
     29 C           7.5163   -4.0475   20.6399 C.ar    1  UNL1        0.2293
     30 C           7.7679   -2.5933   20.3716 C.ar    1  UNL1        0.0578
     31 C           6.7065   -1.7560   19.7220 C.ar    1  UNL1        0.0031
     32 C           5.3934   -2.3727   19.3407 C.ar    1  UNL1        0.0077
     33 O           8.5778   -4.8850   21.2896 O.3     1  UNL1       -0.4361
     34 C           8.3355   -5.4858   22.6425 C.ar    1  UNL1        0.1472
     35 C           7.6319   -4.6899   23.7015 C.ar    1  UNL1        0.0376
     36 C           7.3897   -5.2907   25.0544 C.ar    1  UNL1        0.0043
     37 C           7.8511   -6.6875   25.3483 C.ar    1  UNL1        0.0142
     38 C           8.5547   -7.4833   24.2892 C.ar    1  UNL1        0.0043
     39 C           8.7969   -6.8825   22.9363 C.ar    1  UNL1        0.0376
     40 C           7.6089   -7.2884   26.7011 C.2     1  UNL1        0.0729
     41 O           7.6517   -8.7771   26.8792 O.co2   1  UNL1       -0.5446
     42 O           7.3238   -6.4004   27.8760 O.co2   1  UNL1       -0.5446
@<TRIPOS>UNITY_ATOM_ATTR
41 1
charge -1
@<TRIPOS>BOND
     1    26    27    1
     2    27    28   ar
     3    28    29   ar
     4    29    33    1
     5    33    34    1
     6    34    35   ar
     7    35    36   ar
     8    36    37   ar
     9    37    40    1
    10    40    41   ar
    11    40    42   ar
    12    37    38   ar
    13    38    39   ar
    14    29    30   ar
    15    30    31   ar
    16    31    32   ar
    17    32    25    1
    18    25     1    1
    19     1     2    1
    20     2     3    1
    21     3     4    1
    22     4     7    1
    23     7     8   am
    24     8     9    2
    25     8    10   am
    26    10    13    1
    27    13    14    1
    28    14    15    1
    29    15    16    1
    30    16    17    1
    31    17    18    1
    32    10    11    1
    33    11    12    1
    34    12    19    1
    35    19    20   ar
    36    20    21   ar
    37    21    22   ar
    38    22    23   ar
    39    23    24   ar
    40     4     5    1
    41     5     6    1
    42    32    27   ar
    43     6     1    1
    44    39    34   ar
    45    12     7    1
    46    24    19   ar
    47    18    13    1
@<TRIPOS>MOLECULE
*****
 42 47 0 0 0
SMALL
GASTEIGER

@<TRIPOS>ATOM
      1 N           3.1527   -0.7197   19.2157 N.3     1  UNL1       -0.2688
      2 C           1.8118   -1.1489   19.7333 C.3     1  UNL1        0.0741
      3 C           0.9411   -0.1695   20.4632 C.3     1  UNL1        0.0372
      4 C           1.4113    1.2390   20.6755 C.3     1  UNL1        0.0799
      5 C           2.7522    1.6681   20.1580 C.3     1  UNL1        0.0372
      6 C           3.6229    0.6888   19.4281 C.3     1  UNL1        0.0741
      7 N           0.5406    2.2183   21.4055 N.am    1  UNL1       -0.2618
      8 C           0.1612    2.1510   22.8551 C.2     1  UNL1        0.3074
      9 O           0.5859    1.0926   23.8294 O.2     1  UNL1       -0.2523
     10 N          -0.7175    3.3280   23.1595 N.am    1  UNL1       -0.2635
     11 C          -0.8811    4.1228   21.8979 C.3     1  UNL1        0.1192
     12 C          -0.1036    3.4369   20.8139 C.3     1  UNL1        0.1191
     13 C          -1.3257    3.6532   24.4915 C.3     1  UNL1        0.0819
     14 C          -2.8131    3.5854   24.6734 C.3     1  UNL1        0.0520
     15 C          -3.4213    3.9105   26.0054 C.3     1  UNL1        0.1439
     16 O          -2.5421    4.3034   27.1555 O.3     1  UNL1       -0.3537
     17 C          -1.0548    4.3711   26.9736 C.3     1  UNL1        0.1439
     18 C          -0.4466    4.0460   25.6416 C.3     1  UNL1        0.0520
     19 C           0.0098    3.8902   19.3885 C.ar    1  UNL1       -0.0026
     20 C          -1.0755    3.5586   18.4074 C.ar    1  UNL1       -0.0026
     21 C          -0.9621    4.0118   16.9820 C.ar    1  UNL1       -0.0003
     22 C           0.2365    4.7966   16.5377 C.ar    1  UNL1       -0.0000
     23 C           1.3217    5.1282   17.5187 C.ar    1  UNL1       -0.0003
     24 C           1.2083    4.6750   18.9440 C.ar    1  UNL1       -0.0026
     25 C           4.0234   -1.6990   18.4858 C.3     1  UNL1        0.1003
     26 C           3.7248   -4.5565   19.3494 C.3     1  UNL1        0.0519
     27 C           4.9965   -3.8150   19.6374 C.ar    1  UNL1        0.0598
     28 N           6.1189   -4.5021   20.3571 N.ar    1  UNL1       -0.2160
     29 C           7.3906   -3.7606   20.6450 C.ar    1  UNL1        0.2293
     30 C           7.5399   -2.3319   20.2132 C.ar    1  UNL1        0.0578
     31 C           6.4175   -1.6447   19.4935 C.ar    1  UNL1        0.0031
     32 C           5.1458   -2.3863   19.2056 C.ar    1  UNL1        0.0077
     33 O           8.5130   -4.4479   21.3647 O.3     1  UNL1       -0.4361
     34 C           8.2468   -5.1729   22.6506 C.ar    1  UNL1        0.1472
     35 C           7.4484   -4.5102   23.7339 C.ar    1  UNL1        0.0376
     36 C           7.1822   -5.2352   25.0197 C.ar    1  UNL1        0.0043
     37 C           7.7144   -6.6230   25.2223 C.ar    1  UNL1        0.0142
     38 C           8.5128   -7.2856   24.1391 C.ar    1  UNL1        0.0043
     39 C           8.7790   -6.5606   22.8532 C.ar    1  UNL1        0.0376
     40 C           7.4483   -7.3480   26.5082 C.2     1  UNL1        0.0729
     41 O           7.7161   -6.6716   27.8200 O.co2   1  UNL1       -0.5446
     42 O           6.9142   -8.7495   26.4823 O.co2   1  UNL1       -0.5446
@<TRIPOS>UNITY_ATOM_ATTR
41 1
charge -1
@<TRIPOS>BOND
     1    26    27    1
     2    27    28   ar
     3    28    29   ar
     4    29    33    1
     5    33    34    1
     6    34    35   ar
     7    35    36   ar
     8    36    37   ar
     9    37    40    1
    10    40    41   ar
    11    40    42   ar
    12    37    38   ar
    13    38    39   ar
    14    29    30   ar
    15    30    31   ar
    16    31    32   ar
    17    32    25    1
    18    25     1    1
    19     1     2    1
    20     2     3    1
    21     3     4    1
    22     4     7    1
    23     7     8   am
    24     8     9    2
    25     8    10   am
    26    10    13    1
    27    13    14    1
    28    14    15    1
    29    15    16    1
    30    16    17    1
    31    17    18    1
    32    10    11    1
    33    11    12    1
    34    12    19    1
    35    19    20   ar
    36    20    21   ar
    37    21    22   ar
    38    22    23   ar
    39    23    24   ar
    40     4     5    1
    41     5     6    1
    42    32    27   ar
    43     6     1    1
    44    39    34   ar
    45    12     7    1
    46    24    19   ar
    47    18    13    1
@<TRIPOS>MOLECULE
*****
 42 47 0 0 0
SMALL
GASTEIGER

@<TRIPOS>ATOM
      1 N           2.3521    0.8230   29.1668 N.3     1  UNL1       -0.2688
      2 C           2.3926   -0.4559   29.9497 C.3     1  UNL1        0.0741
      3 C           2.8272   -0.4430   31.3853 C.3     1  UNL1        0.0372
      4 C           3.2213    0.8488   32.0380 C.3     1  UNL1        0.0799
      5 C           3.1808    2.1276   31.2552 C.3     1  UNL1        0.0372
      6 C           2.7462    2.1147   29.8196 C.3     1  UNL1        0.0741
      7 N           3.6559    0.8617   33.4737 N.am    1  UNL1       -0.2618
      8 C           3.0597    1.6967   34.5679 C.2     1  UNL1        0.3074
      9 O           1.9242    2.6654   34.4186 O.2     1  UNL1       -0.2523
     10 N           3.7983    1.3930   35.8376 N.am    1  UNL1       -0.2635
     11 C           4.8510    0.3703   35.5281 C.3     1  UNL1        0.1192
     12 C           4.7630    0.0419   34.0671 C.3     1  UNL1        0.1191
     13 C           3.5311    2.0046   37.1809 C.3     1  UNL1        0.0819
     14 C           2.2246    1.7521   37.8734 C.3     1  UNL1        0.0520
     15 C           1.9574    2.3637   39.2167 C.3     1  UNL1        0.1439
     16 O           2.9966    3.2277   39.8675 O.3     1  UNL1       -0.3537
     17 C           4.3030    3.4802   39.1750 C.3     1  UNL1        0.1439
     18 C           4.5702    2.8686   37.8317 C.3     1  UNL1        0.0520
     19 C           5.6300   -0.9347   33.3292 C.ar    1  UNL1       -0.0026
     20 C           5.2129   -2.3712   33.2159 C.ar    1  UNL1       -0.0026
     21 C           6.0799   -3.3479   32.4779 C.ar    1  UNL1       -0.0003
     22 C           7.3638   -2.8881   31.8533 C.ar    1  UNL1       -0.0000
     23 C           7.7808   -1.4517   31.9666 C.ar    1  UNL1       -0.0003
     24 C           6.9139   -0.4751   32.7045 C.ar    1  UNL1       -0.0026
     25 C           1.9175    0.8101   27.7312 C.3     1  UNL1        0.1003
     26 C          -0.8666   -0.0195   28.4801 C.3     1  UNL1        0.0519
     27 C          -0.6468    1.2233   27.6694 C.ar    1  UNL1        0.0598
     28 N          -1.8189    2.0513   27.2332 N.ar    1  UNL1       -0.2160
     29 C          -1.5991    3.2941   26.4226 C.ar    1  UNL1        0.2293
     30 C          -0.2071    3.7089   26.0482 C.ar    1  UNL1        0.0578
     31 C           0.9651    2.8809   26.4844 C.ar    1  UNL1        0.0031
     32 C           0.7452    1.6381   27.2950 C.ar    1  UNL1        0.0077
     33 O          -2.7714    4.1222   25.9864 O.3     1  UNL1       -0.4361
     34 C          -3.2789    4.0206   24.5785 C.ar    1  UNL1        0.1472
     35 C          -2.5390    4.6988   23.4638 C.ar    1  UNL1        0.0376
     36 C          -3.0465    4.5972   22.0559 C.ar    1  UNL1        0.0043
     37 C          -4.2940    3.8175   21.7628 C.ar    1  UNL1        0.0142
     38 C          -5.0339    3.1393   22.8775 C.ar    1  UNL1        0.0043
     39 C          -4.5263    3.2409   24.2854 C.ar    1  UNL1        0.0376
     40 C          -4.8015    3.7159   20.3549 C.2     1  UNL1        0.0729
     41 O          -3.8382    3.5138   19.2231 O.co2   1  UNL1       -0.5446
     42 O          -6.2725    3.8164   20.0789 O.co2   1  UNL1       -0.5446
@<TRIPOS>UNITY_ATOM_ATTR
41 1
charge -1
@<TRIPOS>BOND
     1    26    27    1
     2    27    28   ar
     3    28    29   ar
     4    29    33    1
     5    33    34    1
     6    34    35   ar
     7    35    36   ar
     8    36    37   ar
     9    37    40    1
    10    40    41   ar
    11    40    42   ar
    12    37    38   ar
    13    38    39   ar
    14    29    30   ar
    15    30    31   ar
    16    31    32   ar
    17    32    25    1
    18    25     1    1
    19     1     2    1
    20     2     3    1
    21     3     4    1
    22     4     7    1
    23     7     8   am
    24     8     9    2
    25     8    10   am
    26    10    13    1
    27    13    14    1
    28    14    15    1
    29    15    16    1
    30    16    17    1
    31    17    18    1
    32    10    11    1
    33    11    12    1
    34    12    19    1
    35    19    20   ar
    36    20    21   ar
    37    21    22   ar
    38    22    23   ar
    39    23    24   ar
    40     4     5    1
    41     5     6    1
    42    32    27   ar
    43     6     1    1
    44    39    34   ar
    45    12     7    1
    46    24    19   ar
    47    18    13    1
@<TRIPOS>MOLECULE
*****
 42 47 0 0 0
SMALL
GASTEIGER

@<TRIPOS>ATOM
      1 N          -0.8874    2.7439   27.2533 N.3     1  UNL1       -0.2688
      2 C          -0.8946    1.2994   27.6577 C.3     1  UNL1        0.0741
      3 C           0.1415    0.7824   28.6112 C.3     1  UNL1        0.0372
      4 C           1.1848    1.7099   29.1602 C.3     1  UNL1        0.0799
      5 C           1.1920    3.1543   28.7558 C.3     1  UNL1        0.0372
      6 C           0.1558    3.6713   27.8023 C.3     1  UNL1        0.0741
      7 N           2.2210    1.1929   30.1137 N.am    1  UNL1       -0.2618
      8 C           2.1643    1.2808   31.6101 C.2     1  UNL1        0.3074
      9 O           1.0615    1.9012   32.4157 O.2     1  UNL1       -0.2523
     10 N           3.4040    0.6395   32.1594 N.am    1  UNL1       -0.2635
     11 C           4.2269    0.1552   31.0026 C.3     1  UNL1        0.1192
     12 C           3.4957    0.4972   29.7383 C.3     1  UNL1        0.1191
     13 C           3.7585    0.5059   33.6108 C.3     1  UNL1        0.0819
     14 C           3.4430    1.6191   34.5654 C.3     1  UNL1        0.0520
     15 C           3.7975    1.4855   36.0167 C.3     1  UNL1        0.1439
     16 O           4.4675    0.2388   36.5135 O.3     1  UNL1       -0.3537
     17 C           4.7830   -0.8743   35.5588 C.3     1  UNL1        0.1439
     18 C           4.4285   -0.7408   34.1075 C.3     1  UNL1        0.0520
     19 C           3.9582    0.1964   28.3434 C.ar    1  UNL1       -0.0026
     20 C           3.4608   -1.0295   27.6364 C.ar    1  UNL1       -0.0026
     21 C           3.9233   -1.3304   26.2415 C.ar    1  UNL1       -0.0003
     22 C           4.8831   -0.4054   25.5537 C.ar    1  UNL1       -0.0000
     23 C           5.3805    0.8205   26.2607 C.ar    1  UNL1       -0.0003
     24 C           4.9180    1.1213   27.6555 C.ar    1  UNL1       -0.0026
     25 C          -1.9236    3.2609   26.2998 C.3     1  UNL1        0.1003
     26 C          -4.1168    3.9884   24.3865 C.3     1  UNL1        0.0519
     27 C          -2.7778    3.5591   23.8643 C.ar    1  UNL1        0.0598
     28 N          -2.5353    3.4934   22.3855 N.ar    1  UNL1       -0.2160
     29 C          -1.1963    3.0641   21.8633 C.ar    1  UNL1        0.2293
     30 C          -0.0997    2.7003   22.8199 C.ar    1  UNL1        0.0578
     31 C          -0.3422    2.7660   24.2987 C.ar    1  UNL1        0.0031
     32 C          -1.6812    3.1953   24.8209 C.ar    1  UNL1        0.0077
     33 O          -0.9539    2.9985   20.3845 O.3     1  UNL1       -0.4361
     34 C           0.1626    2.1549   19.8442 C.ar    1  UNL1        0.1472
     35 C           1.2538    2.7862   19.0313 C.ar    1  UNL1        0.0376
     36 C           2.3703    1.9426   18.4910 C.ar    1  UNL1        0.0043
     37 C           2.3955    0.4678   18.7636 C.ar    1  UNL1        0.0142
     38 C           1.3043   -0.1634   19.5765 C.ar    1  UNL1        0.0043
     39 C           0.1878    0.6801   20.1167 C.ar    1  UNL1        0.0376
     40 C           3.5120   -0.3758   18.2233 C.2     1  UNL1        0.0729
     41 O           4.6359   -0.7979   19.1226 O.co2   1  UNL1       -0.5446
     42 O           3.5045   -0.7972   16.7837 O.co2   1  UNL1       -0.5446
@<TRIPOS>UNITY_ATOM_ATTR
41 1
charge -1
@<TRIPOS>BOND
     1    26    27    1
     2    27    28   ar
     3    28    29   ar
     4    29    33    1
     5    33    34    1
     6    34    35   ar
     7    35    36   ar
     8    36    37   ar
     9    37    40    1
    10    40    41   ar
    11    40    42   ar
    12    37    38   ar
    13    38    39   ar
    14    29    30   ar
    15    30    31   ar
    16    31    32   ar
    17    32    25    1
    18    25     1    1
    19     1     2    1
    20     2     3    1
    21     3     4    1
    22     4     7    1
    23     7     8   am
    24     8     9    2
    25     8    10   am
    26    10    13    1
    27    13    14    1
    28    14    15    1
    29    15    16    1
    30    16    17    1
    31    17    18    1
    32    10    11    1
    33    11    12    1
    34    12    19    1
    35    19    20   ar
    36    20    21   ar
    37    21    22   ar
    38    22    23   ar
    39    23    24   ar
    40     4     5    1
    41     5     6    1
    42    32    27   ar
    43     6     1    1
    44    39    34   ar
    45    12     7    1
    46    24    19   ar
    47    18    13    1
@<TRIPOS>MOLECULE
*****
 42 47 0 0 0
SMALL
GASTEIGER

@<TRIPOS>ATOM
      1 N           2.0947    0.7965   18.7448 N.3     1  UNL1       -0.2688
      2 C           1.9732    2.2914   18.7710 C.3     1  UNL1        0.0741
      3 C           0.9502    2.9454   19.6519 C.3     1  UNL1        0.0372
      4 C           0.0489    2.1044   20.5066 C.3     1  UNL1        0.0799
      5 C           0.1705    0.6096   20.4803 C.3     1  UNL1        0.0372
      6 C           1.1934   -0.0443   19.5994 C.3     1  UNL1        0.0741
      7 N          -0.9740    2.7584   21.3875 N.am    1  UNL1       -0.2618
      8 C          -2.3224    3.2536   20.9554 C.2     1  UNL1        0.3074
      9 O          -2.8846    3.1819   19.5666 O.2     1  UNL1       -0.2523
     10 N          -3.0099    3.8332   22.1560 N.am    1  UNL1       -0.2635
     11 C          -2.0865    3.6962   23.3301 C.3     1  UNL1        0.1192
     12 C          -0.8282    3.0319   22.8551 C.3     1  UNL1        0.1191
     13 C          -4.3803    4.4428   22.1786 C.3     1  UNL1        0.0819
     14 C          -5.5333    3.6748   22.7538 C.3     1  UNL1        0.0520
     15 C          -6.9036    4.2844   22.7763 C.3     1  UNL1        0.1439
     16 O          -7.1210    5.6619   22.2237 O.3     1  UNL1       -0.3537
     17 C          -5.9679    6.4297   21.6485 C.3     1  UNL1        0.1439
     18 C          -4.5976    5.8202   21.6259 C.3     1  UNL1        0.0520
     19 C           0.3661    2.6995   23.6995 C.ar    1  UNL1       -0.0026
     20 C           1.4367    3.7264   23.9218 C.ar    1  UNL1       -0.0026
     21 C           2.6311    3.3940   24.7662 C.ar    1  UNL1       -0.0003
     22 C           2.7549    2.0348   25.3884 C.ar    1  UNL1       -0.0000
     23 C           1.6843    1.0079   25.1661 C.ar    1  UNL1       -0.0003
     24 C           0.4900    1.3402   24.3217 C.ar    1  UNL1       -0.0026
     25 C           3.1176    0.1426   17.8639 C.3     1  UNL1        0.1003
     26 C           5.6213    1.3085   19.0354 C.3     1  UNL1        0.0519
     27 C           5.4081   -0.1762   19.0481 C.ar    1  UNL1        0.0598
     28 N           6.4467   -1.0780   19.6465 N.ar    1  UNL1       -0.2160
     29 C           6.2335   -2.5627   19.6591 C.ar    1  UNL1        0.2293
     30 C           4.9817   -3.1456   19.0734 C.ar    1  UNL1        0.0578
     31 C           3.9431   -2.2439   18.4750 C.ar    1  UNL1        0.0031
     32 C           4.1563   -0.7592   18.4623 C.ar    1  UNL1        0.0077
     33 O           7.2722   -3.4644   20.2576 O.3     1  UNL1       -0.4361
     34 C           7.1720   -3.8716   21.6978 C.ar    1  UNL1        0.1472
     35 C           8.1585   -4.8446   22.2725 C.ar    1  UNL1        0.0376
     36 C           8.0583   -5.2517   23.7127 C.ar    1  UNL1        0.0043
     37 C           6.9716   -4.6859   24.5782 C.ar    1  UNL1        0.0142
     38 C           5.9852   -3.7130   24.0035 C.ar    1  UNL1        0.0043
     39 C           6.0854   -3.3058   22.5633 C.ar    1  UNL1        0.0376
     40 C           6.8714   -5.0930   26.0184 C.2     1  UNL1        0.0729
     41 O           6.7763   -4.0465   27.0888 O.co2   1  UNL1       -0.5446
     42 O           6.8664   -6.5468   26.3882 O.co2   1  UNL1       -0.5446
@<TRIPOS>UNITY_ATOM_ATTR
41 1
charge -1
@<TRIPOS>BOND
     1    26    27    1
     2    27    28   ar
     3    28    29   ar
     4    29    33    1
     5    33    34    1
     6    34    35   ar
     7    35    36   ar
     8    36    37   ar
     9    37    40    1
    10    40    41   ar
    11    40    42   ar
    12    37    38   ar
    13    38    39   ar
    14    29    30   ar
    15    30    31   ar
    16    31    32   ar
    17    32    25    1
    18    25     1    1
    19     1     2    1
    20     2     3    1
    21     3     4    1
    22     4     7    1
    23     7     8   am
    24     8     9    2
    25     8    10   am
    26    10    13    1
    27    13    14    1
    28    14    15    1
    29    15    16    1
    30    16    17    1
    31    17    18    1
    32    10    11    1
    33    11    12    1
    34    12    19    1
    35    19    20   ar
    36    20    21   ar
    37    21    22   ar
    38    22    23   ar
    39    23    24   ar
    40     4     5    1
    41     5     6    1
    42    32    27   ar
    43     6     1    1
    44    39    34   ar
    45    12     7    1
    46    24    19   ar
    47    18    13    1
@<TRIPOS>MOLECULE
*****
 42 47 0 0 0
SMALL
GASTEIGER

@<TRIPOS>ATOM
      1 N          -0.7249    3.0073   26.7115 N.3     1  UNL1       -0.2688
      2 C          -1.0779    1.7255   27.4062 C.3     1  UNL1        0.0741
      3 C          -0.1888    1.1899   28.4891 C.3     1  UNL1        0.0372
      4 C           1.0532    1.9360   28.8773 C.3     1  UNL1        0.0799
      5 C           1.4061    3.2178   28.1826 C.3     1  UNL1        0.0372
      6 C           0.5171    3.7534   27.0997 C.3     1  UNL1        0.0741
      7 N           1.9423    1.4004   29.9602 N.am    1  UNL1       -0.2618
      8 C           2.6899    0.1005   29.9247 C.2     1  UNL1        0.3074
      9 O           2.6798   -0.8920   28.8001 O.2     1  UNL1       -0.2523
     10 N           3.4495   -0.0326   31.2113 N.am    1  UNL1       -0.2635
     11 C           3.1713    1.1850   32.0420 C.3     1  UNL1        0.1192
     12 C           2.2398    2.0706   31.2687 C.3     1  UNL1        0.1191
     13 C           4.3323   -1.1817   31.5991 C.3     1  UNL1        0.0819
     14 C           5.4816   -1.5746   30.7190 C.3     1  UNL1        0.0520
     15 C           6.3644   -2.7237   31.1068 C.3     1  UNL1        0.1439
     16 O           6.0979   -3.4797   32.3746 O.3     1  UNL1       -0.3537
     17 C           4.9485   -3.0867   33.2547 C.3     1  UNL1        0.1439
     18 C           4.0657   -1.9376   32.8669 C.3     1  UNL1        0.0520
     19 C           1.7004    3.3942   31.7241 C.ar    1  UNL1       -0.0026
     20 C           0.2623    3.5176   32.1326 C.ar    1  UNL1       -0.0026
     21 C          -0.2770    4.8412   32.5880 C.ar    1  UNL1       -0.0003
     22 C           0.6217    6.0412   32.6350 C.ar    1  UNL1       -0.0000
     23 C           2.0597    5.9177   32.2266 C.ar    1  UNL1       -0.0003
     24 C           2.5990    4.5943   31.7712 C.ar    1  UNL1       -0.0026
     25 C          -1.6140    3.5429   25.6286 C.3     1  UNL1        0.1003
     26 C          -3.6338    4.1911   23.5072 C.3     1  UNL1        0.0519
     27 C          -2.3314    3.5487   23.1315 C.ar    1  UNL1        0.0598
     28 N          -2.0390    3.2303   21.6952 N.ar    1  UNL1       -0.2160
     29 C          -0.7366    2.5879   21.3195 C.ar    1  UNL1        0.2293
     30 C           0.2733    2.2638   22.3802 C.ar    1  UNL1        0.0578
     31 C          -0.0192    2.5821   23.8165 C.ar    1  UNL1        0.0031
     32 C          -1.3215    3.2246   24.1922 C.ar    1  UNL1        0.0077
     33 O          -0.4442    2.2695   19.8831 O.3     1  UNL1       -0.4361
     34 C           0.6994    1.3640   19.5334 C.ar    1  UNL1        0.1472
     35 C           0.7332   -0.0396   20.0615 C.ar    1  UNL1        0.0376
     36 C           1.8767   -0.9452   19.7118 C.ar    1  UNL1        0.0043
     37 C           2.9865   -0.4471   18.8340 C.ar    1  UNL1        0.0142
     38 C           2.9526    0.9565   18.3060 C.ar    1  UNL1        0.0043
     39 C           1.8091    1.8620   18.6557 C.ar    1  UNL1        0.0376
     40 C           4.1301   -1.3526   18.4843 C.2     1  UNL1        0.0729
     41 O           4.8507   -2.1023   19.5653 O.co2   1  UNL1       -0.5446
     42 O           4.5529   -1.5084   17.0536 O.co2   1  UNL1       -0.5446
@<TRIPOS>UNITY_ATOM_ATTR
41 1
charge -1
@<TRIPOS>BOND
     1    26    27    1
     2    27    28   ar
     3    28    29   ar
     4    29    33    1
     5    33    34    1
     6    34    35   ar
     7    35    36   ar
     8    36    37   ar
     9    37    40    1
    10    40    41   ar
    11    40    42   ar
    12    37    38   ar
    13    38    39   ar
    14    29    30   ar
    15    30    31   ar
    16    31    32   ar
    17    32    25    1
    18    25     1    1
    19     1     2    1
    20     2     3    1
    21     3     4    1
    22     4     7    1
    23     7     8   am
    24     8     9    2
    25     8    10   am
    26    10    13    1
    27    13    14    1
    28    14    15    1
    29    15    16    1
    30    16    17    1
    31    17    18    1
    32    10    11    1
    33    11    12    1
    34    12    19    1
    35    19    20   ar
    36    20    21   ar
    37    21    22   ar
    38    22    23   ar
    39    23    24   ar
    40     4     5    1
    41     5     6    1
    42    32    27   ar
    43     6     1    1
    44    39    34   ar
    45    12     7    1
    46    24    19   ar
    47    18    13    1
@<TRIPOS>MOLECULE
*****
 42 47 0 0 0
SMALL
GASTEIGER

@<TRIPOS>ATOM
      1 N           6.1937   -0.7348   28.3742 N.3     1  UNL1       -0.2688
      2 C           5.4046   -1.5458   29.3590 C.3     1  UNL1        0.0741
      3 C           4.4670   -0.8645   30.3112 C.3     1  UNL1        0.0372
      4 C           4.3185    0.6279   30.2786 C.3     1  UNL1        0.0799
      5 C           5.1075    1.4387   29.2938 C.3     1  UNL1        0.0372
      6 C           6.0451    0.7574   28.3416 C.3     1  UNL1        0.0741
      7 N           3.3809    1.3092   31.2307 N.am    1  UNL1       -0.2618
      8 C           3.6880    1.6921   32.6481 C.2     1  UNL1        0.3074
      9 O           4.9867    1.4609   33.3622 O.2     1  UNL1       -0.2523
     10 N           2.4685    2.3468   33.2261 N.am    1  UNL1       -0.2635
     11 C           1.4076    2.3686   32.1659 C.3     1  UNL1        0.1192
     12 C           1.9715    1.7273   30.9327 C.3     1  UNL1        0.1191
     13 C           2.3335    2.8852   34.6196 C.3     1  UNL1        0.0819
     14 C           2.8477    2.0909   35.7836 C.3     1  UNL1        0.0520
     15 C           2.7128    2.6293   37.1771 C.3     1  UNL1        0.1439
     16 O           2.0637    3.9620   37.4066 O.3     1  UNL1       -0.3537
     17 C           1.5496    4.7563   36.2427 C.3     1  UNL1        0.1439
     18 C           1.6845    4.2178   34.8492 C.3     1  UNL1        0.0520
     19 C           1.2522    1.5374   29.6302 C.ar    1  UNL1       -0.0026
     20 C           0.3136    0.3807   29.4534 C.ar    1  UNL1       -0.0026
     21 C          -0.4057    0.1909   28.1508 C.ar    1  UNL1       -0.0003
     22 C          -0.1863    1.1576   27.0251 C.ar    1  UNL1       -0.0000
     23 C           0.7523    2.3142   27.2019 C.ar    1  UNL1       -0.0003
     24 C           1.4715    2.5041   28.5044 C.ar    1  UNL1       -0.0026
     25 C           7.1313   -1.4162   27.4220 C.3     1  UNL1        0.1003
     26 C           7.6285   -4.3314   26.9178 C.3     1  UNL1        0.0519
     27 C           6.8464   -3.5216   25.9266 C.ar    1  UNL1        0.0598
     28 N           6.3128   -4.1694   24.6834 N.ar    1  UNL1       -0.2160
     29 C           5.5307   -3.3595   23.6922 C.ar    1  UNL1        0.2293
     30 C           5.2821   -1.9019   23.9443 C.ar    1  UNL1        0.0578
     31 C           5.8156   -1.2542   25.1875 C.ar    1  UNL1        0.0031
     32 C           6.5978   -2.0640   26.1787 C.ar    1  UNL1        0.0077
     33 O           4.9972   -4.0074   22.4489 O.3     1  UNL1       -0.4361
     34 C           5.0447   -3.2738   21.1414 C.ar    1  UNL1        0.1472
     35 C           3.8561   -2.4826   20.6817 C.ar    1  UNL1        0.0376
     36 C           3.9036   -1.7490   19.3741 C.ar    1  UNL1        0.0043
     37 C           5.1398   -1.8066   18.5264 C.ar    1  UNL1        0.0142
     38 C           6.3284   -2.5977   18.9862 C.ar    1  UNL1        0.0043
     39 C           6.2808   -3.3313   20.2937 C.ar    1  UNL1        0.0376
     40 C           5.1874   -1.0730   17.2189 C.2     1  UNL1        0.0729
     41 O           6.4523   -0.3928   16.7861 O.co2   1  UNL1       -0.5446
     42 O           3.9700   -1.0197   16.3441 O.co2   1  UNL1       -0.5446
@<TRIPOS>UNITY_ATOM_ATTR
41 1
charge -1
@<TRIPOS>BOND
     1    26    27    1
     2    27    28   ar
     3    28    29   ar
     4    29    33    1
     5    33    34    1
     6    34    35   ar
     7    35    36   ar
     8    36    37   ar
     9    37    40    1
    10    40    41   ar
    11    40    42   ar
    12    37    38   ar
    13    38    39   ar
    14    29    30   ar
    15    30    31   ar
    16    31    32   ar
    17    32    25    1
    18    25     1    1
    19     1     2    1
    20     2     3    1
    21     3     4    1
    22     4     7    1
    23     7     8   am
    24     8     9    2
    25     8    10   am
    26    10    13    1
    27    13    14    1
    28    14    15    1
    29    15    16    1
    30    16    17    1
    31    17    18    1
    32    10    11    1
    33    11    12    1
    34    12    19    1
    35    19    20   ar
    36    20    21   ar
    37    21    22   ar
    38    22    23   ar
    39    23    24   ar
    40     4     5    1
    41     5     6    1
    42    32    27   ar
    43     6     1    1
    44    39    34   ar
    45    12     7    1
    46    24    19   ar
    47    18    13    1
