@<TRIPOS>MOLECULE
*****
 16 17 0 0 0
SMALL
GASTEIGER

@<TRIPOS>ATOM
      1 C          -5.2243  -15.1692   26.2085 C.3     1  UNL1        0.0319
      2 C          -6.4106  -15.5231   25.3616 C.ar    1  UNL1       -0.0113
      3 C          -6.2267  -15.8338   23.9057 C.ar    1  UNL1       -0.0037
      4 C          -7.4131  -16.1876   23.0586 C.ar    1  UNL1       -0.0045
      5 C          -8.7832  -16.2308   23.6676 C.ar    1  UNL1       -0.0200
      6 C          -8.9671  -15.9201   25.1235 C.ar    1  UNL1        0.0069
      7 C          -7.7808  -15.5662   25.9705 C.ar    1  UNL1        0.0534
      8 CL         -7.9646  -15.2555   27.4264 Cl      1  UNL1       -0.0826
      9 C          -9.9696  -16.5846   22.8206 C.3     1  UNL1        0.0424
     10 C         -11.0360  -17.3924   23.4993 C.3     1  UNL1        0.0315
     11 C         -12.3289  -17.8990   22.9319 C.2     1  UNL1       -0.0289
     12 C         -12.8747  -17.7229   21.5460 C.2     1  UNL1       -0.0136
     13 C         -12.2626  -16.9968   20.3849 C.3     1  UNL1        0.0950
     14 N         -10.9533  -16.2674   20.3231 N.3     1  UNL1       -0.2935
     15 C          -9.9329  -16.0840   21.4072 C.3     1  UNL1        0.0735
     16 H         -11.2023  -15.3187   20.0434 H       1  UNL1        0.1236
@<TRIPOS>BOND
     1     1     2    1
     2     2     3   ar
     3     3     4   ar
     4     4     5   ar
     5     5     9    1
     6     9    10    1
     7    10    11    1
     8    11    12    2
     9    12    13    1
    10    13    14    1
    11    14    15    1
    12     5     6   ar
    13     6     7   ar
    14     7     8    1
    15     7     2   ar
    16    15     9    1
    17    14    16    1
@<TRIPOS>MOLECULE
*****
 16 17 0 0 0
SMALL
GASTEIGER

@<TRIPOS>ATOM
      1 C          -2.0781  -19.7144   21.1845 C.3     1  UNL1        0.0319
      2 C          -3.5743  -19.6282   21.2462 C.ar    1  UNL1       -0.0113
      3 C          -4.4110  -20.4033   20.2720 C.ar    1  UNL1       -0.0037
      4 C          -5.9074  -20.3171   20.3338 C.ar    1  UNL1       -0.0045
      5 C          -6.5668  -19.4559   21.3698 C.ar    1  UNL1       -0.0200
      6 C          -5.7301  -18.6809   22.3441 C.ar    1  UNL1        0.0069
      7 C          -4.2338  -18.7670   22.2823 C.ar    1  UNL1        0.0534
      8 CL         -3.3971  -17.9919   23.2566 Cl      1  UNL1       -0.0826
      9 C          -8.0631  -19.3697   21.4317 C.3     1  UNL1        0.0424
     10 C          -8.7707  -19.3800   20.1090 C.3     1  UNL1        0.0315
     11 C         -10.2440  -19.3077   19.8360 C.2     1  UNL1       -0.0289
     12 C         -11.3732  -19.2073   20.8181 C.2     1  UNL1       -0.0136
     13 C         -11.3084  -19.1544   22.3157 C.3     1  UNL1        0.0950
     14 N         -10.0981  -19.1888   23.2012 N.3     1  UNL1       -0.2935
     15 C          -8.6538  -19.2846   22.8077 C.3     1  UNL1        0.0735
     16 H         -10.2506  -19.9919   23.8112 H       1  UNL1        0.1236
@<TRIPOS>BOND
     1     1     2    1
     2     2     3   ar
     3     3     4   ar
     4     4     5   ar
     5     5     9    1
     6     9    10    1
     7    10    11    1
     8    11    12    2
     9    12    13    1
    10    13    14    1
    11    14    15    1
    12     5     6   ar
    13     6     7   ar
    14     7     8    1
    15     7     2   ar
    16    15     9    1
    17    14    16    1
@<TRIPOS>MOLECULE
*****
 16 17 0 0 0
SMALL
GASTEIGER

@<TRIPOS>ATOM
      1 C         -12.3101  -18.5099   24.0336 C.3     1  UNL1        0.0319
      2 C         -10.9194  -18.6966   23.5035 C.ar    1  UNL1       -0.0113
      3 C         -10.1961  -19.9901   23.7346 C.ar    1  UNL1       -0.0037
      4 C          -8.8053  -20.1768   23.2044 C.ar    1  UNL1       -0.0045
      5 C          -8.1380  -19.0700   22.4431 C.ar    1  UNL1       -0.0200
      6 C          -8.8614  -17.7764   22.2120 C.ar    1  UNL1        0.0069
      7 C         -10.2521  -17.5897   22.7422 C.ar    1  UNL1        0.0534
      8 CL        -10.9755  -16.2961   22.5110 Cl      1  UNL1       -0.0826
      9 C          -6.7473  -19.2566   21.9129 C.3     1  UNL1        0.0424
     10 C          -6.5738  -20.3649   20.9171 C.3     1  UNL1        0.0315
     11 C          -5.3241  -20.8006   20.2110 C.2     1  UNL1       -0.0289
     12 C          -3.9394  -20.2357   20.3264 C.2     1  UNL1       -0.0136
     13 C          -3.4623  -19.0955   21.1763 C.3     1  UNL1        0.0950
     14 N          -4.2521  -18.2387   22.1208 N.3     1  UNL1       -0.2935
     15 C          -5.7141  -18.3104   22.4486 C.3     1  UNL1        0.0735
     16 H          -4.1130  -17.2874   21.7799 H       1  UNL1        0.1236
@<TRIPOS>BOND
     1     1     2    1
     2     2     3   ar
     3     3     4   ar
     4     4     5   ar
     5     5     9    1
     6     9    10    1
     7    10    11    1
     8    11    12    2
     9    12    13    1
    10    13    14    1
    11    14    15    1
    12     5     6   ar
    13     6     7   ar
    14     7     8    1
    15     7     2   ar
    16    15     9    1
    17    14    16    1
@<TRIPOS>MOLECULE
*****
 16 17 0 0 0
SMALL
GASTEIGER

@<TRIPOS>ATOM
      1 C         -13.6980  -17.8452   23.5468 C.3     1  UNL1        0.0319
      2 C         -12.2202  -17.9953   23.3386 C.ar    1  UNL1       -0.0113
      3 C         -11.3795  -18.6648   24.3850 C.ar    1  UNL1       -0.0037
      4 C          -9.9016  -18.8149   24.1768 C.ar    1  UNL1       -0.0045
      5 C          -9.2644  -18.2956   22.9221 C.ar    1  UNL1       -0.0200
      6 C         -10.1051  -17.6261   21.8757 C.ar    1  UNL1        0.0069
      7 C         -11.5830  -17.4759   22.0838 C.ar    1  UNL1        0.0534
      8 CL        -12.4236  -16.8065   21.0374 Cl      1  UNL1       -0.0826
      9 C          -7.7866  -18.4457   22.7138 C.3     1  UNL1        0.0424
     10 C          -7.3327  -19.7848   22.2129 C.3     1  UNL1        0.0315
     11 C          -5.9380  -20.2458   21.9084 C.2     1  UNL1       -0.0289
     12 C          -4.6531  -19.4816   22.0297 C.2     1  UNL1       -0.0136
     13 C          -4.4452  -18.0677   22.4853 C.3     1  UNL1        0.0950
     14 N          -5.4710  -17.0687   22.9322 N.3     1  UNL1       -0.2935
     15 C          -6.9580  -17.2370   23.0339 C.3     1  UNL1        0.0735
     16 H          -5.3460  -16.2754   22.3034 H       1  UNL1        0.1236
@<TRIPOS>BOND
     1     1     2    1
     2     2     3   ar
     3     3     4   ar
     4     4     5   ar
     5     5     9    1
     6     9    10    1
     7    10    11    1
     8    11    12    2
     9    12    13    1
    10    13    14    1
    11    14    15    1
    12     5     6   ar
    13     6     7   ar
    14     7     8    1
    15     7     2   ar
    16    15     9    1
    17    14    16    1
@<TRIPOS>MOLECULE
*****
 16 17 0 0 0
SMALL
GASTEIGER

@<TRIPOS>ATOM
      1 C         -11.7598  -17.5010   22.9497 C.3     1  UNL1        0.0319
      2 C         -10.3324  -17.8605   22.6615 C.ar    1  UNL1       -0.0113
      3 C          -9.2196  -17.0810   23.2971 C.ar    1  UNL1       -0.0037
      4 C          -7.7921  -17.4406   23.0089 C.ar    1  UNL1       -0.0045
      5 C          -7.4775  -18.5796   22.0850 C.ar    1  UNL1       -0.0200
      6 C          -8.5903  -19.3591   21.4494 C.ar    1  UNL1        0.0069
      7 C         -10.0178  -18.9996   21.7376 C.ar    1  UNL1        0.0534
      8 CL        -11.1306  -19.7791   21.1020 Cl      1  UNL1       -0.0826
      9 C          -6.0501  -18.9392   21.7968 C.3     1  UNL1        0.0424
     10 C          -5.0243  -18.2865   22.6755 C.3     1  UNL1        0.0315
     11 C          -3.5322  -18.4374   22.6423 C.2     1  UNL1       -0.0289
     12 C          -2.6975  -19.2781   21.7225 C.2     1  UNL1       -0.0136
     13 C          -3.1485  -20.1757   20.6084 C.3     1  UNL1        0.0950
     14 N          -4.5457  -20.4542   20.1392 N.3     1  UNL1       -0.2935
     15 C          -5.8370  -19.9038   20.6681 C.3     1  UNL1        0.0735
     16 H          -4.6461  -21.4658   20.2219 H       1  UNL1        0.1236
@<TRIPOS>BOND
     1     1     2    1
     2     2     3   ar
     3     3     4   ar
     4     4     5   ar
     5     5     9    1
     6     9    10    1
     7    10    11    1
     8    11    12    2
     9    12    13    1
    10    13    14    1
    11    14    15    1
    12     5     6   ar
    13     6     7   ar
    14     7     8    1
    15     7     2   ar
    16    15     9    1
    17    14    16    1
@<TRIPOS>MOLECULE
*****
 16 17 0 0 0
SMALL
GASTEIGER

@<TRIPOS>ATOM
      1 C          -9.9887   -4.2074   18.9817 C.3     1  UNL1        0.0319
      2 C         -11.1900   -5.1054   18.9781 C.ar    1  UNL1       -0.0113
      3 C         -12.5367   -4.5581   19.3483 C.ar    1  UNL1       -0.0037
      4 C         -13.7381   -5.4563   19.3448 C.ar    1  UNL1       -0.0045
      5 C         -13.5929   -6.9017   18.9711 C.ar    1  UNL1       -0.0200
      6 C         -12.2463   -7.4490   18.6009 C.ar    1  UNL1        0.0069
      7 C         -11.0448   -6.5509   18.6044 C.ar    1  UNL1        0.0534
      8 CL         -9.6982   -7.0982   18.2342 Cl      1  UNL1       -0.0826
      9 C         -14.7943   -7.7998   18.9675 C.3     1  UNL1        0.0424
     10 C         -16.0459   -7.2148   19.5518 C.3     1  UNL1        0.0315
     11 C         -17.3976   -7.8497   19.6931 C.2     1  UNL1       -0.0289
     12 C         -17.8314   -9.2263   19.2849 C.2     1  UNL1       -0.0136
     13 C         -17.0209  -10.3081   18.6347 C.3     1  UNL1        0.0950
     14 N         -15.5762  -10.2804   18.2320 N.3     1  UNL1       -0.2935
     15 C         -14.5853   -9.1640   18.3802 C.3     1  UNL1        0.0735
     16 H         -15.5856  -10.4827   17.2323 H       1  UNL1        0.1236
@<TRIPOS>BOND
     1     1     2    1
     2     2     3   ar
     3     3     4   ar
     4     4     5   ar
     5     5     9    1
     6     9    10    1
     7    10    11    1
     8    11    12    2
     9    12    13    1
    10    13    14    1
    11    14    15    1
    12     5     6   ar
    13     6     7   ar
    14     7     8    1
    15     7     2   ar
    16    15     9    1
    17    14    16    1
@<TRIPOS>MOLECULE
*****
 16 17 0 0 0
SMALL
GASTEIGER

@<TRIPOS>ATOM
      1 C         -18.7172   -7.3226   19.7145 C.3     1  UNL1        0.0319
      2 C         -17.2703   -6.9548   19.5694 C.ar    1  UNL1       -0.0113
      3 C         -16.8433   -5.5232   19.7040 C.ar    1  UNL1       -0.0037
      4 C         -15.3963   -5.1553   19.5589 C.ar    1  UNL1       -0.0045
      5 C         -14.3764   -6.2191   19.2792 C.ar    1  UNL1       -0.0200
      6 C         -14.8035   -7.6507   19.1445 C.ar    1  UNL1        0.0069
      7 C         -16.2504   -8.0186   19.2896 C.ar    1  UNL1        0.0534
      8 CL        -16.6775   -9.4502   19.1550 Cl      1  UNL1       -0.0826
      9 C         -12.9295   -5.8513   19.1340 C.3     1  UNL1        0.0424
     10 C         -11.9974   -6.9856   18.8263 C.3     1  UNL1        0.0315
     11 C         -10.5115   -6.9466   18.6244 C.2     1  UNL1       -0.0289
     12 C          -9.5909   -5.7639   18.6802 C.2     1  UNL1       -0.0136
     13 C          -9.9285   -4.3278   18.9518 C.3     1  UNL1        0.0950
     14 N         -11.2704   -3.7199   19.2346 N.3     1  UNL1       -0.2935
     15 C         -12.6059   -4.3980   19.3157 C.3     1  UNL1        0.0735
     16 H         -11.3873   -3.0108   18.5108 H       1  UNL1        0.1236
@<TRIPOS>BOND
     1     1     2    1
     2     2     3   ar
     3     3     4   ar
     4     4     5   ar
     5     5     9    1
     6     9    10    1
     7    10    11    1
     8    11    12    2
     9    12    13    1
    10    13    14    1
    11    14    15    1
    12     5     6   ar
    13     6     7   ar
    14     7     8    1
    15     7     2   ar
    16    15     9    1
    17    14    16    1
@<TRIPOS>MOLECULE
*****
 16 17 0 0 0
SMALL
GASTEIGER

@<TRIPOS>ATOM
      1 C         -20.1031   -9.0786   20.0136 C.3     1  UNL1        0.0319
      2 C         -18.7063   -8.5799   19.7895 C.ar    1  UNL1       -0.0113
      3 C         -17.5707   -9.5538   19.6805 C.ar    1  UNL1       -0.0037
      4 C         -16.1738   -9.0551   19.4564 C.ar    1  UNL1       -0.0045
      5 C         -15.9127   -7.5826   19.3414 C.ar    1  UNL1       -0.0200
      6 C         -17.0483   -6.6087   19.4505 C.ar    1  UNL1        0.0069
      7 C         -18.4451   -7.1073   19.6745 C.ar    1  UNL1        0.0534
      8 CL        -19.5807   -6.1334   19.7836 Cl      1  UNL1       -0.0826
      9 C         -14.5159   -7.0838   19.1174 C.3     1  UNL1        0.0424
     10 C         -14.2022   -5.7404   19.7065 C.3     1  UNL1        0.0315
     11 C         -12.9126   -4.9758   19.6576 C.2     1  UNL1       -0.0289
     12 C         -11.6183   -5.3657   19.0075 C.2     1  UNL1       -0.0136
     13 C         -11.2938   -6.6164   18.2457 C.3     1  UNL1        0.0950
     14 N         -12.1835   -7.7862   17.9459 N.3     1  UNL1       -0.2935
     15 C         -13.6175   -7.9942   18.3339 C.3     1  UNL1        0.0735
     16 H         -11.6929   -8.5883   18.3414 H       1  UNL1        0.1236
@<TRIPOS>BOND
     1     1     2    1
     2     2     3   ar
     3     3     4   ar
     4     4     5   ar
     5     5     9    1
     6     9    10    1
     7    10    11    1
     8    11    12    2
     9    12    13    1
    10    13    14    1
    11    14    15    1
    12     5     6   ar
    13     6     7   ar
    14     7     8    1
    15     7     2   ar
    16    15     9    1
    17    14    16    1
@<TRIPOS>MOLECULE
*****
 16 17 0 0 0
SMALL
GASTEIGER

@<TRIPOS>ATOM
      1 C          -1.0331    2.8568   20.7864 C.3     1  UNL1        0.0319
      2 C           0.0170    1.8338   20.4693 C.ar    1  UNL1       -0.0113
      3 C           0.5059    0.9040   21.5401 C.ar    1  UNL1       -0.0037
      4 C           1.5561   -0.1191   21.2230 C.ar    1  UNL1       -0.0045
      5 C           2.1173   -0.2124   19.8351 C.ar    1  UNL1       -0.0200
      6 C           1.6285    0.7174   18.7643 C.ar    1  UNL1        0.0069
      7 C           0.5783    1.7405   19.0814 C.ar    1  UNL1        0.0534
      8 CL          0.0895    2.6702   18.0106 Cl      1  UNL1       -0.0826
      9 C           3.1675   -1.2354   19.5179 C.3     1  UNL1        0.0424
     10 C           3.5339   -2.1613   20.6399 C.3     1  UNL1        0.0315
     11 C           4.5357   -3.2778   20.6417 C.2     1  UNL1       -0.0289
     12 C           5.4184   -3.7440   19.5223 C.2     1  UNL1       -0.0136
     13 C           5.5175   -3.2091   18.1244 C.3     1  UNL1        0.0950
     14 N           4.7582   -2.0757   17.5008 N.3     1  UNL1       -0.2935
     15 C           3.7124   -1.1973   18.1210 C.3     1  UNL1        0.0735
     16 H           4.2958   -2.4920   16.6926 H       1  UNL1        0.1236
@<TRIPOS>BOND
     1     1     2    1
     2     2     3   ar
     3     3     4   ar
     4     4     5   ar
     5     5     9    1
     6     9    10    1
     7    10    11    1
     8    11    12    2
     9    12    13    1
    10    13    14    1
    11    14    15    1
    12     5     6   ar
    13     6     7   ar
    14     7     8    1
    15     7     2   ar
    16    15     9    1
    17    14    16    1
