@<TRIPOS>MOLECULE
*****
 28 31 0 0 0
SMALL
GASTEIGER

@<TRIPOS>ATOM
      1 C          -6.0267  -18.7505   21.0157 C.ar    1  UNL1        0.0506
      2 C          -5.8540  -17.9158   22.2499 C.ar    1  UNL1        0.1522
      3 O          -4.4787  -17.5306   22.7085 O.3     1  UNL1       -0.5039
      4 C          -7.0566  -17.4662   23.0256 C.ar    1  UNL1        0.1148
      5 N          -8.4319  -17.8513   22.5670 N.ar    1  UNL1       -0.2423
      6 C          -8.6045  -18.6861   21.3327 C.ar    1  UNL1        0.0815
      7 C          -9.9797  -19.0713   20.8741 C.ar    1  UNL1        0.0177
      8 C         -10.1524  -19.9060   19.6398 C.ar    1  UNL1        0.0015
      9 C          -8.9498  -20.3555   18.8642 C.ar    1  UNL1        0.0001
     10 C          -7.5746  -19.9704   19.3228 C.ar    1  UNL1        0.0016
     11 C          -7.4019  -19.1357   20.5571 C.ar    1  UNL1        0.0217
     12 H          -3.7275  -17.8114   22.2240 H       1  UNL1        0.2923
     13 C          -6.8840  -16.6314   24.2598 C.ar    1  UNL1        0.0207
     14 C          -8.0437  -16.4127   25.1857 C.ar    1  UNL1        0.0025
     15 C          -7.8710  -15.5779   26.4199 C.ar    1  UNL1        0.0114
     16 C          -6.5386  -14.9619   26.7284 C.ar    1  UNL1        0.0577
     17 CL         -6.3659  -14.1272   27.9626 Cl      1  UNL1       -0.0822
     18 C          -5.3788  -15.1807   25.8026 C.ar    1  UNL1        0.0114
     19 C          -5.5515  -16.0154   24.5683 C.ar    1  UNL1        0.0025
     20 C         -11.1824  -18.6216   21.6498 C.ar    1  UNL1        0.0014
     21 C         -11.3585  -19.0512   23.0761 C.ar    1  UNL1        0.0000
     22 C         -12.5611  -18.6016   23.8518 C.ar    1  UNL1        0.0000
     23 C         -13.5876  -17.7224   23.2011 C.ar    1  UNL1        0.0000
     24 C         -13.4114  -17.2929   21.7747 C.ar    1  UNL1        0.0000
     25 C         -12.2088  -17.7425   20.9991 C.ar    1  UNL1        0.0000
     26 O          -4.4707  -20.6567   20.1818 O.co2   1  UNL1       -0.5445
     27 C          -4.8241  -19.2001   20.2401 C.2     1  UNL1        0.0759
     28 O          -3.9748  -18.1930   19.5228 O.co2   1  UNL1       -0.5445
@<TRIPOS>UNITY_ATOM_ATTR
26 1
charge -1
@<TRIPOS>BOND
     1    26    27   ar
     2    27    28   ar
     3    27     1    1
     4     1     2   ar
     5     2     3    1
     6     2     4   ar
     7     4    13    1
     8    13    14   ar
     9    14    15   ar
    10    15    16   ar
    11    16    17    1
    12    16    18   ar
    13    18    19   ar
    14     4     5   ar
    15     5     6   ar
    16     6     7   ar
    17     7    20    1
    18    20    21   ar
    19    21    22   ar
    20    22    23   ar
    21    23    24   ar
    22    24    25   ar
    23     7     8   ar
    24     8     9   ar
    25     9    10   ar
    26    10    11   ar
    27    11     1   ar
    28    19    13   ar
    29    11     6   ar
    30    25    20   ar
    31     3    12    1
@<TRIPOS>MOLECULE
*****
 28 31 0 0 0
SMALL
GASTEIGER

@<TRIPOS>ATOM
      1 C          -8.7829  -19.0641   20.3653 C.ar    1  UNL1        0.0506
      2 C          -7.2976  -19.1578   20.1782 C.ar    1  UNL1        0.1522
      3 O          -6.7355  -19.8703   18.9839 O.3     1  UNL1       -0.5039
      4 C          -6.3742  -18.5390   21.1855 C.ar    1  UNL1        0.1148
      5 N          -6.9363  -17.8265   22.3799 N.ar    1  UNL1       -0.2423
      6 C          -8.4217  -17.7328   22.5669 C.ar    1  UNL1        0.0815
      7 C          -8.9837  -17.0203   23.7612 C.ar    1  UNL1        0.0177
      8 C         -10.4690  -16.9266   23.9483 C.ar    1  UNL1        0.0015
      9 C         -11.3923  -17.5454   22.9410 C.ar    1  UNL1        0.0001
     10 C         -10.8302  -18.2579   21.7467 C.ar    1  UNL1        0.0016
     11 C          -9.3449  -18.3516   21.5596 C.ar    1  UNL1        0.0217
     12 H          -7.3123  -20.2568   18.3546 H       1  UNL1        0.2923
     13 C          -4.8889  -18.6327   20.9985 C.ar    1  UNL1        0.0207
     14 C          -4.2989  -18.5391   19.6226 C.ar    1  UNL1        0.0025
     15 C          -2.8135  -18.6329   19.4356 C.ar    1  UNL1        0.0114
     16 C          -1.9182  -18.8202   20.6244 C.ar    1  UNL1        0.0577
     17 CL         -0.4329  -18.9139   20.4373 Cl      1  UNL1       -0.0822
     18 C          -2.5083  -18.9138   22.0003 C.ar    1  UNL1        0.0114
     19 C          -3.9936  -18.8201   22.1873 C.ar    1  UNL1        0.0025
     20 C          -8.0604  -16.4015   24.7685 C.ar    1  UNL1        0.0014
     21 C          -6.7690  -15.7830   24.3217 C.ar    1  UNL1        0.0000
     22 C          -5.8457  -15.1642   25.3290 C.ar    1  UNL1        0.0000
     23 C          -6.2138  -15.1640   26.7831 C.ar    1  UNL1        0.0000
     24 C          -7.5052  -15.7826   27.2300 C.ar    1  UNL1        0.0000
     25 C          -8.4285  -16.4013   26.2227 C.ar    1  UNL1        0.0000
     26 O          -9.2267  -20.8129   18.4958 O.co2   1  UNL1       -0.5445
     27 C          -9.7061  -19.6829   19.3580 C.2     1  UNL1        0.0759
     28 O         -11.1089  -19.1717   19.2128 O.co2   1  UNL1       -0.5445
@<TRIPOS>UNITY_ATOM_ATTR
26 1
charge -1
@<TRIPOS>BOND
     1    26    27   ar
     2    27    28   ar
     3    27     1    1
     4     1     2   ar
     5     2     3    1
     6     2     4   ar
     7     4    13    1
     8    13    14   ar
     9    14    15   ar
    10    15    16   ar
    11    16    17    1
    12    16    18   ar
    13    18    19   ar
    14     4     5   ar
    15     5     6   ar
    16     6     7   ar
    17     7    20    1
    18    20    21   ar
    19    21    22   ar
    20    22    23   ar
    21    23    24   ar
    22    24    25   ar
    23     7     8   ar
    24     8     9   ar
    25     9    10   ar
    26    10    11   ar
    27    11     1   ar
    28    19    13   ar
    29    11     6   ar
    30    25    20   ar
    31     3    12    1
@<TRIPOS>MOLECULE
*****
 28 31 0 0 0
SMALL
GASTEIGER

@<TRIPOS>ATOM
      1 C           3.6359    1.6053   37.2778 C.ar    1  UNL1        0.0506
      2 C           4.3692    0.5788   36.4662 C.ar    1  UNL1        0.1522
      3 O           5.1701   -0.4876   37.1526 O.3     1  UNL1       -0.5039
      4 C           4.3014    0.6187   34.9683 C.ar    1  UNL1        0.1148
      5 N           3.5005    1.6852   34.2819 N.ar    1  UNL1       -0.2423
      6 C           2.7672    2.7117   35.0935 C.ar    1  UNL1        0.0815
      7 C           1.9663    3.7782   34.4071 C.ar    1  UNL1        0.0177
      8 C           1.2330    4.8047   35.2186 C.ar    1  UNL1        0.0015
      9 C           1.3008    4.7647   36.7166 C.ar    1  UNL1        0.0001
     10 C           2.1017    3.6983   37.4029 C.ar    1  UNL1        0.0016
     11 C           2.8350    2.6718   36.5914 C.ar    1  UNL1        0.0217
     12 H           5.2124   -0.5126   38.0883 H       1  UNL1        0.2923
     13 C           5.0347   -0.4078   34.1567 C.ar    1  UNL1        0.0207
     14 C           6.4673   -0.1792   33.7757 C.ar    1  UNL1        0.0025
     15 C           7.2006   -1.2057   32.9642 C.ar    1  UNL1        0.0114
     16 C           6.5011   -2.4608   32.5336 C.ar    1  UNL1        0.0577
     17 CL          7.2343   -3.4874   31.7221 Cl      1  UNL1       -0.0822
     18 C           5.0684   -2.6895   32.9146 C.ar    1  UNL1        0.0114
     19 C           4.3352   -1.6630   33.7261 C.ar    1  UNL1        0.0025
     20 C           1.8985    3.8181   32.9091 C.ar    1  UNL1        0.0014
     21 C           0.8607    3.0142   32.1836 C.ar    1  UNL1        0.0000
     22 C           0.7930    3.0541   30.6856 C.ar    1  UNL1        0.0000
     23 C           1.7632    3.8980   29.9132 C.ar    1  UNL1        0.0000
     24 C           2.8010    4.7020   30.6389 C.ar    1  UNL1        0.0000
     25 C           2.8687    4.6621   32.1368 C.ar    1  UNL1        0.0000
     26 O           4.7914    2.3044   39.4973 O.co2   1  UNL1       -0.5445
     27 C           3.7037    1.5654   38.7757 C.2     1  UNL1        0.0759
     28 O           2.6837    0.7864   39.5521 O.co2   1  UNL1       -0.5445
@<TRIPOS>UNITY_ATOM_ATTR
26 1
charge -1
@<TRIPOS>BOND
     1    26    27   ar
     2    27    28   ar
     3    27     1    1
     4     1     2   ar
     5     2     3    1
     6     2     4   ar
     7     4    13    1
     8    13    14   ar
     9    14    15   ar
    10    15    16   ar
    11    16    17    1
    12    16    18   ar
    13    18    19   ar
    14     4     5   ar
    15     5     6   ar
    16     6     7   ar
    17     7    20    1
    18    20    21   ar
    19    21    22   ar
    20    22    23   ar
    21    23    24   ar
    22    24    25   ar
    23     7     8   ar
    24     8     9   ar
    25     9    10   ar
    26    10    11   ar
    27    11     1   ar
    28    19    13   ar
    29    11     6   ar
    30    25    20   ar
    31     3    12    1
@<TRIPOS>MOLECULE
*****
 28 31 0 0 0
SMALL
GASTEIGER

@<TRIPOS>ATOM
      1 C           4.0737   -2.1156   21.9894 C.ar    1  UNL1        0.0506
      2 C           3.5131   -1.3190   23.1300 C.ar    1  UNL1        0.1522
      3 O           3.6576   -1.8192   24.5367 O.3     1  UNL1       -0.5039
      4 C           2.8078   -0.0221   22.8639 C.ar    1  UNL1        0.1148
      5 N           2.6633    0.4781   21.4571 N.ar    1  UNL1       -0.2423
      6 C           3.2240   -0.3186   20.3165 C.ar    1  UNL1        0.0815
      7 C           3.0795    0.1816   18.9098 C.ar    1  UNL1        0.0177
      8 C           3.6402   -0.6150   17.7692 C.ar    1  UNL1        0.0015
      9 C           4.3454   -1.9118   18.0353 C.ar    1  UNL1        0.0001
     10 C           4.4899   -2.4120   19.4421 C.ar    1  UNL1        0.0016
     11 C           3.9292   -1.6154   20.5827 C.ar    1  UNL1        0.0217
     12 H           4.0981   -2.6293   24.7030 H       1  UNL1        0.2923
     13 C           2.2471    0.7745   24.0044 C.ar    1  UNL1        0.0207
     14 C           3.1705    1.4962   24.9406 C.ar    1  UNL1        0.0025
     15 C           2.6098    2.2929   26.0813 C.ar    1  UNL1        0.0114
     16 C           1.1257    2.3678   26.2857 C.ar    1  UNL1        0.0577
     17 CL          0.5650    3.1644   27.4263 Cl      1  UNL1       -0.0822
     18 C           0.2023    1.6460   25.3495 C.ar    1  UNL1        0.0114
     19 C           0.7630    0.8494   24.2089 C.ar    1  UNL1        0.0025
     20 C           2.3743    1.4785   18.6437 C.ar    1  UNL1        0.0014
     21 C           0.8871    1.4973   18.4487 C.ar    1  UNL1        0.0000
     22 C           0.1819    2.7942   18.1826 C.ar    1  UNL1        0.0000
     23 C           0.9639    4.0723   18.1114 C.ar    1  UNL1        0.0000
     24 C           2.4511    4.0535   18.3064 C.ar    1  UNL1        0.0000
     25 C           3.1562    2.7566   18.5725 C.ar    1  UNL1        0.0000
     26 O           4.3064   -4.6728   21.5935 O.co2   1  UNL1       -0.5445
     27 C           4.7789   -3.4125   22.2555 C.2     1  UNL1        0.0759
     28 O           5.9567   -3.4490   23.1837 O.co2   1  UNL1       -0.5445
@<TRIPOS>UNITY_ATOM_ATTR
26 1
charge -1
@<TRIPOS>BOND
     1    26    27   ar
     2    27    28   ar
     3    27     1    1
     4     1     2   ar
     5     2     3    1
     6     2     4   ar
     7     4    13    1
     8    13    14   ar
     9    14    15   ar
    10    15    16   ar
    11    16    17    1
    12    16    18   ar
    13    18    19   ar
    14     4     5   ar
    15     5     6   ar
    16     6     7   ar
    17     7    20    1
    18    20    21   ar
    19    21    22   ar
    20    22    23   ar
    21    23    24   ar
    22    24    25   ar
    23     7     8   ar
    24     8     9   ar
    25     9    10   ar
    26    10    11   ar
    27    11     1   ar
    28    19    13   ar
    29    11     6   ar
    30    25    20   ar
    31     3    12    1
@<TRIPOS>MOLECULE
*****
 28 31 0 0 0
SMALL
GASTEIGER

@<TRIPOS>ATOM
      1 C           4.1752   -1.9697   19.4368 C.ar    1  UNL1        0.0506
      2 C           3.5347   -0.7611   18.8213 C.ar    1  UNL1        0.1522
      3 O           3.4412   -0.6396   17.3292 O.3     1  UNL1       -0.5039
      4 C           2.9875    0.3262   19.6981 C.ar    1  UNL1        0.1148
      5 N           3.0810    0.2047   21.1902 N.ar    1  UNL1       -0.2423
      6 C           3.7216   -1.0040   21.8056 C.ar    1  UNL1        0.0815
      7 C           3.8151   -1.1255   23.2978 C.ar    1  UNL1        0.0177
      8 C           4.4557   -2.3341   23.9132 C.ar    1  UNL1        0.0015
      9 C           5.0028   -3.4213   23.0365 C.ar    1  UNL1        0.0001
     10 C           4.9093   -3.2998   21.5443 C.ar    1  UNL1        0.0016
     11 C           4.2687   -2.0912   20.9289 C.ar    1  UNL1        0.0217
     12 H           3.7829   -1.3188   16.7815 H       1  UNL1        0.2923
     13 C           2.3469    1.5348   19.0826 C.ar    1  UNL1        0.0207
     14 C           3.1691    2.7569   18.7990 C.ar    1  UNL1        0.0025
     15 C           2.5284    3.9656   18.1836 C.ar    1  UNL1        0.0114
     16 C           1.0657    3.9521   17.8518 C.ar    1  UNL1        0.0577
     17 CL          0.4251    5.1608   17.2363 Cl      1  UNL1       -0.0822
     18 C           0.2435    2.7300   18.1354 C.ar    1  UNL1        0.0114
     19 C           0.8841    1.5214   18.7508 C.ar    1  UNL1        0.0025
     20 C           3.2680   -0.0382   24.1745 C.ar    1  UNL1        0.0014
     21 C           4.1933    0.7628   25.0417 C.ar    1  UNL1        0.0000
     22 C           3.6461    1.8501   25.9185 C.ar    1  UNL1        0.0000
     23 C           2.1737    2.1362   25.9279 C.ar    1  UNL1        0.0000
     24 C           1.2484    1.3351   25.0606 C.ar    1  UNL1        0.0000
     25 C           1.7955    0.2479   24.1840 C.ar    1  UNL1        0.0000
     26 O           5.8320   -2.7563   17.5965 O.co2   1  UNL1       -0.5445
     27 C           4.7223   -3.0569   18.5600 C.2     1  UNL1        0.0759
     28 O           4.1598   -4.4447   18.6468 O.co2   1  UNL1       -0.5445
@<TRIPOS>UNITY_ATOM_ATTR
26 1
charge -1
@<TRIPOS>BOND
     1    26    27   ar
     2    27    28   ar
     3    27     1    1
     4     1     2   ar
     5     2     3    1
     6     2     4   ar
     7     4    13    1
     8    13    14   ar
     9    14    15   ar
    10    15    16   ar
    11    16    17    1
    12    16    18   ar
    13    18    19   ar
    14     4     5   ar
    15     5     6   ar
    16     6     7   ar
    17     7    20    1
    18    20    21   ar
    19    21    22   ar
    20    22    23   ar
    21    23    24   ar
    22    24    25   ar
    23     7     8   ar
    24     8     9   ar
    25     9    10   ar
    26    10    11   ar
    27    11     1   ar
    28    19    13   ar
    29    11     6   ar
    30    25    20   ar
    31     3    12    1
@<TRIPOS>MOLECULE
*****
 28 31 0 0 0
SMALL
GASTEIGER

@<TRIPOS>ATOM
      1 C           2.9584    2.3229   34.8985 C.ar    1  UNL1        0.0506
      2 C           3.7900    1.1273   34.5396 C.ar    1  UNL1        0.1522
      3 O           4.7225    0.5311   35.5520 O.3     1  UNL1       -0.5039
      4 C           3.6892    0.5278   33.1682 C.ar    1  UNL1        0.1148
      5 N           2.7567    1.1241   32.1558 N.ar    1  UNL1       -0.2423
      6 C           1.9251    2.3198   32.5148 C.ar    1  UNL1        0.0815
      7 C           0.9926    2.9160   31.5023 C.ar    1  UNL1        0.0177
      8 C           0.1609    4.1116   31.8612 C.ar    1  UNL1        0.0015
      9 C           0.2618    4.7110   33.2325 C.ar    1  UNL1        0.0001
     10 C           1.1943    4.1148   34.2449 C.ar    1  UNL1        0.0016
     11 C           2.0259    2.9191   33.8861 C.ar    1  UNL1        0.0217
     12 H           4.7855    0.9055   36.4086 H       1  UNL1        0.2923
     13 C           4.5209   -0.6678   32.8093 C.ar    1  UNL1        0.0207
     14 C           5.6686   -0.5237   31.8543 C.ar    1  UNL1        0.0025
     15 C           6.5002   -1.7194   31.4955 C.ar    1  UNL1        0.0114
     16 C           6.1841   -3.0591   32.0916 C.ar    1  UNL1        0.0577
     17 CL          7.0158   -4.2547   31.7327 Cl      1  UNL1       -0.0822
     18 C           5.0364   -3.2031   33.0465 C.ar    1  UNL1        0.0114
     19 C           4.2048   -2.0075   33.4054 C.ar    1  UNL1        0.0025
     20 C           0.8918    2.3165   30.1310 C.ar    1  UNL1        0.0014
     21 C          -0.0993    1.2233   29.8613 C.ar    1  UNL1        0.0000
     22 C          -0.2001    0.6239   28.4900 C.ar    1  UNL1        0.0000
     23 C           0.6901    1.1177   27.3883 C.ar    1  UNL1        0.0000
     24 C           1.6812    2.2109   27.6580 C.ar    1  UNL1        0.0000
     25 C           1.7820    2.8103   29.0293 C.ar    1  UNL1        0.0000
     26 O           2.0562    2.5570   37.3236 O.co2   1  UNL1       -0.5445
     27 C           3.0593    2.9223   36.2698 C.2     1  UNL1        0.0759
     28 O           4.1631    3.8870   36.5873 O.co2   1  UNL1       -0.5445
@<TRIPOS>UNITY_ATOM_ATTR
26 1
charge -1
@<TRIPOS>BOND
     1    26    27   ar
     2    27    28   ar
     3    27     1    1
     4     1     2   ar
     5     2     3    1
     6     2     4   ar
     7     4    13    1
     8    13    14   ar
     9    14    15   ar
    10    15    16   ar
    11    16    17    1
    12    16    18   ar
    13    18    19   ar
    14     4     5   ar
    15     5     6   ar
    16     6     7   ar
    17     7    20    1
    18    20    21   ar
    19    21    22   ar
    20    22    23   ar
    21    23    24   ar
    22    24    25   ar
    23     7     8   ar
    24     8     9   ar
    25     9    10   ar
    26    10    11   ar
    27    11     1   ar
    28    19    13   ar
    29    11     6   ar
    30    25    20   ar
    31     3    12    1
@<TRIPOS>MOLECULE
*****
 28 31 0 0 0
SMALL
GASTEIGER

@<TRIPOS>ATOM
      1 C           3.7116   -2.4817   20.5882 C.ar    1  UNL1        0.0506
      2 C           4.5659   -2.9473   21.7298 C.ar    1  UNL1        0.1522
      3 O           5.5012   -4.1050   21.5433 O.3     1  UNL1       -0.5039
      4 C           4.4848   -2.2551   23.0582 C.ar    1  UNL1        0.1148
      5 N           3.5494   -1.0974   23.2447 N.ar    1  UNL1       -0.2423
      6 C           2.6951   -0.6318   22.1029 C.ar    1  UNL1        0.0815
      7 C           1.7598    0.5259   22.2895 C.ar    1  UNL1        0.0177
      8 C           0.9056    0.9914   21.1478 C.ar    1  UNL1        0.0015
      9 C           0.9867    0.2992   19.8196 C.ar    1  UNL1        0.0001
     10 C           1.9220   -0.8585   19.6330 C.ar    1  UNL1        0.0016
     11 C           2.7763   -1.3240   20.7747 C.ar    1  UNL1        0.0217
     12 H           5.5519   -4.5374   20.7136 H       1  UNL1        0.2923
     13 C           5.3390   -2.7206   24.1999 C.ar    1  UNL1        0.0207
     14 C           5.4105   -1.9123   25.4614 C.ar    1  UNL1        0.0025
     15 C           6.2648   -2.3779   26.6031 C.ar    1  UNL1        0.0114
     16 C           7.0475   -3.6518   26.4833 C.ar    1  UNL1        0.0577
     17 CL          7.9018   -4.1174   27.6250 Cl      1  UNL1       -0.0822
     18 C           6.9760   -4.4602   25.2218 C.ar    1  UNL1        0.0114
     19 C           6.1218   -3.9947   24.0801 C.ar    1  UNL1        0.0025
     20 C           1.6787    1.2181   23.6178 C.ar    1  UNL1        0.0014
     21 C           2.7374    2.2031   24.0161 C.ar    1  UNL1        0.0000
     22 C           2.6563    2.8953   25.3444 C.ar    1  UNL1        0.0000
     23 C           1.5165    2.6024   26.2744 C.ar    1  UNL1        0.0000
     24 C           0.4577    1.6172   25.8761 C.ar    1  UNL1        0.0000
     25 C           0.5388    0.9251   24.5478 C.ar    1  UNL1        0.0000
     26 O           4.6602   -2.6117   18.1729 O.co2   1  UNL1       -0.5445
     27 C           3.7927   -3.1739   19.2599 C.2     1  UNL1        0.0759
     28 O           3.0064   -4.4283   19.0186 O.co2   1  UNL1       -0.5445
@<TRIPOS>UNITY_ATOM_ATTR
26 1
charge -1
@<TRIPOS>BOND
     1    26    27   ar
     2    27    28   ar
     3    27     1    1
     4     1     2   ar
     5     2     3    1
     6     2     4   ar
     7     4    13    1
     8    13    14   ar
     9    14    15   ar
    10    15    16   ar
    11    16    17    1
    12    16    18   ar
    13    18    19   ar
    14     4     5   ar
    15     5     6   ar
    16     6     7   ar
    17     7    20    1
    18    20    21   ar
    19    21    22   ar
    20    22    23   ar
    21    23    24   ar
    22    24    25   ar
    23     7     8   ar
    24     8     9   ar
    25     9    10   ar
    26    10    11   ar
    27    11     1   ar
    28    19    13   ar
    29    11     6   ar
    30    25    20   ar
    31     3    12    1
@<TRIPOS>MOLECULE
*****
 28 31 0 0 0
SMALL
GASTEIGER

@<TRIPOS>ATOM
      1 C           6.6702   -4.2753   27.4949 C.ar    1  UNL1        0.0506
      2 C           5.9959   -3.0213   27.0229 C.ar    1  UNL1        0.1522
      3 O           5.7904   -2.7869   25.5557 O.3     1  UNL1       -0.5039
      4 C           5.5272   -2.0016   28.0182 C.ar    1  UNL1        0.1148
      5 N           5.7328   -2.2360   29.4855 N.ar    1  UNL1       -0.2423
      6 C           6.4071   -3.4901   29.9574 C.ar    1  UNL1        0.0815
      7 C           6.6126   -3.7245   31.4246 C.ar    1  UNL1        0.0177
      8 C           7.2869   -4.9785   31.8966 C.ar    1  UNL1        0.0015
      9 C           7.7556   -5.9981   30.9013 C.ar    1  UNL1        0.0001
     10 C           7.5500   -5.7637   29.4340 C.ar    1  UNL1        0.0016
     11 C           6.8758   -4.5097   28.9621 C.ar    1  UNL1        0.0217
     12 H           6.0832   -3.4239   24.9339 H       1  UNL1        0.2923
     13 C           4.8530   -0.7476   27.5463 C.ar    1  UNL1        0.0207
     14 C           5.6762    0.4225   27.0956 C.ar    1  UNL1        0.0025
     15 C           5.0019    1.6766   26.6236 C.ar    1  UNL1        0.0114
     16 C           3.5044    1.7605   26.6024 C.ar    1  UNL1        0.0577
     17 CL          2.8301    3.0145   26.1304 Cl      1  UNL1       -0.0822
     18 C           2.6812    0.5904   27.0530 C.ar    1  UNL1        0.0114
     19 C           3.3554   -0.6637   27.5250 C.ar    1  UNL1        0.0025
     20 C           6.1439   -2.7048   32.4200 C.ar    1  UNL1        0.0014
     21 C           4.7555   -2.7878   32.9815 C.ar    1  UNL1        0.0000
     22 C           4.2867   -1.7681   33.9768 C.ar    1  UNL1        0.0000
     23 C           5.2065   -0.6654   34.4105 C.ar    1  UNL1        0.0000
     24 C           6.5950   -0.5825   33.8490 C.ar    1  UNL1        0.0000
     25 C           7.0637   -1.6021   32.8537 C.ar    1  UNL1        0.0000
     26 O           8.2103   -4.9410   25.5112 O.co2   1  UNL1       -0.5445
     27 C           7.1389   -5.2949   26.4996 C.2     1  UNL1        0.0759
     28 O           6.5362   -6.6685   26.4926 O.co2   1  UNL1       -0.5445
@<TRIPOS>UNITY_ATOM_ATTR
26 1
charge -1
@<TRIPOS>BOND
     1    26    27   ar
     2    27    28   ar
     3    27     1    1
     4     1     2   ar
     5     2     3    1
     6     2     4   ar
     7     4    13    1
     8    13    14   ar
     9    14    15   ar
    10    15    16   ar
    11    16    17    1
    12    16    18   ar
    13    18    19   ar
    14     4     5   ar
    15     5     6   ar
    16     6     7   ar
    17     7    20    1
    18    20    21   ar
    19    21    22   ar
    20    22    23   ar
    21    23    24   ar
    22    24    25   ar
    23     7     8   ar
    24     8     9   ar
    25     9    10   ar
    26    10    11   ar
    27    11     1   ar
    28    19    13   ar
    29    11     6   ar
    30    25    20   ar
    31     3    12    1
@<TRIPOS>MOLECULE
*****
 28 31 0 0 0
SMALL
GASTEIGER

@<TRIPOS>ATOM
      1 C           2.0745    0.5377   30.4601 C.ar    1  UNL1        0.0506
      2 C           2.3163    0.8277   31.9118 C.ar    1  UNL1        0.1522
      3 O           1.3057    1.6076   32.6993 O.3     1  UNL1       -0.5039
      4 C           3.5689    0.3378   32.5759 C.ar    1  UNL1        0.1148
      5 N           4.5796   -0.4421   31.7884 N.ar    1  UNL1       -0.2423
      6 C           4.3377   -0.7321   30.3366 C.ar    1  UNL1        0.0815
      7 C           5.3484   -1.5120   29.5491 C.ar    1  UNL1        0.0177
      8 C           5.1066   -1.8020   28.0974 C.ar    1  UNL1        0.0015
      9 C           3.8540   -1.3121   27.4333 C.ar    1  UNL1        0.0001
     10 C           2.8433   -0.5322   28.2209 C.ar    1  UNL1        0.0016
     11 C           3.0852   -0.2422   29.6725 C.ar    1  UNL1        0.0217
     12 H           0.5232    1.9137   32.2845 H       1  UNL1        0.2923
     13 C           3.8108    0.6278   34.0276 C.ar    1  UNL1        0.0207
     14 C           3.4449    1.9668   34.5960 C.ar    1  UNL1        0.0025
     15 C           3.6868    2.2568   36.0478 C.ar    1  UNL1        0.0114
     16 C           4.2945    1.2077   36.9310 C.ar    1  UNL1        0.0577
     17 CL          4.5364    1.4977   38.3827 Cl      1  UNL1       -0.0822
     18 C           4.6604   -0.1313   36.3626 C.ar    1  UNL1        0.0114
     19 C           4.4185   -0.4213   34.9109 C.ar    1  UNL1        0.0025
     20 C           6.6010   -2.0019   30.2133 C.ar    1  UNL1        0.0014
     21 C           7.8455   -1.1654   30.1772 C.ar    1  UNL1        0.0000
     22 C           9.0981   -1.6553   30.8414 C.ar    1  UNL1        0.0000
     23 C           9.1061   -2.9818   31.5416 C.ar    1  UNL1        0.0000
     24 C           7.8615   -3.8184   31.5777 C.ar    1  UNL1        0.0000
     25 C           6.6090   -3.3284   30.9135 C.ar    1  UNL1        0.0000
     26 O           0.7573    2.4252   29.2550 O.co2   1  UNL1       -0.5445
     27 C           0.8220    1.0276   29.7960 C.2     1  UNL1        0.0759
     28 O          -0.3659    0.1200   29.6729 O.co2   1  UNL1       -0.5445
@<TRIPOS>UNITY_ATOM_ATTR
26 1
charge -1
@<TRIPOS>BOND
     1    26    27   ar
     2    27    28   ar
     3    27     1    1
     4     1     2   ar
     5     2     3    1
     6     2     4   ar
     7     4    13    1
     8    13    14   ar
     9    14    15   ar
    10    15    16   ar
    11    16    17    1
    12    16    18   ar
    13    18    19   ar
    14     4     5   ar
    15     5     6   ar
    16     6     7   ar
    17     7    20    1
    18    20    21   ar
    19    21    22   ar
    20    22    23   ar
    21    23    24   ar
    22    24    25   ar
    23     7     8   ar
    24     8     9   ar
    25     9    10   ar
    26    10    11   ar
    27    11     1   ar
    28    19    13   ar
    29    11     6   ar
    30    25    20   ar
    31     3    12    1
