@<TRIPOS>MOLECULE
*****
 31 33 0 0 0
SMALL
GASTEIGER

@<TRIPOS>ATOM
      1 C           7.8067   -4.5268   21.3397 C.ar    1  UNL1        0.2033
      2 N           8.3041   -5.8915   20.9654 N.ar    1  UNL1       -0.0556
      3 O           8.6378   -6.6261   22.2299 O.2     1  UNL1       -0.3324
      4 C           8.3466   -5.7155   23.3857 C.ar    1  UNL1        0.2600
      5 N           7.8329   -4.4180   22.8356 N.ar    1  UNL1       -0.1870
      6 C           5.8980   -3.2084   20.1697 C.ar    1  UNL1       -0.0231
      7 C           5.4525   -2.1400   19.2157 C.ar    1  UNL1       -0.0260
      8 C           6.4702   -1.3216   18.4778 C.ar    1  UNL1       -0.0046
      9 C           7.9333   -1.5715   18.6939 C.ar    1  UNL1       -0.0002
     10 C           8.3788   -2.6399   19.6478 C.ar    1  UNL1        0.0028
     11 C           7.3611   -3.4583   20.3857 C.ar    1  UNL1        0.0349
     12 C           4.4150   -3.5970   22.2672 C.3     1  UNL1        0.0050
     13 C           4.8803   -4.0269   20.9076 C.3     1  UNL1        0.0261
     14 C           3.9893   -1.8901   18.9996 C.3     1  UNL1        0.0264
     15 C           3.3030   -0.7747   19.7309 C.3     1  UNL1        0.0106
     16 C           1.8836   -0.9389   20.1876 C.3     1  UNL1        0.0421
     17 C           0.8305    0.0234   19.7242 C.2     1  UNL1        0.0503
     18 O           0.8758    0.5696   18.3279 O.co2   1  UNL1       -0.5492
     19 O          -0.2679    0.4397   20.6570 O.co2   1  UNL1       -0.5492
     20 C           8.5359   -6.0445   24.8369 C.ar    1  UNL1        0.0569
     21 C           9.1010   -5.0164   25.7715 C.ar    1  UNL1        0.0079
     22 C           9.2902   -5.3454   27.2227 C.ar    1  UNL1        0.0377
     23 C           8.9144   -6.7027   27.7392 C.ar    1  UNL1        0.1479
     24 C           8.3494   -7.7308   26.8046 C.ar    1  UNL1        0.1024
     25 C           8.1601   -7.4018   25.3534 C.ar    1  UNL1        0.0181
     26 C           7.9736   -9.0881   27.3211 C.1     1  UNL1        0.1035
     27 N           7.5979  -10.4452   27.8375 N.1     1  UNL1       -0.1907
     28 O           9.1037   -7.0317   29.1904 O.3     1  UNL1       -0.4785
     29 C           8.4949   -6.1545   30.2439 C.3     1  UNL1        0.1662
     30 C           7.0545   -5.7484   30.1413 C.3     1  UNL1        0.0472
     31 C           9.3264   -5.6833   31.4000 C.3     1  UNL1        0.0472
@<TRIPOS>UNITY_ATOM_ATTR
18 1
charge -1
@<TRIPOS>BOND
     1    12    13    1
     2    13     6    1
     3     6     7   ar
     4     7    14    1
     5    14    15    1
     6    15    16    1
     7    16    17    1
     8    17    18   ar
     9    17    19   ar
    10     7     8   ar
    11     8     9   ar
    12     9    10   ar
    13    10    11   ar
    14    11     1    1
    15     1     2   ar
    16     2     3   ar
    17     3     4   ar
    18     4    20    1
    19    20    21   ar
    20    21    22   ar
    21    22    23   ar
    22    23    28    1
    23    28    29    1
    24    29    30    1
    25    29    31    1
    26    23    24   ar
    27    24    26    1
    28    26    27    3
    29    24    25   ar
    30     4     5   ar
    31    11     6   ar
    32     5     1   ar
    33    25    20   ar
@<TRIPOS>MOLECULE
*****
 31 33 0 0 0
SMALL
GASTEIGER

@<TRIPOS>ATOM
      1 C           7.3255   -3.7332   21.3681 C.ar    1  UNL1        0.2033
      2 N           7.9127   -5.1094   21.2627 N.ar    1  UNL1       -0.0556
      3 O           7.9127   -5.7195   22.6330 O.2     1  UNL1       -0.3324
      4 C           7.3254   -4.7203   23.5853 C.ar    1  UNL1        0.2600
      5 N           6.9626   -3.4927   22.8035 N.ar    1  UNL1       -0.1870
      6 C           5.8536   -2.7692   19.4564 C.ar    1  UNL1       -0.0231
      7 C           5.6629   -1.8030   18.3250 C.ar    1  UNL1       -0.0260
      8 C           6.7532   -0.8346   17.9738 C.ar    1  UNL1       -0.0046
      9 C           8.0343   -0.8324   18.7541 C.ar    1  UNL1       -0.0002
     10 C           8.2250   -1.7985   19.8854 C.ar    1  UNL1        0.0028
     11 C           7.1347   -2.7670   20.2366 C.ar    1  UNL1        0.0349
     12 C           4.6097   -5.0094   19.0271 C.3     1  UNL1        0.0050
     13 C           4.7633   -3.7376   19.8075 C.3     1  UNL1        0.0261
     14 C           4.3818   -1.8053   17.5447 C.3     1  UNL1        0.0264
     15 C           3.7393   -0.5074   17.1541 C.3     1  UNL1        0.0106
     16 C           3.2031    0.4121   18.2111 C.3     1  UNL1        0.0421
     17 C           1.8670    0.1387   18.8355 C.2     1  UNL1        0.0503
     18 O           0.6571    0.9008   18.3821 O.co2   1  UNL1       -0.5492
     19 O           1.7406   -0.8967   19.9134 O.co2   1  UNL1       -0.5492
     20 C           7.1346   -4.9146   25.0604 C.ar    1  UNL1        0.0569
     21 C           7.4185   -6.2490   25.6839 C.ar    1  UNL1        0.0079
     22 C           7.2277   -6.4433   27.1590 C.ar    1  UNL1        0.0377
     23 C           6.7530   -5.3033   28.0105 C.ar    1  UNL1        0.1479
     24 C           6.4692   -3.9689   27.3869 C.ar    1  UNL1        0.1024
     25 C           6.6600   -3.7746   25.9119 C.ar    1  UNL1        0.0181
     26 C           5.9945   -2.8289   28.2384 C.1     1  UNL1        0.1035
     27 N           5.5198   -1.6889   29.0898 N.1     1  UNL1       -0.1907
     28 O           6.5622   -5.4976   29.4855 O.3     1  UNL1       -0.4785
     29 C           7.5767   -4.9591   30.4503 C.3     1  UNL1        0.1662
     30 C           7.1273   -4.2344   31.6845 C.3     1  UNL1        0.0472
     31 C           9.0406   -5.1451   30.1812 C.3     1  UNL1        0.0472
@<TRIPOS>UNITY_ATOM_ATTR
18 1
charge -1
@<TRIPOS>BOND
     1    12    13    1
     2    13     6    1
     3     6     7   ar
     4     7    14    1
     5    14    15    1
     6    15    16    1
     7    16    17    1
     8    17    18   ar
     9    17    19   ar
    10     7     8   ar
    11     8     9   ar
    12     9    10   ar
    13    10    11   ar
    14    11     1    1
    15     1     2   ar
    16     2     3   ar
    17     3     4   ar
    18     4    20    1
    19    20    21   ar
    20    21    22   ar
    21    22    23   ar
    22    23    28    1
    23    28    29    1
    24    29    30    1
    25    29    31    1
    26    23    24   ar
    27    24    26    1
    28    26    27    3
    29    24    25   ar
    30     4     5   ar
    31    11     6   ar
    32     5     1   ar
    33    25    20   ar
@<TRIPOS>MOLECULE
*****
 31 33 0 0 0
SMALL
GASTEIGER

@<TRIPOS>ATOM
      1 C           7.6674   -4.4308   23.2997 C.ar    1  UNL1        0.2033
      2 N           8.5164   -3.2771   22.8547 N.ar    1  UNL1       -0.0556
      3 O           7.6443   -2.3289   22.0863 O.2     1  UNL1       -0.3324
      4 C           6.2562   -2.8967   22.0564 C.ar    1  UNL1        0.2600
      5 N           6.2705   -4.1957   22.8063 N.ar    1  UNL1       -0.1870
      6 C           7.7737   -5.7254   25.5498 C.ar    1  UNL1       -0.0231
      7 C           8.2396   -6.9068   26.3479 C.ar    1  UNL1       -0.0260
      8 C           9.0653   -7.9750   25.6943 C.ar    1  UNL1       -0.0046
      9 C           9.4250   -7.8618   24.2425 C.ar    1  UNL1       -0.0002
     10 C           8.9590   -6.6804   23.4443 C.ar    1  UNL1        0.0028
     11 C           8.1334   -5.6122   24.0980 C.ar    1  UNL1        0.0349
     12 C           7.6119   -3.4367   26.7687 C.3     1  UNL1        0.0050
     13 C           6.9480   -4.6572   26.2034 C.3     1  UNL1        0.0261
     14 C           7.8800   -7.0201   27.7998 C.3     1  UNL1        0.0264
     15 C           8.8884   -6.6659   28.8522 C.3     1  UNL1        0.0106
     16 C           8.6700   -5.4671   29.7271 C.3     1  UNL1        0.0421
     17 C           7.3377   -5.2482   30.3804 C.2     1  UNL1        0.0503
     18 O           6.5191   -4.0415   30.0286 O.co2   1  UNL1       -0.5492
     19 O           6.8240   -6.2360   31.3855 O.co2   1  UNL1       -0.5492
     20 C           5.0633   -2.2746   21.3931 C.ar    1  UNL1        0.0569
     21 C           3.8863   -1.8443   22.2173 C.ar    1  UNL1        0.0079
     22 C           2.6934   -1.2223   21.5540 C.ar    1  UNL1        0.0377
     23 C           2.6776   -1.0305   20.0664 C.ar    1  UNL1        0.1479
     24 C           3.8546   -1.4608   19.2421 C.ar    1  UNL1        0.1024
     25 C           5.0475   -2.0828   19.9054 C.ar    1  UNL1        0.0181
     26 C           3.8387   -1.2690   17.7545 C.1     1  UNL1        0.1035
     27 N           3.8229   -1.0772   16.2670 N.1     1  UNL1       -0.1907
     28 O           1.4847   -0.4084   19.4030 O.3     1  UNL1       -0.4785
     29 C           1.2180    1.0590   19.5628 C.3     1  UNL1        0.1662
     30 C           1.7950    2.0372   18.5828 C.3     1  UNL1        0.0472
     31 C           0.3744    1.5484   20.7025 C.3     1  UNL1        0.0472
@<TRIPOS>UNITY_ATOM_ATTR
18 1
charge -1
@<TRIPOS>BOND
     1    12    13    1
     2    13     6    1
     3     6     7   ar
     4     7    14    1
     5    14    15    1
     6    15    16    1
     7    16    17    1
     8    17    18   ar
     9    17    19   ar
    10     7     8   ar
    11     8     9   ar
    12     9    10   ar
    13    10    11   ar
    14    11     1    1
    15     1     2   ar
    16     2     3   ar
    17     3     4   ar
    18     4    20    1
    19    20    21   ar
    20    21    22   ar
    21    22    23   ar
    22    23    28    1
    23    28    29    1
    24    29    30    1
    25    29    31    1
    26    23    24   ar
    27    24    26    1
    28    26    27    3
    29    24    25   ar
    30     4     5   ar
    31    11     6   ar
    32     5     1   ar
    33    25    20   ar
@<TRIPOS>MOLECULE
*****
 31 33 0 0 0
SMALL
GASTEIGER

@<TRIPOS>ATOM
      1 C           8.0915   -5.3270   23.0668 C.ar    1  UNL1        0.2033
      2 N           9.0711   -5.4039   21.9334 N.ar    1  UNL1       -0.0556
      3 O           8.4940   -4.6528   20.7703 O.2     1  UNL1       -0.3324
      4 C           7.1577   -4.1118   21.1848 C.ar    1  UNL1        0.2600
      5 N           6.9090   -4.5285   22.6041 N.ar    1  UNL1       -0.1870
      6 C           8.6053   -5.0753   25.6012 C.ar    1  UNL1       -0.0231
      7 C           8.7779   -5.6892   26.9588 C.ar    1  UNL1       -0.0260
      8 C           8.6093   -7.1687   27.1399 C.ar    1  UNL1       -0.0046
      9 C           8.2682   -8.0343   25.9633 C.ar    1  UNL1       -0.0002
     10 C           8.0956   -7.4204   24.6057 C.ar    1  UNL1        0.0028
     11 C           8.2641   -5.9409   24.4246 C.ar    1  UNL1        0.0349
     12 C           7.6317   -2.6693   25.7149 C.3     1  UNL1        0.0050
     13 C           8.7738   -3.5959   25.4201 C.3     1  UNL1        0.0261
     14 C           9.1190   -4.8237   28.1355 C.3     1  UNL1        0.0264
     15 C           8.6925   -5.2307   29.5147 C.3     1  UNL1        0.0106
     16 C           7.2836   -4.9848   29.9673 C.3     1  UNL1        0.0421
     17 C           6.9401   -5.0612   31.4254 C.2     1  UNL1        0.0503
     18 O           6.7206   -6.3951   32.0753 O.co2   1  UNL1       -0.5492
     19 O           6.8162   -3.8037   32.2336 O.co2   1  UNL1       -0.5492
     20 C           6.2327   -3.2972   20.3301 C.ar    1  UNL1        0.0569
     21 C           4.7485   -3.4817   20.4443 C.ar    1  UNL1        0.0079
     22 C           3.8234   -2.6671   19.5896 C.ar    1  UNL1        0.0377
     23 C           4.3825   -1.6679   18.6206 C.ar    1  UNL1        0.1479
     24 C           5.8667   -1.4833   18.5063 C.ar    1  UNL1        0.1024
     25 C           6.7918   -2.2979   19.3610 C.ar    1  UNL1        0.0181
     26 C           6.4259   -0.4841   17.5373 C.1     1  UNL1        0.1035
     27 N           6.9850    0.5151   16.5684 N.1     1  UNL1       -0.1907
     28 O           3.4575   -0.8533   17.7658 O.3     1  UNL1       -0.4785
     29 C           2.7521    0.3362   18.3468 C.3     1  UNL1        0.1662
     30 C           1.3776    0.1831   18.9279 C.3     1  UNL1        0.0472
     31 C           3.4209    1.6788   18.3468 C.3     1  UNL1        0.0472
@<TRIPOS>UNITY_ATOM_ATTR
18 1
charge -1
@<TRIPOS>BOND
     1    12    13    1
     2    13     6    1
     3     6     7   ar
     4     7    14    1
     5    14    15    1
     6    15    16    1
     7    16    17    1
     8    17    18   ar
     9    17    19   ar
    10     7     8   ar
    11     8     9   ar
    12     9    10   ar
    13    10    11   ar
    14    11     1    1
    15     1     2   ar
    16     2     3   ar
    17     3     4   ar
    18     4    20    1
    19    20    21   ar
    20    21    22   ar
    21    22    23   ar
    22    23    28    1
    23    28    29    1
    24    29    30    1
    25    29    31    1
    26    23    24   ar
    27    24    26    1
    28    26    27    3
    29    24    25   ar
    30     4     5   ar
    31    11     6   ar
    32     5     1   ar
    33    25    20   ar
@<TRIPOS>MOLECULE
*****
 31 33 0 0 0
SMALL
GASTEIGER

@<TRIPOS>ATOM
      1 C          -1.7753    3.1729   20.2634 C.ar    1  UNL1        0.2033
      2 N          -1.0699    3.9787   19.2132 N.ar    1  UNL1       -0.0556
      3 O           0.1684    3.2337   18.8112 O.2     1  UNL1       -0.3324
      4 C           0.2284    1.9674   19.6131 C.ar    1  UNL1        0.2600
      5 N          -0.9729    1.9298   20.5106 N.ar    1  UNL1       -0.1870
      6 C          -3.0320    4.0992   22.3401 C.ar    1  UNL1       -0.0231
      7 C          -4.3145    4.4711   23.0232 C.ar    1  UNL1       -0.0260
      8 C          -5.6230    4.2884   22.3129 C.ar    1  UNL1       -0.0046
      9 C          -5.6489    3.7340   20.9194 C.ar    1  UNL1       -0.0002
     10 C          -4.3663    3.3621   20.2363 C.ar    1  UNL1        0.0028
     11 C          -3.0579    3.5447   20.9466 C.ar    1  UNL1        0.0349
     12 C          -1.2166    3.2149   23.9749 C.3     1  UNL1        0.0050
     13 C          -1.7235    4.2819   23.0504 C.3     1  UNL1        0.0261
     14 C          -4.2887    5.0256   24.4168 C.3     1  UNL1        0.0264
     15 C          -4.6832    4.1594   25.5761 C.3     1  UNL1        0.0106
     16 C          -4.6898    4.7238   26.9659 C.3     1  UNL1        0.0421
     17 C          -5.6477    5.8207   27.3254 C.2     1  UNL1        0.0503
     18 O          -6.9377    5.9661   26.5739 O.co2   1  UNL1       -0.5492
     19 O          -5.3155    6.7722   28.4364 O.co2   1  UNL1       -0.5492
     20 C           1.3012    0.9222   19.5317 C.ar    1  UNL1        0.0569
     21 C           1.2067   -0.3166   20.3722 C.ar    1  UNL1        0.0079
     22 C           2.2795   -1.3617   20.2908 C.ar    1  UNL1        0.0377
     23 C           3.4469   -1.1681   19.3689 C.ar    1  UNL1        0.1479
     24 C           3.5414    0.0707   18.5284 C.ar    1  UNL1        0.1024
     25 C           2.4686    1.1159   18.6098 C.ar    1  UNL1        0.0181
     26 C           4.7087    0.2643   17.6065 C.1     1  UNL1        0.1035
     27 N           5.8760    0.4580   16.6847 N.1     1  UNL1       -0.1907
     28 O           4.5197   -2.2133   19.2875 O.3     1  UNL1       -0.4785
     29 C           4.3077   -3.5565   19.9205 C.3     1  UNL1        0.1662
     30 C           4.7761   -3.8070   21.3233 C.3     1  UNL1        0.0472
     31 C           3.6272   -4.6494   19.1507 C.3     1  UNL1        0.0472
@<TRIPOS>UNITY_ATOM_ATTR
18 1
charge -1
@<TRIPOS>BOND
     1    12    13    1
     2    13     6    1
     3     6     7   ar
     4     7    14    1
     5    14    15    1
     6    15    16    1
     7    16    17    1
     8    17    18   ar
     9    17    19   ar
    10     7     8   ar
    11     8     9   ar
    12     9    10   ar
    13    10    11   ar
    14    11     1    1
    15     1     2   ar
    16     2     3   ar
    17     3     4   ar
    18     4    20    1
    19    20    21   ar
    20    21    22   ar
    21    22    23   ar
    22    23    28    1
    23    28    29    1
    24    29    30    1
    25    29    31    1
    26    23    24   ar
    27    24    26    1
    28    26    27    3
    29    24    25   ar
    30     4     5   ar
    31    11     6   ar
    32     5     1   ar
    33    25    20   ar
@<TRIPOS>MOLECULE
*****
 31 33 0 0 0
SMALL
GASTEIGER

@<TRIPOS>ATOM
      1 C           4.7648   -1.7432   23.8216 C.ar    1  UNL1        0.2033
      2 N           6.1155   -1.2339   24.2292 N.ar    1  UNL1       -0.0556
      3 O           6.0600   -0.8889   25.6879 O.2     1  UNL1       -0.3324
      4 C           4.6749   -1.1849   26.1819 C.ar    1  UNL1        0.2600
      5 N           3.8745   -1.7129   25.0284 N.ar    1  UNL1       -0.1870
      6 C           3.7005   -1.2513   21.5031 C.ar    1  UNL1       -0.0231
      7 C           3.3089   -1.7103   20.1298 C.ar    1  UNL1       -0.0260
      8 C           3.5899   -3.1202   19.7017 C.ar    1  UNL1       -0.0046
      9 C           4.2625   -4.0711   20.6469 C.ar    1  UNL1       -0.0002
     10 C           4.6541   -3.6121   22.0201 C.ar    1  UNL1        0.0028
     11 C           4.3731   -2.2022   22.4482 C.ar    1  UNL1        0.0349
     12 C           2.1187    0.4948   22.5980 C.3     1  UNL1        0.0050
     13 C           3.4195    0.1586   21.9312 C.3     1  UNL1        0.0261
     14 C           2.6362   -0.7595   19.1846 C.3     1  UNL1        0.0264
     15 C           3.4497   -0.0017   18.1777 C.3     1  UNL1        0.0106
     16 C           4.4269   -0.7291   17.3025 C.3     1  UNL1        0.0421
     17 C           5.8906   -0.7032   17.6296 C.2     1  UNL1        0.0503
     18 O           6.4799    0.4805   18.3379 O.co2   1  UNL1       -0.5492
     19 O           6.7648   -1.8609   17.2485 O.co2   1  UNL1       -0.5492
     20 C           4.1777   -0.9877   27.5832 C.ar    1  UNL1        0.0569
     21 C           5.1151   -1.1549   28.7422 C.ar    1  UNL1        0.0079
     22 C           4.6179   -0.9576   30.1435 C.ar    1  UNL1        0.0377
     23 C           3.1832   -0.5931   30.3859 C.ar    1  UNL1        0.1479
     24 C           2.2457   -0.4259   29.2269 C.ar    1  UNL1        0.1024
     25 C           2.7430   -0.6231   27.8256 C.ar    1  UNL1        0.0181
     26 C           0.8110   -0.0613   29.4693 C.1     1  UNL1        0.1035
     27 N          -0.6236    0.3032   29.7117 N.1     1  UNL1       -0.1907
     28 O           2.6859   -0.3958   31.7872 O.3     1  UNL1       -0.4785
     29 C           3.6574   -0.1162   32.8954 C.3     1  UNL1        0.1662
     30 C           4.1711   -1.2413   33.7442 C.3     1  UNL1        0.0472
     31 C           4.1154    1.2884   33.1548 C.3     1  UNL1        0.0472
@<TRIPOS>UNITY_ATOM_ATTR
18 1
charge -1
@<TRIPOS>BOND
     1    12    13    1
     2    13     6    1
     3     6     7   ar
     4     7    14    1
     5    14    15    1
     6    15    16    1
     7    16    17    1
     8    17    18   ar
     9    17    19   ar
    10     7     8   ar
    11     8     9   ar
    12     9    10   ar
    13    10    11   ar
    14    11     1    1
    15     1     2   ar
    16     2     3   ar
    17     3     4   ar
    18     4    20    1
    19    20    21   ar
    20    21    22   ar
    21    22    23   ar
    22    23    28    1
    23    28    29    1
    24    29    30    1
    25    29    31    1
    26    23    24   ar
    27    24    26    1
    28    26    27    3
    29    24    25   ar
    30     4     5   ar
    31    11     6   ar
    32     5     1   ar
    33    25    20   ar
@<TRIPOS>MOLECULE
*****
 31 33 0 0 0
SMALL
GASTEIGER

@<TRIPOS>ATOM
      1 C           2.5735    0.8201   23.6068 C.ar    1  UNL1        0.2033
      2 N           3.7674    1.6577   23.9576 N.ar    1  UNL1       -0.0556
      3 O           3.7024    1.9661   25.4241 O.2     1  UNL1       -0.3324
      4 C           2.4683    1.3192   25.9796 C.ar    1  UNL1        0.2600
      5 N           1.7706    0.6110   24.8564 N.ar    1  UNL1       -0.1870
      6 C           2.9082   -0.9613   21.7454 C.ar    1  UNL1       -0.0231
      7 C           2.5755   -1.4958   20.3840 C.ar    1  UNL1       -0.0260
      8 C           1.5754   -0.7834   19.5224 C.ar    1  UNL1       -0.0046
      9 C           0.9080    0.4634   20.0222 C.ar    1  UNL1       -0.0002
     10 C           1.2407    0.9979   21.3836 C.ar    1  UNL1        0.0028
     11 C           2.2408    0.2856   22.2453 C.ar    1  UNL1        0.0349
     12 C           5.3647   -1.3291   22.5070 C.3     1  UNL1        0.0050
     13 C           3.9083   -1.6736   22.6070 C.3     1  UNL1        0.0261
     14 C           3.2429   -2.7427   19.8841 C.3     1  UNL1        0.0264
     15 C           4.4174   -2.6443   18.9563 C.3     1  UNL1        0.0106
     16 C           5.0410   -1.3094   18.6746 C.3     1  UNL1        0.0421
     17 C           5.2051   -0.8420   17.2588 C.2     1  UNL1        0.0503
     18 O           6.5278   -0.3092   16.7934 O.co2   1  UNL1       -0.5492
     19 O           4.0465   -0.9074   16.3084 O.co2   1  UNL1       -0.5492
     20 C           2.0120    1.3715   27.4076 C.ar    1  UNL1        0.0569
     21 C           0.9449    2.3421   27.8189 C.ar    1  UNL1        0.0079
     22 C           0.4886    2.3943   29.2469 C.ar    1  UNL1        0.0377
     23 C           1.0995    1.4759   30.2635 C.ar    1  UNL1        0.1479
     24 C           2.1665    0.5053   29.8521 C.ar    1  UNL1        0.1024
     25 C           2.6228    0.4531   28.4242 C.ar    1  UNL1        0.0181
     26 C           2.7773   -0.4131   30.8688 C.1     1  UNL1        0.1035
     27 N           3.3881   -1.3315   31.8853 N.1     1  UNL1       -0.1907
     28 O           0.6432    1.5281   31.6914 O.3     1  UNL1       -0.4785
     29 C           1.2277    2.5427   32.6289 C.3     1  UNL1        0.1662
     30 C           2.3211    2.1463   33.5763 C.3     1  UNL1        0.0472
     31 C           0.7190    3.9538   32.6192 C.3     1  UNL1        0.0472
@<TRIPOS>UNITY_ATOM_ATTR
18 1
charge -1
@<TRIPOS>BOND
     1    12    13    1
     2    13     6    1
     3     6     7   ar
     4     7    14    1
     5    14    15    1
     6    15    16    1
     7    16    17    1
     8    17    18   ar
     9    17    19   ar
    10     7     8   ar
    11     8     9   ar
    12     9    10   ar
    13    10    11   ar
    14    11     1    1
    15     1     2   ar
    16     2     3   ar
    17     3     4   ar
    18     4    20    1
    19    20    21   ar
    20    21    22   ar
    21    22    23   ar
    22    23    28    1
    23    28    29    1
    24    29    30    1
    25    29    31    1
    26    23    24   ar
    27    24    26    1
    28    26    27    3
    29    24    25   ar
    30     4     5   ar
    31    11     6   ar
    32     5     1   ar
    33    25    20   ar
@<TRIPOS>MOLECULE
*****
 31 33 0 0 0
SMALL
GASTEIGER

@<TRIPOS>ATOM
      1 C           4.3074   -1.2315   23.7352 C.ar    1  UNL1        0.2033
      2 N           5.5645   -0.6598   24.3206 N.ar    1  UNL1       -0.0556
      3 O           5.2447   -0.1456   25.6930 O.2     1  UNL1       -0.3324
      4 C           3.7899   -0.3996   25.9558 C.ar    1  UNL1        0.2600
      5 N           3.2106   -1.0707   24.7458 N.ar    1  UNL1       -0.1870
      6 C           3.6264   -1.0504   21.2345 C.ar    1  UNL1       -0.0231
      7 C           3.4900   -1.6736   19.8770 C.ar    1  UNL1       -0.0260
      8 C           3.8981   -3.1010   19.6625 C.ar    1  UNL1       -0.0046
      9 C           4.4426   -3.9052   20.8055 C.ar    1  UNL1       -0.0002
     10 C           4.5790   -3.2821   22.1631 C.ar    1  UNL1        0.0028
     11 C           4.1709   -1.8547   22.3776 C.ar    1  UNL1        0.0349
     12 C           1.8041    0.7040   21.8269 C.3     1  UNL1        0.0050
     13 C           3.2184    0.3770   21.4490 C.3     1  UNL1        0.0261
     14 C           2.9455   -0.8693   18.7338 C.3     1  UNL1        0.0264
     15 C           3.8159   -0.5615   17.5516 C.3     1  UNL1        0.0106
     16 C           5.0849    0.2166   17.7369 C.3     1  UNL1        0.0421
     17 C           6.4053   -0.4113   17.4022 C.2     1  UNL1        0.0503
     18 O           7.6118    0.4521   17.1812 O.co2   1  UNL1       -0.5492
     19 O           6.5192   -1.9026   17.2884 O.co2   1  UNL1       -0.5492
     20 C           3.0452   -0.0448   27.2085 C.ar    1  UNL1        0.0569
     21 C           1.8715    0.8872   27.1448 C.ar    1  UNL1        0.0079
     22 C           1.1268    1.2420   28.3976 C.ar    1  UNL1        0.0377
     23 C           1.5557    0.6649   29.7141 C.ar    1  UNL1        0.1479
     24 C           2.7293   -0.2670   29.7778 C.ar    1  UNL1        0.1024
     25 C           3.4741   -0.6219   28.5250 C.ar    1  UNL1        0.0181
     26 C           3.1582   -0.8441   31.0942 C.1     1  UNL1        0.1035
     27 N           3.5871   -1.4212   32.4106 N.1     1  UNL1       -0.1907
     28 O           0.8110    1.0198   30.9668 O.3     1  UNL1       -0.4785
     29 C           1.1834    2.2517   31.7373 C.3     1  UNL1        0.1662
     30 C           1.9248    2.1288   33.0355 C.3     1  UNL1        0.0472
     31 C           0.8146    3.6065   31.2096 C.3     1  UNL1        0.0472
@<TRIPOS>UNITY_ATOM_ATTR
18 1
charge -1
@<TRIPOS>BOND
     1    12    13    1
     2    13     6    1
     3     6     7   ar
     4     7    14    1
     5    14    15    1
     6    15    16    1
     7    16    17    1
     8    17    18   ar
     9    17    19   ar
    10     7     8   ar
    11     8     9   ar
    12     9    10   ar
    13    10    11   ar
    14    11     1    1
    15     1     2   ar
    16     2     3   ar
    17     3     4   ar
    18     4    20    1
    19    20    21   ar
    20    21    22   ar
    21    22    23   ar
    22    23    28    1
    23    28    29    1
    24    29    30    1
    25    29    31    1
    26    23    24   ar
    27    24    26    1
    28    26    27    3
    29    24    25   ar
    30     4     5   ar
    31    11     6   ar
    32     5     1   ar
    33    25    20   ar
@<TRIPOS>MOLECULE
*****
 31 33 0 0 0
SMALL
GASTEIGER

@<TRIPOS>ATOM
      1 C           2.9656   -0.5330   30.5092 C.ar    1  UNL1        0.2033
      2 N           1.5069   -0.4393   30.1724 N.ar    1  UNL1       -0.0556
      3 O           1.3793   -0.3720   28.6794 O.2     1  UNL1       -0.3324
      4 C           2.7591   -0.4242   28.0934 C.ar    1  UNL1        0.2600
      5 N           3.7395   -0.5237   29.2243 N.ar    1  UNL1       -0.1870
      6 C           3.5231    0.5772   32.7910 C.ar    1  UNL1       -0.0231
      7 C           4.1056    0.4895   34.1705 C.ar    1  UNL1       -0.0260
      8 C           4.7132   -0.7963   34.6476 C.ar    1  UNL1       -0.0046
      9 C           4.7382   -1.9943   33.7454 C.ar    1  UNL1       -0.0002
     10 C           4.1557   -1.9065   32.3659 C.ar    1  UNL1        0.0028
     11 C           3.5481   -0.6208   31.8887 C.ar    1  UNL1        0.0349
     12 C           1.4871    2.1840   32.6401 C.3     1  UNL1        0.0050
     13 C           2.9155    1.8630   32.3138 C.3     1  UNL1        0.0261
     14 C           4.0806    1.6875   35.0728 C.3     1  UNL1        0.0264
     15 C           3.8038    1.5178   36.5372 C.3     1  UNL1        0.0106
     16 C           2.6352    2.2176   37.1656 C.3     1  UNL1        0.0421
     17 C           2.0881    1.7347   38.4761 C.2     1  UNL1        0.0503
     18 O           2.9528    0.9271   39.3980 O.co2   1  UNL1       -0.5492
     19 O           0.6762    2.0595   38.8647 O.co2   1  UNL1       -0.5492
     20 C           3.0989   -0.3839   26.6330 C.ar    1  UNL1        0.0569
     21 C           2.6374    0.7656   25.7870 C.ar    1  UNL1        0.0079
     22 C           2.9771    0.8059   24.3266 C.ar    1  UNL1        0.0377
     23 C           3.7785   -0.3033   23.7121 C.ar    1  UNL1        0.1479
     24 C           4.2400   -1.4528   24.5580 C.ar    1  UNL1        0.1024
     25 C           3.9002   -1.4931   26.0185 C.ar    1  UNL1        0.0181
     26 C           5.0413   -2.5620   23.9435 C.1     1  UNL1        0.1035
     27 N           5.8425   -3.6712   23.3291 N.1     1  UNL1       -0.1907
     28 O           4.1182   -0.2630   22.2516 O.3     1  UNL1       -0.4785
     29 C           3.2138   -0.9220   21.2528 C.3     1  UNL1        0.1662
     30 C           3.6806   -2.1352   20.5041 C.3     1  UNL1        0.0472
     31 C           1.8425   -0.3679   21.0024 C.3     1  UNL1        0.0472
@<TRIPOS>UNITY_ATOM_ATTR
18 1
charge -1
@<TRIPOS>BOND
     1    12    13    1
     2    13     6    1
     3     6     7   ar
     4     7    14    1
     5    14    15    1
     6    15    16    1
     7    16    17    1
     8    17    18   ar
     9    17    19   ar
    10     7     8   ar
    11     8     9   ar
    12     9    10   ar
    13    10    11   ar
    14    11     1    1
    15     1     2   ar
    16     2     3   ar
    17     3     4   ar
    18     4    20    1
    19    20    21   ar
    20    21    22   ar
    21    22    23   ar
    22    23    28    1
    23    28    29    1
    24    29    30    1
    25    29    31    1
    26    23    24   ar
    27    24    26    1
    28    26    27    3
    29    24    25   ar
    30     4     5   ar
    31    11     6   ar
    32     5     1   ar
    33    25    20   ar
