@<TRIPOS>MOLECULE
*****
 26 29 0 0 0
SMALL
GASTEIGER

@<TRIPOS>ATOM
      1 C          -1.7739  -18.2331   20.7603 C.2     1  UNL1        0.0919
      2 C          -1.9186  -18.8102   22.1373 C.2     1  UNL1        0.0183
      3 C          -3.2665  -19.2466   22.6298 C.2     1  UNL1        0.0511
      4 C          -4.4698  -19.1059   21.7454 C.2     1  UNL1        0.2322
      5 N          -5.9154  -19.4466   21.9556 N.2     1  UNL1       -0.0308
      6 C          -6.6642  -19.0801   20.7087 C.2     1  UNL1        0.3753
      7 N          -5.6814  -18.5128   19.7277 N.2     1  UNL1       -0.0347
      8 C          -4.3252  -18.5288   20.3685 C.2     1  UNL1        0.2191
      9 C          -2.9772  -18.0923   19.8759 C.3     1  UNL1        0.1226
     10 C          -8.1372  -19.2508   20.4824 C.ar    1  UNL1        0.0914
     11 C          -8.6410  -19.7337   19.1546 C.ar    1  UNL1        0.0284
     12 C         -10.1140  -19.9045   18.9284 C.ar    1  UNL1        0.0991
     13 N         -11.0831  -19.5923   20.0298 N.ar    1  UNL1       -0.2438
     14 C         -10.5793  -19.1094   21.3576 C.ar    1  UNL1        0.0816
     15 C          -9.1063  -18.9386   21.5839 C.ar    1  UNL1        0.0268
     16 C         -11.5485  -18.7972   22.4591 C.ar    1  UNL1        0.0177
     17 C         -11.2650  -19.2540   23.8594 C.ar    1  UNL1        0.0015
     18 C         -12.2342  -18.9418   24.9608 C.ar    1  UNL1        0.0000
     19 C         -13.4869  -18.1728   24.6619 C.ar    1  UNL1        0.0000
     20 C         -13.7704  -17.7160   23.2616 C.ar    1  UNL1        0.0000
     21 C         -12.8012  -18.0282   22.1602 C.ar    1  UNL1        0.0015
     22 S          -0.4260  -17.7966   20.2678 S.O2    1  UNL1        0.0054
     23 O          -0.7115  -16.3973   20.7264 O.2     1  UNL1       -0.1689
     24 O          -0.1405  -19.1960   19.8092 O.2     1  UNL1       -0.1689
     25 C           2.1089  -17.4154   20.6907 C.3     1  UNL1        0.0276
     26 C           0.9220  -17.3602   19.7753 C.3     1  UNL1        0.1556
@<TRIPOS>BOND
     1    25    26    1
     2    26    22    1
     3    22    23    2
     4    22    24    2
     5    22     1    1
     6     1     2    2
     7     2     3    1
     8     3     4    2
     9     4     5    1
    10     5     6    2
    11     6    10    1
    12    10    11   ar
    13    11    12   ar
    14    12    13   ar
    15    13    14   ar
    16    14    16    1
    17    16    17   ar
    18    17    18   ar
    19    18    19   ar
    20    19    20   ar
    21    20    21   ar
    22    14    15   ar
    23     6     7    1
    24     7     8    2
    25     8     9    1
    26     9     1    1
    27     8     4    1
    28    15    10   ar
    29    21    16   ar
@<TRIPOS>MOLECULE
*****
 26 29 0 0 0
SMALL
GASTEIGER

@<TRIPOS>ATOM
      1 C           7.3172   -5.5654   27.0761 C.2     1  UNL1        0.0919
      2 C           8.0250   -6.6515   26.3215 C.2     1  UNL1        0.0183
      3 C           8.1257   -6.5830   24.8265 C.2     1  UNL1        0.0511
      4 C           7.5187   -5.4284   24.0860 C.2     1  UNL1        0.2322
      5 N           7.4594   -5.0924   22.6253 N.2     1  UNL1       -0.0308
      6 C           6.7150   -3.7986   22.4771 C.2     1  UNL1        0.3753
      7 N           6.3141   -3.3350   23.8462 N.2     1  UNL1       -0.0347
      8 C           6.8109   -4.3423   24.8406 C.2     1  UNL1        0.2191
      9 C           6.7101   -4.4108   26.3356 C.3     1  UNL1        0.1226
     10 C           6.4227   -3.0924   21.1864 C.ar    1  UNL1        0.0914
     11 C           7.4351   -3.1031   20.0797 C.ar    1  UNL1        0.0284
     12 C           7.1429   -2.3970   18.7890 C.ar    1  UNL1        0.0991
     13 N           5.8382   -1.6802   18.6050 N.ar    1  UNL1       -0.2438
     14 C           4.8257   -1.6695   19.7117 C.ar    1  UNL1        0.0816
     15 C           5.1180   -2.3756   21.0024 C.ar    1  UNL1        0.0268
     16 C           3.5210   -0.9526   19.5277 C.ar    1  UNL1        0.0177
     17 C           3.3601    0.0378   18.4128 C.ar    1  UNL1        0.0015
     18 C           2.0554    0.7546   18.2288 C.ar    1  UNL1        0.0000
     19 C           0.9115    0.4810   19.1597 C.ar    1  UNL1        0.0000
     20 C           1.0724   -0.5095   20.2746 C.ar    1  UNL1        0.0000
     21 C           2.3771   -1.2263   20.4586 C.ar    1  UNL1        0.0015
     22 S           7.2164   -5.6339   28.5711 S.O2    1  UNL1        0.0054
     23 O           8.2693   -6.7021   28.5931 O.2     1  UNL1       -0.1689
     24 O           6.1635   -4.5658   28.5491 O.2     1  UNL1       -0.1689
     25 C           6.9250   -4.4463   30.8634 C.3     1  UNL1        0.0276
     26 C           7.1157   -5.7025   30.0662 C.3     1  UNL1        0.1556
@<TRIPOS>BOND
     1    25    26    1
     2    26    22    1
     3    22    23    2
     4    22    24    2
     5    22     1    1
     6     1     2    2
     7     2     3    1
     8     3     4    2
     9     4     5    1
    10     5     6    2
    11     6    10    1
    12    10    11   ar
    13    11    12   ar
    14    12    13   ar
    15    13    14   ar
    16    14    16    1
    17    16    17   ar
    18    17    18   ar
    19    18    19   ar
    20    19    20   ar
    21    20    21   ar
    22    14    15   ar
    23     6     7    1
    24     7     8    2
    25     8     9    1
    26     9     1    1
    27     8     4    1
    28    15    10   ar
    29    21    16   ar
@<TRIPOS>MOLECULE
*****
 26 29 0 0 0
SMALL
GASTEIGER

@<TRIPOS>ATOM
      1 C           3.1572   -0.7929   18.9920 C.2     1  UNL1        0.0919
      2 C           3.6464    0.4113   18.2434 C.2     1  UNL1        0.0183
      3 C           2.8574    1.6865   18.2764 C.2     1  UNL1        0.0511
      4 C           1.5791    1.7576   19.0580 C.2     1  UNL1        0.2322
      5 N           0.5951    2.8689   19.2739 N.2     1  UNL1       -0.0308
      6 C          -0.5023    2.3515   20.1560 C.2     1  UNL1        0.3753
      7 N          -0.1965    0.9204   20.4852 N.2     1  UNL1       -0.0347
      8 C           1.0899    0.5534   19.8066 C.2     1  UNL1        0.2191
      9 C           1.8789   -0.7219   19.7736 C.3     1  UNL1        0.1226
     10 C          -1.6959    3.1289   20.6263 C.ar    1  UNL1        0.0914
     11 C          -2.5680    3.8379   19.6330 C.ar    1  UNL1        0.0284
     12 C          -3.7616    4.6152   20.1033 C.ar    1  UNL1        0.0991
     13 N          -4.0831    4.6835   21.5668 N.ar    1  UNL1       -0.2438
     14 C          -3.2109    3.9744   22.5601 C.ar    1  UNL1        0.0816
     15 C          -2.0174    3.1971   22.0899 C.ar    1  UNL1        0.0268
     16 C          -3.5325    4.0426   24.0237 C.ar    1  UNL1        0.0177
     17 C          -4.8496    4.5989   24.4771 C.ar    1  UNL1        0.0015
     18 C          -5.1711    4.6671   25.9406 C.ar    1  UNL1        0.0000
     19 C          -4.1754    4.1791   26.9508 C.ar    1  UNL1        0.0000
     20 C          -2.8582    3.6228   26.4974 C.ar    1  UNL1        0.0000
     21 C          -2.5367    3.5546   25.0338 C.ar    1  UNL1        0.0015
     22 S           3.9463   -2.0682   18.9590 S.O2    1  UNL1        0.0054
     23 O           4.4623   -1.7137   17.5959 O.2     1  UNL1       -0.1689
     24 O           3.4303   -2.4227   20.3221 O.2     1  UNL1       -0.1689
     25 C           4.0265   -4.6650   18.9569 C.3     1  UNL1        0.0276
     26 C           4.7353   -3.3435   18.9260 C.3     1  UNL1        0.1556
@<TRIPOS>BOND
     1    25    26    1
     2    26    22    1
     3    22    23    2
     4    22    24    2
     5    22     1    1
     6     1     2    2
     7     2     3    1
     8     3     4    2
     9     4     5    1
    10     5     6    2
    11     6    10    1
    12    10    11   ar
    13    11    12   ar
    14    12    13   ar
    15    13    14   ar
    16    14    16    1
    17    16    17   ar
    18    17    18   ar
    19    18    19   ar
    20    19    20   ar
    21    20    21   ar
    22    14    15   ar
    23     6     7    1
    24     7     8    2
    25     8     9    1
    26     9     1    1
    27     8     4    1
    28    15    10   ar
    29    21    16   ar
@<TRIPOS>MOLECULE
*****
 26 29 0 0 0
SMALL
GASTEIGER

@<TRIPOS>ATOM
      1 C           3.3295   -1.0817   18.9247 C.2     1  UNL1        0.0919
      2 C           3.6926    0.1315   18.1210 C.2     1  UNL1        0.0183
      3 C           2.9161    1.4036   18.2907 C.2     1  UNL1        0.0511
      4 C           1.7765    1.4625   19.2641 C.2     1  UNL1        0.2322
      5 N           0.8365    2.5682   19.6435 N.2     1  UNL1       -0.0308
      6 C          -0.1076    2.0383   20.6817 C.2     1  UNL1        0.3753
      7 N           0.2489    0.6051   20.9440 N.2     1  UNL1       -0.0347
      8 C           1.4133    0.2492   20.0679 C.2     1  UNL1        0.2191
      9 C           2.1898   -1.0229   19.8982 C.3     1  UNL1        0.1226
     10 C          -1.2139    2.8067   21.3417 C.ar    1  UNL1        0.0914
     11 C          -1.0510    3.2952   22.7506 C.ar    1  UNL1        0.0284
     12 C          -2.1573    4.0636   23.4106 C.ar    1  UNL1        0.0991
     13 N          -3.4264    4.3436   22.6618 N.ar    1  UNL1       -0.2438
     14 C          -3.5893    3.8551   21.2529 C.ar    1  UNL1        0.0816
     15 C          -2.4831    3.0867   20.5929 C.ar    1  UNL1        0.0268
     16 C          -4.8586    4.1352   20.5041 C.ar    1  UNL1        0.0177
     17 C          -5.9018    5.0301   21.1046 C.ar    1  UNL1        0.0015
     18 C          -7.1710    5.3101   20.3558 C.ar    1  UNL1        0.0000
     19 C          -7.3969    4.6951   19.0065 C.ar    1  UNL1        0.0000
     20 C          -6.3537    3.8001   18.4059 C.ar    1  UNL1        0.0000
     21 C          -5.0845    3.5201   19.1548 C.ar    1  UNL1        0.0015
     22 S           4.1060   -2.3538   18.7550 S.O2    1  UNL1        0.0054
     23 O           3.5590   -2.8613   20.0563 O.2     1  UNL1       -0.1689
     24 O           4.6529   -1.8464   17.4538 O.2     1  UNL1       -0.1689
     25 C           4.2547   -4.9409   18.9411 C.3     1  UNL1        0.0276
     26 C           4.8825   -3.6259   18.5853 C.3     1  UNL1        0.1556
@<TRIPOS>BOND
     1    25    26    1
     2    26    22    1
     3    22    23    2
     4    22    24    2
     5    22     1    1
     6     1     2    2
     7     2     3    1
     8     3     4    2
     9     4     5    1
    10     5     6    2
    11     6    10    1
    12    10    11   ar
    13    11    12   ar
    14    12    13   ar
    15    13    14   ar
    16    14    16    1
    17    16    17   ar
    18    17    18   ar
    19    18    19   ar
    20    19    20   ar
    21    20    21   ar
    22    14    15   ar
    23     6     7    1
    24     7     8    2
    25     8     9    1
    26     9     1    1
    27     8     4    1
    28    15    10   ar
    29    21    16   ar
@<TRIPOS>MOLECULE
*****
 26 29 0 0 0
SMALL
GASTEIGER

@<TRIPOS>ATOM
      1 C         -11.3292   -4.4682   18.9932 C.2     1  UNL1        0.0919
      2 C         -10.8144   -3.1844   18.4130 C.2     1  UNL1        0.0183
      3 C         -11.6806   -1.9597   18.4151 C.2     1  UNL1        0.0511
      4 C         -13.0617   -2.0190   18.9973 C.2     1  UNL1        0.2322
      5 N         -14.1366   -0.9824   19.1389 N.2     1  UNL1       -0.0308
      6 C         -15.3158   -1.6255   19.8066 C.2     1  UNL1        0.3753
      7 N         -14.9697   -3.0597   20.0776 N.2     1  UNL1       -0.0347
      8 C         -13.5765   -3.3028   19.5775 C.2     1  UNL1        0.2191
      9 C         -12.7103   -4.5274   19.5754 C.3     1  UNL1        0.1226
     10 C         -16.6133   -0.9527   20.1439 C.ar    1  UNL1        0.0914
     11 C         -17.9139   -1.6219   19.8113 C.ar    1  UNL1        0.0284
     12 C         -19.2114   -0.9491   20.1486 C.ar    1  UNL1        0.0991
     13 N         -19.2083    0.3929   20.8186 N.ar    1  UNL1       -0.2438
     14 C         -17.9077    1.0622   21.1512 C.ar    1  UNL1        0.0816
     15 C         -16.6102    0.3894   20.8139 C.ar    1  UNL1        0.0268
     16 C         -17.9047    2.4043   21.8212 C.ar    1  UNL1        0.0177
     17 C         -17.2302    2.5778   23.1497 C.ar    1  UNL1        0.0015
     18 C         -17.2272    3.9198   23.8196 C.ar    1  UNL1        0.0000
     19 C         -17.8986    5.0883   23.1611 C.ar    1  UNL1        0.0000
     20 C         -18.5731    4.9148   21.8326 C.ar    1  UNL1        0.0000
     21 C         -18.5761    3.5728   21.1627 C.ar    1  UNL1        0.0015
     22 S         -10.4630   -5.6928   18.9911 S.O2    1  UNL1        0.0054
     23 O          -9.2849   -4.8602   19.4020 O.2     1  UNL1       -0.1689
     24 O         -11.6411   -6.5254   18.5802 O.2     1  UNL1       -0.1689
     25 C          -9.9054   -8.0528   18.0587 C.3     1  UNL1        0.0276
     26 C          -9.5968   -6.9174   18.9890 C.3     1  UNL1        0.1556
@<TRIPOS>BOND
     1    25    26    1
     2    26    22    1
     3    22    23    2
     4    22    24    2
     5    22     1    1
     6     1     2    2
     7     2     3    1
     8     3     4    2
     9     4     5    1
    10     5     6    2
    11     6    10    1
    12    10    11   ar
    13    11    12   ar
    14    12    13   ar
    15    13    14   ar
    16    14    16    1
    17    16    17   ar
    18    17    18   ar
    19    18    19   ar
    20    19    20   ar
    21    20    21   ar
    22    14    15   ar
    23     6     7    1
    24     7     8    2
    25     8     9    1
    26     9     1    1
    27     8     4    1
    28    15    10   ar
    29    21    16   ar
@<TRIPOS>MOLECULE
*****
 26 29 0 0 0
SMALL
GASTEIGER

@<TRIPOS>ATOM
      1 C           6.5425   -3.7599   30.2099 C.2     1  UNL1        0.0919
      2 C           6.8989   -5.2150   30.2849 C.2     1  UNL1        0.0183
      3 C           7.2063   -5.9774   29.0302 C.2     1  UNL1        0.0511
      4 C           7.1574   -5.2848   27.7007 C.2     1  UNL1        0.2322
      5 N           7.4094   -5.7728   26.3048 N.2     1  UNL1       -0.0308
      6 C           7.2088   -4.6192   25.3672 C.2     1  UNL1        0.3753
      7 N           6.8328   -3.4183   26.1835 N.2     1  UNL1       -0.0347
      8 C           6.8010   -3.8297   27.6257 C.2     1  UNL1        0.2191
      9 C           6.4936   -3.0673   28.8804 C.3     1  UNL1        0.1226
     10 C           7.3581   -4.6596   23.8751 C.ar    1  UNL1        0.0914
     11 C           8.4778   -5.4411   23.2543 C.ar    1  UNL1        0.0284
     12 C           8.6270   -5.4815   21.7623 C.ar    1  UNL1        0.0991
     13 N           7.6566   -4.7403   20.8912 N.ar    1  UNL1       -0.2438
     14 C           6.5369   -3.9588   21.5120 C.ar    1  UNL1        0.0816
     15 C           6.3876   -3.9184   23.0040 C.ar    1  UNL1        0.0268
     16 C           5.5664   -3.2176   20.6408 C.ar    1  UNL1        0.0177
     17 C           4.3391   -2.5997   21.2423 C.ar    1  UNL1        0.0015
     18 C           3.3687   -1.8586   20.3711 C.ar    1  UNL1        0.0000
     19 C           3.6257   -1.7353   18.8984 C.ar    1  UNL1        0.0000
     20 C           4.8530   -2.3533   18.2969 C.ar    1  UNL1        0.0000
     21 C           5.8234   -3.0944   19.1681 C.ar    1  UNL1        0.0015
     22 S           6.2351   -2.9974   31.4646 S.O2    1  UNL1        0.0054
     23 O           6.8825   -4.0775   32.2796 O.2     1  UNL1       -0.1689
     24 O           5.5877   -1.9173   30.6496 O.2     1  UNL1       -0.1689
     25 C           4.5603   -2.3163   33.3303 C.3     1  UNL1        0.0276
     26 C           5.9277   -2.2349   32.7192 C.3     1  UNL1        0.1556
@<TRIPOS>BOND
     1    25    26    1
     2    26    22    1
     3    22    23    2
     4    22    24    2
     5    22     1    1
     6     1     2    2
     7     2     3    1
     8     3     4    2
     9     4     5    1
    10     5     6    2
    11     6    10    1
    12    10    11   ar
    13    11    12   ar
    14    12    13   ar
    15    13    14   ar
    16    14    16    1
    17    16    17   ar
    18    17    18   ar
    19    18    19   ar
    20    19    20   ar
    21    20    21   ar
    22    14    15   ar
    23     6     7    1
    24     7     8    2
    25     8     9    1
    26     9     1    1
    27     8     4    1
    28    15    10   ar
    29    21    16   ar
@<TRIPOS>MOLECULE
*****
 26 29 0 0 0
SMALL
GASTEIGER

@<TRIPOS>ATOM
      1 C         -12.4514   -5.2648   19.1705 C.2     1  UNL1        0.0919
      2 C         -13.6036   -6.2174   19.2914 C.2     1  UNL1        0.0183
      3 C         -14.9935   -5.6914   19.4951 C.2     1  UNL1        0.0511
      4 C         -15.2311   -4.2126   19.5779 C.2     1  UNL1        0.2322
      5 N         -16.4808   -3.4062   19.7725 N.2     1  UNL1       -0.0308
      6 C         -16.1009   -1.9551   19.7718 C.2     1  UNL1        0.3753
      7 N         -14.6164   -1.8647   19.5768 N.2     1  UNL1       -0.0347
      8 C         -14.0789   -3.2600   19.4569 C.2     1  UNL1        0.2191
      9 C         -12.6890   -3.7860   19.2532 C.3     1  UNL1        0.1226
     10 C         -17.0406   -0.7976   19.9372 C.ar    1  UNL1        0.0914
     11 C         -18.3944   -0.8326   19.2923 C.ar    1  UNL1        0.0284
     12 C         -19.3341    0.3248   19.4577 C.ar    1  UNL1        0.0991
     13 N         -18.9199    1.5172   20.2679 N.ar    1  UNL1       -0.2438
     14 C         -17.5661    1.5523   20.9128 C.ar    1  UNL1        0.0816
     15 C         -16.6264    0.3948   20.7475 C.ar    1  UNL1        0.0268
     16 C         -17.1519    2.7448   21.7231 C.ar    1  UNL1        0.0177
     17 C         -16.5993    3.9605   21.0399 C.ar    1  UNL1        0.0015
     18 C         -16.1852    5.1529   21.8502 C.ar    1  UNL1        0.0000
     19 C         -16.3237    5.1296   23.3436 C.ar    1  UNL1        0.0000
     20 C         -16.8762    3.9139   24.0267 C.ar    1  UNL1        0.0000
     21 C         -17.2903    2.7215   23.2165 C.ar    1  UNL1        0.0015
     22 S         -11.0615   -5.7908   18.9667 S.O2    1  UNL1        0.0054
     23 O         -10.5222   -4.3929   19.0363 O.2     1  UNL1       -0.1689
     24 O         -11.6008   -7.1888   18.8972 O.2     1  UNL1       -0.1689
     25 C          -9.4301   -7.7963   18.7087 C.3     1  UNL1        0.0276
     26 C          -9.6716   -6.3169   18.7630 C.3     1  UNL1        0.1556
@<TRIPOS>BOND
     1    25    26    1
     2    26    22    1
     3    22    23    2
     4    22    24    2
     5    22     1    1
     6     1     2    2
     7     2     3    1
     8     3     4    2
     9     4     5    1
    10     5     6    2
    11     6    10    1
    12    10    11   ar
    13    11    12   ar
    14    12    13   ar
    15    13    14   ar
    16    14    16    1
    17    16    17   ar
    18    17    18   ar
    19    18    19   ar
    20    19    20   ar
    21    20    21   ar
    22    14    15   ar
    23     6     7    1
    24     7     8    2
    25     8     9    1
    26     9     1    1
    27     8     4    1
    28    15    10   ar
    29    21    16   ar
@<TRIPOS>MOLECULE
*****
 26 29 0 0 0
SMALL
GASTEIGER

@<TRIPOS>ATOM
      1 C           1.4389    0.8572   29.0738 C.2     1  UNL1        0.0919
      2 C           0.0328    1.3758   29.1356 C.2     1  UNL1        0.0183
      3 C          -0.6979    1.7144   27.8701 C.2     1  UNL1        0.0511
      4 C          -0.0226    1.5344   26.5430 C.2     1  UNL1        0.2322
      5 N          -0.4875    1.7818   25.1384 N.2     1  UNL1       -0.0308
      6 C           0.6314    1.4161   24.2086 C.2     1  UNL1        0.3753
      7 N           1.7877    0.9427   25.0385 N.2     1  UNL1       -0.0347
      8 C           1.3835    1.0159   26.4812 C.2     1  UNL1        0.2191
      9 C           2.1143    0.6773   27.7467 C.3     1  UNL1        0.1226
     10 C           0.5994    1.5077   22.7117 C.ar    1  UNL1        0.0914
     11 C          -0.3365    2.4677   22.0389 C.ar    1  UNL1        0.0284
     12 C          -0.3685    2.5593   20.5421 C.ar    1  UNL1        0.0991
     13 N           0.5353    1.6910   19.7181 N.ar    1  UNL1       -0.2438
     14 C           1.4711    0.7310   20.3909 C.ar    1  UNL1        0.0816
     15 C           1.5032    0.6393   21.8877 C.ar    1  UNL1        0.0268
     16 C           2.3750   -0.1374   19.5668 C.ar    1  UNL1        0.0177
     17 C           2.7794    0.2957   18.1888 C.ar    1  UNL1        0.0015
     18 C           3.6832   -0.5726   17.3648 C.ar    1  UNL1        0.0000
     19 C           4.1825   -1.8741   17.9187 C.ar    1  UNL1        0.0000
     20 C           3.7780   -2.3073   19.2966 C.ar    1  UNL1        0.0000
     21 C           2.8742   -1.4389   20.1207 C.ar    1  UNL1        0.0015
     22 S           2.1697    0.5186   30.3393 S.O2    1  UNL1        0.0054
     23 O           3.1988   -0.2296   29.5448 O.2     1  UNL1       -0.1689
     24 O           1.1407    1.2669   31.1337 O.2     1  UNL1       -0.1689
     25 C           3.9665   -0.8751   31.5958 C.3     1  UNL1        0.0276
     26 C           2.9005    0.1800   31.6047 C.3     1  UNL1        0.1556
@<TRIPOS>BOND
     1    25    26    1
     2    26    22    1
     3    22    23    2
     4    22    24    2
     5    22     1    1
     6     1     2    2
     7     2     3    1
     8     3     4    2
     9     4     5    1
    10     5     6    2
    11     6    10    1
    12    10    11   ar
    13    11    12   ar
    14    12    13   ar
    15    13    14   ar
    16    14    16    1
    17    16    17   ar
    18    17    18   ar
    19    18    19   ar
    20    19    20   ar
    21    20    21   ar
    22    14    15   ar
    23     6     7    1
    24     7     8    2
    25     8     9    1
    26     9     1    1
    27     8     4    1
    28    15    10   ar
    29    21    16   ar
@<TRIPOS>MOLECULE
*****
 26 29 0 0 0
SMALL
GASTEIGER

@<TRIPOS>ATOM
      1 C          -3.8345    4.0042   20.6505 C.2     1  UNL1        0.0919
      2 C          -3.8631    4.7353   19.3410 C.2     1  UNL1        0.0183
      3 C          -2.6763    4.6805   18.4253 C.2     1  UNL1        0.0511
      4 C          -1.4610    3.8944   18.8190 C.2     1  UNL1        0.2322
      5 N          -0.1508    3.6586   18.1278 N.2     1  UNL1       -0.0308
      6 C           0.6875    2.7817   19.0100 C.2     1  UNL1        0.3753
      7 N          -0.1045    2.4756   20.2465 N.2     1  UNL1       -0.0347
      8 C          -1.4324    3.1633   20.1284 C.2     1  UNL1        0.2191
      9 C          -2.6192    3.2182   21.0441 C.3     1  UNL1        0.1226
     10 C           2.0745    2.2962   18.7086 C.ar    1  UNL1        0.0914
     11 C           3.1366    3.2708   18.2936 C.ar    1  UNL1        0.0284
     12 C           4.5235    2.7853   17.9922 C.ar    1  UNL1        0.0991
     13 N           4.8482    1.3253   18.1058 N.ar    1  UNL1       -0.2438
     14 C           3.7861    0.3508   18.5208 C.ar    1  UNL1        0.0816
     15 C           2.3992    0.8362   18.8222 C.ar    1  UNL1        0.0268
     16 C           4.1109   -1.1093   18.6343 C.ar    1  UNL1        0.0177
     17 C           3.1669   -2.0347   19.3430 C.ar    1  UNL1        0.0015
     18 C           3.4917   -3.4947   19.4565 C.ar    1  UNL1        0.0000
     19 C           4.7606   -4.0292   18.8614 C.ar    1  UNL1        0.0000
     20 C           5.7047   -3.1037   18.1527 C.ar    1  UNL1        0.0000
     21 C           5.3799   -1.6438   18.0392 C.ar    1  UNL1        0.0015
     22 S          -5.0213    4.0591   21.5662 S.O2    1  UNL1        0.0054
     23 O          -5.2199    5.5055   21.2220 O.2     1  UNL1       -0.1689
     24 O          -4.8227    2.6127   21.9103 O.2     1  UNL1       -0.1689
     25 C          -6.0098    4.3111   23.9556 C.3     1  UNL1        0.0276
     26 C          -6.2081    4.1140   22.4819 C.3     1  UNL1        0.1556
@<TRIPOS>BOND
     1    25    26    1
     2    26    22    1
     3    22    23    2
     4    22    24    2
     5    22     1    1
     6     1     2    2
     7     2     3    1
     8     3     4    2
     9     4     5    1
    10     5     6    2
    11     6    10    1
    12    10    11   ar
    13    11    12   ar
    14    12    13   ar
    15    13    14   ar
    16    14    16    1
    17    16    17   ar
    18    17    18   ar
    19    18    19   ar
    20    19    20   ar
    21    20    21   ar
    22    14    15   ar
    23     6     7    1
    24     7     8    2
    25     8     9    1
    26     9     1    1
    27     8     4    1
    28    15    10   ar
    29    21    16   ar
