@<TRIPOS>MOLECULE
*****
 33 37 0 0 0
SMALL
GASTEIGER

@<TRIPOS>ATOM
      1 C         -18.6615   -9.9553   17.8992 C.3     1  UNL1        0.2093
      2 C         -17.5025  -10.7086   18.4819 C.3     1  UNL1        0.0946
      3 C         -16.3273   -9.9622   19.0401 C.3     1  UNL1        0.2093
      4 O         -15.1219   -9.7119   18.1831 O.3     1  UNL1       -0.4753
      5 C         -12.3713   -4.4476   18.8361 C.3     1  UNL1        0.0279
      6 C         -13.1409   -3.9254   20.0130 C.3     1  UNL1        0.0094
      7 C         -14.1593   -4.9579   20.3959 C.3     1  UNL1        0.0265
      8 C         -14.0192   -6.1183   19.4557 C.ar    1  UNL1       -0.0231
      9 C         -14.7552   -7.4212   19.3529 C.ar    1  UNL1        0.0323
     10 C         -14.3860   -8.4088   18.2860 C.ar    1  UNL1        0.1382
     11 C         -13.2810   -8.0935   17.3219 C.ar    1  UNL1        0.0366
     12 C         -12.5450   -6.7905   17.4248 C.ar    1  UNL1       -0.0015
     13 C         -12.9142   -5.8029   18.4917 C.ar    1  UNL1       -0.0259
     14 C         -11.2549   -3.7390   18.1279 C.3     1  UNL1        0.0460
     15 O          -9.3018   -4.7798   19.4890 O.co2   1  UNL1       -0.5492
     16 C          -9.8608   -4.2896   18.1862 C.2     1  UNL1        0.0507
     17 O          -9.0256   -4.3499   16.9417 O.co2   1  UNL1       -0.5492
     18 O         -18.4483   -9.0352   16.7339 O.3     1  UNL1       -0.4753
     19 C         -17.8497   -7.6769   16.9505 C.ar    1  UNL1        0.1386
     20 C         -18.2655   -6.8541   18.1338 C.ar    1  UNL1        0.0370
     21 C         -17.6669   -5.4959   18.3504 C.ar    1  UNL1        0.0051
     22 C         -16.6525   -4.9605   17.3837 C.ar    1  UNL1        0.0240
     23 C         -16.2368   -5.7833   16.2005 C.ar    1  UNL1        0.0051
     24 C         -16.8354   -7.1415   15.9839 C.ar    1  UNL1        0.0370
     25 C         -16.0540   -3.6023   17.6003 C.ar    1  UNL1        0.1100
     26 N         -14.8712   -3.0339   16.8736 N.ar    1  UNL1       -0.2430
     27 C         -14.6193   -1.6543   17.4058 C.ar    1  UNL1        0.0615
     28 C         -15.6463   -1.3700   18.4614 C.ar    1  UNL1        0.0222
     29 S         -16.5331   -2.5739   18.5817 S.2     1  UNL1       -0.0712
     30 C         -15.6415   -0.0516   19.1768 C.3     1  UNL1        0.0342
     31 C         -14.6096    0.9825   18.8366 C.3     1  UNL1        0.0057
     32 C         -13.5825    0.6982   17.7810 C.3     1  UNL1        0.0067
     33 C         -13.5874   -0.6202   17.0656 C.3     1  UNL1        0.0460
@<TRIPOS>UNITY_ATOM_ATTR
15 1
charge -1
@<TRIPOS>BOND
     1    15    16   ar
     2    16    17   ar
     3    16    14    1
     4     5    14    1
     5     5     6    1
     6     6     7    1
     7     7     8    1
     8     8     9   ar
     9     9    10   ar
    10    10     4    1
    11     4     3    1
    12     3     2    1
    13     2     1    1
    14     1    18    1
    15    18    19    1
    16    19    20   ar
    17    20    21   ar
    18    21    22   ar
    19    22    25    1
    20    25    26   ar
    21    26    27   ar
    22    27    28   ar
    23    28    29   ar
    24    28    30    1
    25    30    31    1
    26    31    32    1
    27    32    33    1
    28    22    23   ar
    29    23    24   ar
    30    10    11   ar
    31    11    12   ar
    32    12    13   ar
    33    13     5    1
    34    13     8   ar
    35    24    19   ar
    36    29    25   ar
    37    33    27    1
@<TRIPOS>MOLECULE
*****
 33 37 0 0 0
SMALL
GASTEIGER

@<TRIPOS>ATOM
      1 C          -9.2401  -21.1958   17.6951 C.3     1  UNL1        0.2093
      2 C          -8.3905  -22.2392   18.3581 C.3     1  UNL1        0.0946
      3 C          -6.9499  -21.9518   18.6612 C.3     1  UNL1        0.2093
      4 O          -6.5159  -21.7044   20.0756 O.3     1  UNL1       -0.4753
      5 C          -2.3990  -17.6236   21.5259 C.3     1  UNL1        0.0279
      6 C          -2.8014  -17.3805   22.9503 C.3     1  UNL1        0.0094
      7 C          -3.9814  -18.2553   23.2543 C.3     1  UNL1        0.0265
      8 C          -4.3083  -19.0389   22.0177 C.ar    1  UNL1       -0.0231
      9 C          -5.3701  -20.0575   21.7264 C.ar    1  UNL1        0.0323
     10 C          -5.4540  -20.6857   20.3669 C.ar    1  UNL1        0.1382
     11 C          -4.4760  -20.2953   19.2987 C.ar    1  UNL1        0.0366
     12 C          -3.4142  -19.2767   19.5900 C.ar    1  UNL1       -0.0015
     13 C          -3.3303  -18.6485   20.9495 C.ar    1  UNL1       -0.0259
     14 C          -1.2645  -16.9584   20.8044 C.3     1  UNL1        0.0460
     15 O           0.9694  -18.2483   20.4942 O.co2   1  UNL1       -0.5492
     16 C          -0.3425  -17.7718   19.9449 C.2     1  UNL1        0.0507
     17 O          -0.7326  -18.1086   18.5362 O.co2   1  UNL1       -0.5492
     18 O         -10.2303  -20.4105   18.5031 O.3     1  UNL1       -0.4753
     19 C          -9.7762  -19.6526   19.7153 C.ar    1  UNL1        0.1386
     20 C          -8.4659  -18.9226   19.6961 C.ar    1  UNL1        0.0370
     21 C          -8.0118  -18.1648   20.9083 C.ar    1  UNL1        0.0051
     22 C          -8.8681  -18.1368   22.1397 C.ar    1  UNL1        0.0240
     23 C         -10.1783  -18.8667   22.1588 C.ar    1  UNL1        0.0051
     24 C         -10.6324  -19.6246   20.9466 C.ar    1  UNL1        0.0370
     25 C          -8.4140  -17.3789   23.3519 C.ar    1  UNL1        0.1100
     26 N          -7.1039  -16.6648   23.5057 N.ar    1  UNL1       -0.2430
     27 C          -7.0705  -16.0466   24.8720 C.ar    1  UNL1        0.0615
     28 C          -8.3600  -16.3786   25.5626 C.ar    1  UNL1        0.0222
     29 S          -9.1904  -17.2020   24.6231 S.2     1  UNL1       -0.0712
     30 C          -8.6115  -15.8883   26.9576 C.3     1  UNL1        0.0342
     31 C          -7.5735  -15.0660   27.6621 C.3     1  UNL1        0.0057
     32 C          -6.2840  -14.7340   26.9715 C.3     1  UNL1        0.0067
     33 C          -6.0325  -15.2243   25.5764 C.3     1  UNL1        0.0460
@<TRIPOS>UNITY_ATOM_ATTR
15 1
charge -1
@<TRIPOS>BOND
     1    15    16   ar
     2    16    17   ar
     3    16    14    1
     4     5    14    1
     5     5     6    1
     6     6     7    1
     7     7     8    1
     8     8     9   ar
     9     9    10   ar
    10    10     4    1
    11     4     3    1
    12     3     2    1
    13     2     1    1
    14     1    18    1
    15    18    19    1
    16    19    20   ar
    17    20    21   ar
    18    21    22   ar
    19    22    25    1
    20    25    26   ar
    21    26    27   ar
    22    27    28   ar
    23    28    29   ar
    24    28    30    1
    25    30    31    1
    26    31    32    1
    27    32    33    1
    28    22    23   ar
    29    23    24   ar
    30    10    11   ar
    31    11    12   ar
    32    12    13   ar
    33    13     5    1
    34    13     8   ar
    35    24    19   ar
    36    29    25   ar
    37    33    27    1
@<TRIPOS>MOLECULE
*****
 33 37 0 0 0
SMALL
GASTEIGER

@<TRIPOS>ATOM
      1 C         -20.3522   -7.4557   18.0725 C.3     1  UNL1        0.2093
      2 C         -20.1513   -8.9254   17.8496 C.3     1  UNL1        0.0946
      3 C         -18.7676   -9.4732   17.6618 C.3     1  UNL1        0.2093
      4 O         -17.8131   -9.5122   18.8182 O.3     1  UNL1       -0.4753
      5 C         -12.6260   -6.5534   18.6076 C.3     1  UNL1        0.0279
      6 C         -12.9707   -5.4110   19.5165 C.3     1  UNL1        0.0094
      7 C         -14.3829   -5.6012   19.9850 C.3     1  UNL1        0.0265
      8 C         -14.9110   -6.8612   19.3657 C.ar    1  UNL1       -0.0231
      9 C         -16.2403   -7.5487   19.4670 C.ar    1  UNL1        0.0323
     10 C         -16.4837   -8.8247   18.7170 C.ar    1  UNL1        0.1382
     11 C         -15.3979   -9.4131   17.8657 C.ar    1  UNL1        0.0366
     12 C         -14.0686   -8.7257   17.7644 C.ar    1  UNL1       -0.0015
     13 C         -13.8252   -7.4497   18.5144 C.ar    1  UNL1       -0.0259
     14 C         -11.3128   -6.7628   17.9137 C.3     1  UNL1        0.0460
     15 O          -9.5843   -5.4512   19.3429 O.co2   1  UNL1       -0.5492
     16 C         -10.0354   -6.7289   18.6996 C.2     1  UNL1        0.0507
     17 O          -9.2093   -7.9728   18.8420 O.co2   1  UNL1       -0.5492
     18 O         -20.0307   -6.4804   16.9790 O.3     1  UNL1       -0.4753
     19 C         -18.7005   -5.7875   16.9593 C.ar    1  UNL1        0.1386
     20 C         -18.4547   -4.6103   17.8560 C.ar    1  UNL1        0.0370
     21 C         -17.1244   -3.9174   17.8364 C.ar    1  UNL1        0.0051
     22 C         -16.0400   -4.4016   16.9200 C.ar    1  UNL1        0.0240
     23 C         -16.2859   -5.5787   16.0234 C.ar    1  UNL1        0.0051
     24 C         -17.6161   -6.2716   16.0430 C.ar    1  UNL1        0.0370
     25 C         -14.7098   -3.7087   16.9003 C.ar    1  UNL1        0.1100
     26 N         -13.4774   -4.1862   16.1910 N.ar    1  UNL1       -0.2430
     27 C         -12.3843   -3.1892   16.4388 C.ar    1  UNL1        0.0615
     28 C         -12.9413   -2.0955   17.3012 C.ar    1  UNL1        0.0222
     29 S         -14.3785   -2.4166   17.5865 S.2     1  UNL1       -0.0712
     30 C         -12.0678   -0.9486   17.7154 C.3     1  UNL1        0.0342
     31 C         -10.6374   -0.8954   17.2671 C.3     1  UNL1        0.0057
     32 C         -10.0804   -1.9890   16.4047 C.3     1  UNL1        0.0067
     33 C         -10.9539   -3.1360   15.9906 C.3     1  UNL1        0.0460
@<TRIPOS>UNITY_ATOM_ATTR
15 1
charge -1
@<TRIPOS>BOND
     1    15    16   ar
     2    16    17   ar
     3    16    14    1
     4     5    14    1
     5     5     6    1
     6     6     7    1
     7     7     8    1
     8     8     9   ar
     9     9    10   ar
    10    10     4    1
    11     4     3    1
    12     3     2    1
    13     2     1    1
    14     1    18    1
    15    18    19    1
    16    19    20   ar
    17    20    21   ar
    18    21    22   ar
    19    22    25    1
    20    25    26   ar
    21    26    27   ar
    22    27    28   ar
    23    28    29   ar
    24    28    30    1
    25    30    31    1
    26    31    32    1
    27    32    33    1
    28    22    23   ar
    29    23    24   ar
    30    10    11   ar
    31    11    12   ar
    32    12    13   ar
    33    13     5    1
    34    13     8   ar
    35    24    19   ar
    36    29    25   ar
    37    33    27    1
@<TRIPOS>MOLECULE
*****
 33 37 0 0 0
SMALL
GASTEIGER

@<TRIPOS>ATOM
      1 C         -17.6226   -8.2426   18.7255 C.3     1  UNL1        0.2093
      2 C         -16.5715   -9.3127   18.7270 C.3     1  UNL1        0.0946
      3 C         -15.4486   -9.2623   17.7338 C.3     1  UNL1        0.2093
      4 O         -14.0872   -8.8020   18.1635 O.3     1  UNL1       -0.4753
      5 C         -13.1059   -2.9884   19.1351 C.3     1  UNL1        0.0279
      6 C         -13.6539   -2.8877   20.5277 C.3     1  UNL1        0.0094
      7 C         -14.1429   -4.2466   20.9328 C.3     1  UNL1        0.0265
      8 C         -13.8971   -5.1872   19.7905 C.ar    1  UNL1       -0.0231
      9 C         -14.1741   -6.6514   19.6186 C.ar    1  UNL1        0.0323
     10 C         -13.8102   -7.3378   18.3355 C.ar    1  UNL1        0.1382
     11 C         -13.1693   -6.5602   17.2244 C.ar    1  UNL1        0.0366
     12 C         -12.8924   -5.0961   17.3964 C.ar    1  UNL1       -0.0015
     13 C         -13.2563   -4.4096   18.6794 C.ar    1  UNL1       -0.0259
     14 C         -12.5119   -1.8652   18.3379 C.3     1  UNL1        0.0460
     15 O         -10.2005   -3.0506   18.3883 O.co2   1  UNL1       -0.5492
     16 C         -11.0537   -1.8841   17.9864 C.2     1  UNL1        0.0507
     17 O         -10.4488   -0.7367   17.2332 O.co2   1  UNL1       -0.5492
     18 O         -17.5822   -7.1529   17.6954 O.3     1  UNL1       -0.4753
     19 C         -17.3999   -5.7259   18.1201 C.ar    1  UNL1        0.1386
     20 C         -16.7277   -4.7497   17.2005 C.ar    1  UNL1        0.0370
     21 C         -16.5455   -3.3227   17.6252 C.ar    1  UNL1        0.0051
     22 C         -17.0354   -2.8718   18.9694 C.ar    1  UNL1        0.0240
     23 C         -17.7075   -3.8479   19.8888 C.ar    1  UNL1        0.0051
     24 C         -17.8897   -5.2749   19.4642 C.ar    1  UNL1        0.0370
     25 C         -16.8531   -1.4447   19.3940 C.ar    1  UNL1        0.1100
     26 N         -17.5381   -0.7737   20.5474 N.ar    1  UNL1       -0.2430
     27 C         -17.0622    0.6476   20.6061 C.ar    1  UNL1        0.0615
     28 C         -16.0830    0.8550   19.4888 C.ar    1  UNL1        0.0222
     29 S         -15.9537   -0.4381   18.7397 S.2     1  UNL1       -0.0712
     30 C         -15.4356    2.1945   19.2980 C.3     1  UNL1        0.0342
     31 C         -15.7674    3.3267   20.2243 C.3     1  UNL1        0.0057
     32 C         -16.7466    3.1193   21.3415 C.3     1  UNL1        0.0067
     33 C         -17.3940    1.7798   21.5324 C.3     1  UNL1        0.0460
@<TRIPOS>UNITY_ATOM_ATTR
15 1
charge -1
@<TRIPOS>BOND
     1    15    16   ar
     2    16    17   ar
     3    16    14    1
     4     5    14    1
     5     5     6    1
     6     6     7    1
     7     7     8    1
     8     8     9   ar
     9     9    10   ar
    10    10     4    1
    11     4     3    1
    12     3     2    1
    13     2     1    1
    14     1    18    1
    15    18    19    1
    16    19    20   ar
    17    20    21   ar
    18    21    22   ar
    19    22    25    1
    20    25    26   ar
    21    26    27   ar
    22    27    28   ar
    23    28    29   ar
    24    28    30    1
    25    30    31    1
    26    31    32    1
    27    32    33    1
    28    22    23   ar
    29    23    24   ar
    30    10    11   ar
    31    11    12   ar
    32    12    13   ar
    33    13     5    1
    34    13     8   ar
    35    24    19   ar
    36    29    25   ar
    37    33    27    1
@<TRIPOS>MOLECULE
*****
 33 37 0 0 0
SMALL
GASTEIGER

@<TRIPOS>ATOM
      1 C           2.2277    2.3208   22.6960 C.3     1  UNL1        0.2093
      2 C           0.8748    2.1423   22.0734 C.3     1  UNL1        0.0946
      3 C           0.6371    2.5781   20.6579 C.3     1  UNL1        0.2093
      4 O           0.5699    1.5580   19.5603 O.3     1  UNL1       -0.4753
      5 C           4.9689   -2.4323   18.9032 C.3     1  UNL1        0.0279
      6 C           5.8348   -1.6708   17.9439 C.3     1  UNL1        0.0094
      7 C           5.1694   -0.3564   17.6619 C.3     1  UNL1        0.0265
      8 C           3.8923   -0.3055   18.4470 C.ar    1  UNL1       -0.0231
      9 C           2.8262    0.7433   18.5623 C.ar    1  UNL1        0.0323
     10 C           1.6361    0.5091   19.4449 C.ar    1  UNL1        0.1382
     11 C           1.5122   -0.7739   20.2120 C.ar    1  UNL1        0.0366
     12 C           2.5783   -1.8227   20.0966 C.ar    1  UNL1       -0.0015
     13 C           3.7683   -1.5885   19.2141 C.ar    1  UNL1       -0.0259
     14 C           5.2535   -3.7979   19.4548 C.3     1  UNL1        0.0460
     15 O           2.9172   -4.7949   18.9092 O.co2   1  UNL1       -0.5492
     16 C           4.4011   -4.9635   19.0485 C.2     1  UNL1        0.0507
     17 O           5.0328   -6.2976   18.7817 O.co2   1  UNL1       -0.5492
     18 O           3.4609    1.9363   21.9334 O.3     1  UNL1       -0.4753
     19 C           4.1918    0.6724   22.2773 C.ar    1  UNL1        0.1386
     20 C           5.5463    0.4059   21.6904 C.ar    1  UNL1        0.0370
     21 C           6.2773   -0.8580   22.0343 C.ar    1  UNL1        0.0051
     22 C           5.6536   -1.8554   22.9651 C.ar    1  UNL1        0.0240
     23 C           4.2992   -1.5889   23.5520 C.ar    1  UNL1        0.0051
     24 C           3.5683   -0.3250   23.2080 C.ar    1  UNL1        0.0370
     25 C           6.3846   -3.1194   23.3090 C.ar    1  UNL1        0.1100
     26 N           6.2892   -3.8682   24.6053 N.ar    1  UNL1       -0.2430
     27 C           7.1849   -5.0680   24.5145 C.ar    1  UNL1        0.0615
     28 C           7.8338   -5.0607   23.1621 C.ar    1  UNL1        0.0222
     29 S           7.3392   -3.8564   22.4171 S.2     1  UNL1       -0.0712
     30 C           8.7912   -6.1516   22.7838 C.3     1  UNL1        0.0342
     31 C           9.0997   -7.2498   23.7578 C.3     1  UNL1        0.0057
     32 C           8.4508   -7.2571   25.1101 C.3     1  UNL1        0.0067
     33 C           7.4934   -6.1662   25.4885 C.3     1  UNL1        0.0460
@<TRIPOS>UNITY_ATOM_ATTR
15 1
charge -1
@<TRIPOS>BOND
     1    15    16   ar
     2    16    17   ar
     3    16    14    1
     4     5    14    1
     5     5     6    1
     6     6     7    1
     7     7     8    1
     8     8     9   ar
     9     9    10   ar
    10    10     4    1
    11     4     3    1
    12     3     2    1
    13     2     1    1
    14     1    18    1
    15    18    19    1
    16    19    20   ar
    17    20    21   ar
    18    21    22   ar
    19    22    25    1
    20    25    26   ar
    21    26    27   ar
    22    27    28   ar
    23    28    29   ar
    24    28    30    1
    25    30    31    1
    26    31    32    1
    27    32    33    1
    28    22    23   ar
    29    23    24   ar
    30    10    11   ar
    31    11    12   ar
    32    12    13   ar
    33    13     5    1
    34    13     8   ar
    35    24    19   ar
    36    29    25   ar
    37    33    27    1
@<TRIPOS>MOLECULE
*****
 33 37 0 0 0
SMALL
GASTEIGER

@<TRIPOS>ATOM
      1 C           6.7611   -2.3270   21.3292 C.3     1  UNL1        0.2093
      2 C           6.8350   -3.3989   20.2825 C.3     1  UNL1        0.0946
      3 C           5.5864   -4.1031   19.8406 C.3     1  UNL1        0.2093
      4 O           4.8524   -3.6332   18.6198 O.3     1  UNL1       -0.4753
      5 C           1.4922    1.2926   19.0074 C.3     1  UNL1        0.0279
      6 C           0.4714    0.8033   19.9916 C.3     1  UNL1        0.0094
      7 C           0.8146   -0.6122   20.3501 C.3     1  UNL1        0.0265
      8 C           2.0475   -0.9977   19.5876 C.ar    1  UNL1       -0.0231
      9 C           2.8428   -2.2686   19.5416 C.ar    1  UNL1        0.0323
     10 C           4.0570   -2.3622   18.6658 C.ar    1  UNL1        0.1382
     11 C           4.4757   -1.1850   17.8359 C.ar    1  UNL1        0.0366
     12 C           3.6804    0.0859   17.8819 C.ar    1  UNL1       -0.0015
     13 C           2.4662    0.1796   18.7577 C.ar    1  UNL1       -0.0259
     14 C           1.5320    2.6557   18.3826 C.3     1  UNL1        0.0460
     15 O           3.7700    3.8551   17.8321 O.co2   1  UNL1       -0.5492
     16 C           2.6148    3.6227   18.7603 C.2     1  UNL1        0.0507
     17 O           2.5425    4.3570   20.0663 O.co2   1  UNL1       -0.5492
     18 O           6.2675   -0.9577   20.9668 O.3     1  UNL1       -0.4753
     19 C           5.0879   -0.3714   21.6843 C.ar    1  UNL1        0.1386
     20 C           4.6953    1.0557   21.4407 C.ar    1  UNL1        0.0370
     21 C           3.5157    1.6420   22.1582 C.ar    1  UNL1        0.0051
     22 C           2.7287    0.8011   23.1193 C.ar    1  UNL1        0.0240
     23 C           3.1214   -0.6259   23.3629 C.ar    1  UNL1        0.0051
     24 C           4.3010   -1.2122   22.6454 C.ar    1  UNL1        0.0370
     25 C           1.5491    1.3874   23.8368 C.ar    1  UNL1        0.1100
     26 N           1.1544    1.1107   25.2573 N.ar    1  UNL1       -0.2430
     27 C          -0.0815    1.9055   25.5582 C.ar    1  UNL1        0.0615
     28 C          -0.4507    2.6735   24.3238 C.ar    1  UNL1        0.0222
     29 S           0.5570    2.3533   23.2599 S.2     1  UNL1       -0.0712
     30 C          -1.6569    3.5652   24.3279 C.3     1  UNL1        0.0342
     31 C          -2.4938    3.6889   25.5665 C.3     1  UNL1        0.0057
     32 C          -2.1246    2.9209   26.8010 C.3     1  UNL1        0.0067
     33 C          -0.9185    2.0292   26.7968 C.3     1  UNL1        0.0460
@<TRIPOS>UNITY_ATOM_ATTR
15 1
charge -1
@<TRIPOS>BOND
     1    15    16   ar
     2    16    17   ar
     3    16    14    1
     4     5    14    1
     5     5     6    1
     6     6     7    1
     7     7     8    1
     8     8     9   ar
     9     9    10   ar
    10    10     4    1
    11     4     3    1
    12     3     2    1
    13     2     1    1
    14     1    18    1
    15    18    19    1
    16    19    20   ar
    17    20    21   ar
    18    21    22   ar
    19    22    25    1
    20    25    26   ar
    21    26    27   ar
    22    27    28   ar
    23    28    29   ar
    24    28    30    1
    25    30    31    1
    26    31    32    1
    27    32    33    1
    28    22    23   ar
    29    23    24   ar
    30    10    11   ar
    31    11    12   ar
    32    12    13   ar
    33    13     5    1
    34    13     8   ar
    35    24    19   ar
    36    29    25   ar
    37    33    27    1
@<TRIPOS>MOLECULE
*****
 33 37 0 0 0
SMALL
GASTEIGER

@<TRIPOS>ATOM
      1 C           2.2581    3.6653   21.4149 C.3     1  UNL1        0.2093
      2 C           1.2688    4.0114   20.3418 C.3     1  UNL1        0.0946
      3 C           0.0858    3.1222   20.0972 C.3     1  UNL1        0.2093
      4 O           0.1436    2.0751   19.0248 O.3     1  UNL1       -0.4753
      5 C           4.3894   -2.1281   19.1273 C.3     1  UNL1        0.0279
      6 C           5.3667   -1.4974   18.1801 C.3     1  UNL1        0.0094
      7 C           4.7894   -0.1916   17.7201 C.3     1  UNL1        0.0265
      8 C           3.4554   -0.0153   18.3830 C.ar    1  UNL1       -0.0231
      9 C           2.4339    1.0804   18.3070 C.ar    1  UNL1        0.0323
     10 C           1.1652    0.9793   19.1008 C.ar    1  UNL1        0.1382
     11 C           0.9180   -0.2176   19.9705 C.ar    1  UNL1        0.0366
     12 C           1.9395   -1.3133   20.0465 C.ar    1  UNL1       -0.0015
     13 C           3.2082   -1.2122   19.2527 C.ar    1  UNL1       -0.0259
     14 C           4.5629   -3.4439   19.8264 C.3     1  UNL1        0.0460
     15 O           4.8825   -5.8817   18.9866 O.co2   1  UNL1       -0.5492
     16 C           3.9964   -4.6946   19.2224 C.2     1  UNL1        0.0507
     17 O           2.5437   -4.7582   18.8541 O.co2   1  UNL1       -0.5492
     18 O           1.9809    2.5269   22.3516 O.3     1  UNL1       -0.4753
     19 C           2.9517    1.3882   22.4560 C.ar    1  UNL1        0.1386
     20 C           2.6138    0.1887   23.2909 C.ar    1  UNL1        0.0370
     21 C           3.5846   -0.9500   23.3953 C.ar    1  UNL1        0.0051
     22 C           4.8933   -0.8892   22.6647 C.ar    1  UNL1        0.0240
     23 C           5.2311    0.3102   21.8297 C.ar    1  UNL1        0.0051
     24 C           4.2603    1.4489   21.7254 C.ar    1  UNL1        0.0370
     25 C           5.8641   -2.0280   22.7690 C.ar    1  UNL1        0.1100
     26 N           7.0776   -2.2334   21.9117 N.ar    1  UNL1       -0.2430
     27 C           7.7553   -3.4936   22.3618 C.ar    1  UNL1        0.0615
     28 C           6.9606   -4.0670   23.4974 C.ar    1  UNL1        0.0222
     29 S           5.7917   -3.1613   23.7491 S.2     1  UNL1       -0.0712
     30 C           7.4039   -5.3399   24.1555 C.3     1  UNL1        0.0342
     31 C           8.6420   -6.0393   23.6781 C.3     1  UNL1        0.0057
     32 C           9.4367   -5.4658   22.5425 C.3     1  UNL1        0.0067
     33 C           8.9934   -4.1929   21.8844 C.3     1  UNL1        0.0460
@<TRIPOS>UNITY_ATOM_ATTR
15 1
charge -1
@<TRIPOS>BOND
     1    15    16   ar
     2    16    17   ar
     3    16    14    1
     4     5    14    1
     5     5     6    1
     6     6     7    1
     7     7     8    1
     8     8     9   ar
     9     9    10   ar
    10    10     4    1
    11     4     3    1
    12     3     2    1
    13     2     1    1
    14     1    18    1
    15    18    19    1
    16    19    20   ar
    17    20    21   ar
    18    21    22   ar
    19    22    25    1
    20    25    26   ar
    21    26    27   ar
    22    27    28   ar
    23    28    29   ar
    24    28    30    1
    25    30    31    1
    26    31    32    1
    27    32    33    1
    28    22    23   ar
    29    23    24   ar
    30    10    11   ar
    31    11    12   ar
    32    12    13   ar
    33    13     5    1
    34    13     8   ar
    35    24    19   ar
    36    29    25   ar
    37    33    27    1
@<TRIPOS>MOLECULE
*****
 33 37 0 0 0
SMALL
GASTEIGER

@<TRIPOS>ATOM
      1 C           7.3608   -1.1812   20.1367 C.3     1  UNL1        0.2093
      2 C           7.1287   -2.3128   19.1798 C.3     1  UNL1        0.0946
      3 C           6.0660   -3.3317   19.4667 C.3     1  UNL1        0.2093
      4 O           4.7878   -3.3236   18.6819 O.3     1  UNL1       -0.4753
      5 C           1.0769    1.3453   19.0507 C.3     1  UNL1        0.0279
      6 C           0.2213    0.8754   20.1896 C.3     1  UNL1        0.0094
      7 C           0.7252   -0.4691   20.6238 C.3     1  UNL1        0.0265
      8 C           1.8921   -0.8301   19.7532 C.ar    1  UNL1       -0.0231
      9 C           2.7848   -2.0350   19.7202 C.ar    1  UNL1        0.0323
     10 C           3.8950   -2.1186   18.7149 C.ar    1  UNL1        0.1382
     11 C           4.1124   -0.9972   17.7427 C.ar    1  UNL1        0.0366
     12 C           3.2197    0.2077   17.7757 C.ar    1  UNL1       -0.0015
     13 C           2.1095    0.2913   18.7810 C.ar    1  UNL1       -0.0259
     14 C           0.9264    2.6417   18.3113 C.3     1  UNL1        0.0460
     15 O          -1.2166    3.5246   17.1372 O.co2   1  UNL1       -0.5492
     16 C          -0.3713    3.3919   18.3692 C.2     1  UNL1        0.0507
     17 O          -0.8238    4.0093   19.6593 O.co2   1  UNL1       -0.5492
     18 O           6.6136    0.1086   19.9682 O.3     1  UNL1       -0.4753
     19 C           5.4853    0.4485   20.8963 C.ar    1  UNL1        0.1386
     20 C           5.0820   -0.5166   21.9716 C.ar    1  UNL1        0.0370
     21 C           3.9537   -0.1768   22.8997 C.ar    1  UNL1        0.0051
     22 C           3.2286    1.1281   22.7525 C.ar    1  UNL1        0.0240
     23 C           3.6319    2.0931   21.6773 C.ar    1  UNL1        0.0051
     24 C           4.7602    1.7533   20.7492 C.ar    1  UNL1        0.0370
     25 C           2.1003    1.4680   23.6806 C.ar    1  UNL1        0.1100
     26 N           0.9801    2.4235   23.3939 N.ar    1  UNL1       -0.2430
     27 C           0.0815    2.4580   24.5945 C.ar    1  UNL1        0.0615
     28 C           0.6463    1.5238   25.6232 C.ar    1  UNL1        0.0222
     29 S           1.8940    0.9119   25.0585 S.2     1  UNL1       -0.0712
     30 C          -0.0484    1.3510   26.9413 C.3     1  UNL1        0.0342
     31 C          -1.3080    2.1124   27.2307 C.3     1  UNL1        0.0057
     32 C          -1.8728    3.0466   26.2019 C.3     1  UNL1        0.0067
     33 C          -1.1780    3.2194   24.8839 C.3     1  UNL1        0.0460
@<TRIPOS>UNITY_ATOM_ATTR
15 1
charge -1
@<TRIPOS>BOND
     1    15    16   ar
     2    16    17   ar
     3    16    14    1
     4     5    14    1
     5     5     6    1
     6     6     7    1
     7     7     8    1
     8     8     9   ar
     9     9    10   ar
    10    10     4    1
    11     4     3    1
    12     3     2    1
    13     2     1    1
    14     1    18    1
    15    18    19    1
    16    19    20   ar
    17    20    21   ar
    18    21    22   ar
    19    22    25    1
    20    25    26   ar
    21    26    27   ar
    22    27    28   ar
    23    28    29   ar
    24    28    30    1
    25    30    31    1
    26    31    32    1
    27    32    33    1
    28    22    23   ar
    29    23    24   ar
    30    10    11   ar
    31    11    12   ar
    32    12    13   ar
    33    13     5    1
    34    13     8   ar
    35    24    19   ar
    36    29    25   ar
    37    33    27    1
@<TRIPOS>MOLECULE
*****
 33 37 0 0 0
SMALL
GASTEIGER

@<TRIPOS>ATOM
      1 C           5.9962   -2.1457   18.1933 C.3     1  UNL1        0.2093
      2 C           7.1634   -2.4552   19.0831 C.3     1  UNL1        0.0946
      3 C           6.9335   -3.0323   20.4484 C.3     1  UNL1        0.2093
      4 O           6.9678   -2.1415   21.6547 O.3     1  UNL1       -0.4753
      5 C           2.2427    1.2526   23.0178 C.3     1  UNL1        0.0279
      6 C           2.6394    2.5070   22.2974 C.3     1  UNL1        0.0094
      7 C           3.9639    2.2630   21.6369 C.3     1  UNL1        0.0265
      8 C           4.3857    0.8578   21.9491 C.ar    1  UNL1       -0.0231
      9 C           5.6010    0.0662   21.5665 C.ar    1  UNL1        0.0323
     10 C           5.7525   -1.3499   22.0373 C.ar    1  UNL1        0.1382
     11 C           4.6888   -1.9743   22.8909 C.ar    1  UNL1        0.0366
     12 C           3.4735   -1.1828   23.2735 C.ar    1  UNL1       -0.0015
     13 C           3.3219    0.2333   22.8026 C.ar    1  UNL1       -0.0259
     14 C           0.9872    1.0525   23.8138 C.3     1  UNL1        0.0460
     15 O           2.2735    1.6229   25.9980 O.co2   1  UNL1       -0.5492
     16 C           0.9887    1.3037   25.2927 C.2     1  UNL1        0.0507
     17 O          -0.2946    1.2356   26.0664 O.co2   1  UNL1       -0.5492
     18 O           4.6100   -2.5387   18.6107 O.3     1  UNL1       -0.4753
     19 C           3.5676   -1.4841   18.8373 C.ar    1  UNL1        0.1386
     20 C           2.4389   -1.7382   19.7920 C.ar    1  UNL1        0.0370
     21 C           1.3965   -0.6836   20.0186 C.ar    1  UNL1        0.0051
     22 C           1.4829    0.6250   19.2905 C.ar    1  UNL1        0.0240
     23 C           2.6116    0.8790   18.3358 C.ar    1  UNL1        0.0051
     24 C           3.6539   -0.1756   18.1092 C.ar    1  UNL1        0.0370
     25 C           0.4405    1.6796   19.5170 C.ar    1  UNL1        0.1100
     26 N          -0.5677    1.6985   20.6275 N.ar    1  UNL1       -0.2430
     27 C          -1.4080    2.9310   20.4697 C.ar    1  UNL1        0.0615
     28 C          -0.9191    3.6738   19.2617 C.ar    1  UNL1        0.0222
     29 S           0.2234    2.9004   18.6729 S.2     1  UNL1       -0.0712
     30 C          -1.5773    4.9585   18.8540 C.3     1  UNL1        0.0342
     31 C          -2.7245    5.5004   19.6542 C.3     1  UNL1        0.0057
     32 C          -3.2134    4.7576   20.8622 C.3     1  UNL1        0.0067
     33 C          -2.5551    3.4729   21.2699 C.3     1  UNL1        0.0460
@<TRIPOS>UNITY_ATOM_ATTR
15 1
charge -1
@<TRIPOS>BOND
     1    15    16   ar
     2    16    17   ar
     3    16    14    1
     4     5    14    1
     5     5     6    1
     6     6     7    1
     7     7     8    1
     8     8     9   ar
     9     9    10   ar
    10    10     4    1
    11     4     3    1
    12     3     2    1
    13     2     1    1
    14     1    18    1
    15    18    19    1
    16    19    20   ar
    17    20    21   ar
    18    21    22   ar
    19    22    25    1
    20    25    26   ar
    21    26    27   ar
    22    27    28   ar
    23    28    29   ar
    24    28    30    1
    25    30    31    1
    26    31    32    1
    27    32    33    1
    28    22    23   ar
    29    23    24   ar
    30    10    11   ar
    31    11    12   ar
    32    12    13   ar
    33    13     5    1
    34    13     8   ar
    35    24    19   ar
    36    29    25   ar
    37    33    27    1
