@<TRIPOS>MOLECULE
*****
 38 42 0 0 0
SMALL
GASTEIGER

@<TRIPOS>ATOM
      1 C           5.9909   -3.8422   23.2689 C.ar    1  UNL1        0.1350
      2 C           5.8744   -3.0084   24.5104 C.ar    1  UNL1        0.0535
      3 C           6.6969   -3.3440   25.7190 C.ar    1  UNL1        0.0859
      4 N           7.6359   -4.5132   25.6862 N.ar    1  UNL1       -0.2239
      5 C           7.7525   -5.3469   24.4448 C.ar    1  UNL1        0.2000
      6 N           6.9300   -5.0114   23.2361 N.ar    1  UNL1       -0.2090
      7 N           3.5508   -4.1943   18.5996 N.3     1  UNL1       -0.3205
      8 C           4.0468   -3.6685   19.9139 C.3     1  UNL1        0.0766
      9 C           4.9181   -4.4066   20.8866 C.3     1  UNL1        0.1079
     10 N           5.1684   -3.5067   22.0602 N.pl3   1  UNL1       -0.2914
     11 C           4.4518   -2.2123   21.8130 C.3     1  UNL1        0.0980
     12 C           3.7586   -2.3124   20.4865 C.3     1  UNL1        0.0602
     13 H           3.8978   -5.1432   18.4602 H       1  UNL1        0.1189
     14 H           3.8865   -3.5953   17.8453 H       1  UNL1        0.1189
     15 C           2.9237   -1.2438   19.8452 C.ar    1  UNL1        0.0103
     16 C           1.6298   -0.8230   20.4765 C.ar    1  UNL1        0.0300
     17 C           0.7949    0.2455   19.8352 C.ar    1  UNL1        0.1672
     18 F          -0.4990    0.6664   20.4665 F       1  UNL1       -0.2018
     19 C           1.2541    0.8932   18.5625 C.ar    1  UNL1        0.1696
     20 F           0.4192    1.9617   17.9212 F       1  UNL1       -0.2017
     21 C           2.5481    0.4724   17.9311 C.ar    1  UNL1        0.0612
     22 C           3.3828   -0.5961   18.5725 C.ar    1  UNL1        0.1386
     23 F           4.6769   -1.0170   17.9411 F       1  UNL1       -0.2044
     24 C           6.5804   -2.5102   26.9606 C.ar    1  UNL1        0.0191
     25 C           7.7920   -2.2504   27.8059 C.ar    1  UNL1        0.0016
     26 C           7.6756   -1.4167   29.0474 C.ar    1  UNL1        0.0014
     27 C           6.3475   -0.8428   29.4436 C.ar    1  UNL1        0.0199
     28 C           5.1359   -1.1026   28.5983 C.ar    1  UNL1        0.1222
     29 C           5.2524   -1.9363   27.3567 C.ar    1  UNL1        0.0214
     30 S           3.8079   -0.5286   28.9944 S.O2    1  UNL1        0.0634
     31 O           4.4830    0.3153   30.0346 O.2     1  UNL1       -0.1528
     32 O           3.1329   -1.3726   27.9543 O.2     1  UNL1       -0.1528
     33 N           2.4799    0.0453   29.3906 N.3     1  UNL1       -0.1504
     34 C           1.2342   -0.3806   28.6716 C.3     1  UNL1        0.1279
     35 C          -0.0938    0.1933   29.0677 C.3     1  UNL1        0.1613
     36 O          -0.1762    1.1931   30.1829 O.3     1  UNL1       -0.3507
     37 C           1.0694    1.6190   30.9019 C.3     1  UNL1        0.1613
     38 C           2.3975    1.0451   30.5057 C.3     1  UNL1        0.1279
@<TRIPOS>BOND
     1     7     8    1
     2     8     9    1
     3     9    10    1
     4    10     1    1
     5     1     2   ar
     6     2     3   ar
     7     3    24    1
     8    24    25   ar
     9    25    26   ar
    10    26    27   ar
    11    27    28   ar
    12    28    30    1
    13    30    31    2
    14    30    32    2
    15    30    33    1
    16    33    34    1
    17    34    35    1
    18    35    36    1
    19    36    37    1
    20    37    38    1
    21    28    29   ar
    22     3     4   ar
    23     4     5   ar
    24     5     6   ar
    25    10    11    1
    26    11    12    1
    27    12    15    1
    28    15    16   ar
    29    16    17   ar
    30    17    18    1
    31    17    19   ar
    32    19    20    1
    33    19    21   ar
    34    21    22   ar
    35    22    23    1
    36    12     8    1
    37    22    15   ar
    38     6     1   ar
    39    29    24   ar
    40    38    33    1
    41     7    13    1
    42     7    14    1
@<TRIPOS>MOLECULE
*****
 38 42 0 0 0
SMALL
GASTEIGER

@<TRIPOS>ATOM
      1 C           7.4441   -4.2763   22.0262 C.ar    1  UNL1        0.1350
      2 C           7.4250   -4.7306   23.4556 C.ar    1  UNL1        0.0535
      3 C           8.0672   -6.0311   23.8378 C.ar    1  UNL1        0.0859
      4 N           8.7286   -6.8773   22.7907 N.ar    1  UNL1       -0.2239
      5 C           8.7477   -6.4230   21.3613 C.ar    1  UNL1        0.2000
      6 N           8.1054   -5.1225   20.9791 N.ar    1  UNL1       -0.2090
      7 N           6.5214    0.8907   21.4499 N.3     1  UNL1       -0.3205
      8 C           6.3777   -0.6007   21.3791 C.3     1  UNL1        0.0766
      9 C           7.3372   -1.6067   21.9424 C.3     1  UNL1        0.1079
     10 N           6.8018   -2.9757   21.6439 N.pl3   1  UNL1       -0.2914
     11 C           5.5114   -2.8159   20.8961 C.3     1  UNL1        0.0980
     12 C           5.2492   -1.3481   20.7324 C.3     1  UNL1        0.0602
     13 H           7.3812    1.1263   21.9455 H       1  UNL1        0.1189
     14 H           5.7232    1.2859   21.9471 H       1  UNL1        0.1189
     15 C           4.0664   -0.7352   20.0430 C.ar    1  UNL1        0.0103
     16 C           2.6950   -0.8837   20.6322 C.ar    1  UNL1        0.0300
     17 C           1.5121   -0.2708   19.9428 C.ar    1  UNL1        0.1672
     18 F           0.1407   -0.4192   20.5320 F       1  UNL1       -0.2018
     19 C           1.7007    0.4906   18.6643 C.ar    1  UNL1        0.1696
     20 F           0.5178    1.1034   17.9749 F       1  UNL1       -0.2017
     21 C           3.0722    0.6391   18.0750 C.ar    1  UNL1        0.0612
     22 C           4.2549    0.0262   18.7644 C.ar    1  UNL1        0.1386
     23 F           5.6264    0.1746   18.1752 F       1  UNL1       -0.2044
     24 C           8.0482   -6.4855   25.2673 C.ar    1  UNL1        0.0191
     25 C           8.4542   -7.8872   25.6141 C.ar    1  UNL1        0.0016
     26 C           8.4351   -8.3416   27.0435 C.ar    1  UNL1        0.0014
     27 C           8.0100   -7.3943   28.1261 C.ar    1  UNL1        0.0199
     28 C           7.6040   -5.9926   27.7792 C.ar    1  UNL1        0.1222
     29 C           7.6231   -5.5382   26.3498 C.ar    1  UNL1        0.0214
     30 S           7.1789   -5.0452   28.8617 S.O2    1  UNL1        0.0634
     31 O           7.4028   -6.1167   29.8873 O.2     1  UNL1       -0.1528
     32 O           6.9550   -3.9738   27.8361 O.2     1  UNL1       -0.1528
     33 N           6.7538   -4.0979   29.9442 N.3     1  UNL1       -0.1504
     34 C           6.8232   -4.5216   31.3815 C.3     1  UNL1        0.1279
     35 C           6.3981   -3.5743   32.4640 C.3     1  UNL1        0.1613
     36 O           5.9037   -2.2033   32.1093 O.3     1  UNL1       -0.3507
     37 C           5.8343   -1.7796   30.6721 C.3     1  UNL1        0.1613
     38 C           6.2594   -2.7269   29.5895 C.3     1  UNL1        0.1279
@<TRIPOS>BOND
     1     7     8    1
     2     8     9    1
     3     9    10    1
     4    10     1    1
     5     1     2   ar
     6     2     3   ar
     7     3    24    1
     8    24    25   ar
     9    25    26   ar
    10    26    27   ar
    11    27    28   ar
    12    28    30    1
    13    30    31    2
    14    30    32    2
    15    30    33    1
    16    33    34    1
    17    34    35    1
    18    35    36    1
    19    36    37    1
    20    37    38    1
    21    28    29   ar
    22     3     4   ar
    23     4     5   ar
    24     5     6   ar
    25    10    11    1
    26    11    12    1
    27    12    15    1
    28    15    16   ar
    29    16    17   ar
    30    17    18    1
    31    17    19   ar
    32    19    20    1
    33    19    21   ar
    34    21    22   ar
    35    22    23    1
    36    12     8    1
    37    22    15   ar
    38     6     1   ar
    39    29    24   ar
    40    38    33    1
    41     7    13    1
    42     7    14    1
@<TRIPOS>MOLECULE
*****
 38 42 0 0 0
SMALL
GASTEIGER

@<TRIPOS>ATOM
      1 C           0.9334    1.1046   21.4260 C.ar    1  UNL1        0.1350
      2 C           1.8776   -0.0607   21.4485 C.ar    1  UNL1        0.0535
      3 C           2.3497   -0.6683   20.1610 C.ar    1  UNL1        0.0859
      4 N           1.8775   -0.1108   18.8509 N.ar    1  UNL1       -0.2239
      5 C           0.9333    1.0545   18.8284 C.ar    1  UNL1        0.2000
      6 N           0.4612    1.6622   20.1160 N.ar    1  UNL1       -0.2090
      7 N          -1.4612    4.2794   24.8999 N.3     1  UNL1       -0.3205
      8 C          -0.6394    3.1717   24.3103 C.3     1  UNL1        0.0766
      9 C          -0.4216    2.9175   22.8482 C.3     1  UNL1        0.1079
     10 N           0.4613    1.7124   22.7136 N.pl3   1  UNL1       -0.2914
     11 C           0.7891    1.2217   24.0926 C.3     1  UNL1        0.0980
     12 C           0.1089    2.1235   25.0795 C.3     1  UNL1        0.0602
     13 H          -1.8577    4.8451   24.1494 H       1  UNL1        0.1189
     14 H          -0.8699    4.8642   25.4904 H       1  UNL1        0.1189
     15 C           0.1668    1.9992   26.5732 C.ar    1  UNL1        0.0103
     16 C          -0.6983    0.9955   27.2763 C.ar    1  UNL1        0.0300
     17 C          -0.6404    0.8712   28.7700 C.ar    1  UNL1        0.1672
     18 F          -1.5055   -0.1325   29.4731 F       1  UNL1       -0.2018
     19 C           0.2825    1.7504   29.5605 C.ar    1  UNL1        0.1696
     20 F           0.3404    1.6260   31.0543 F       1  UNL1       -0.2017
     21 C           1.1477    2.7541   28.8574 C.ar    1  UNL1        0.0612
     22 C           1.0897    2.8784   27.3638 C.ar    1  UNL1        0.1386
     23 F           1.9548    3.8821   26.6606 F       1  UNL1       -0.2044
     24 C           3.2940   -1.8337   20.1834 C.ar    1  UNL1        0.0191
     25 C           3.4915   -2.6627   18.9491 C.ar    1  UNL1        0.0016
     26 C           4.4358   -3.8280   18.9714 C.ar    1  UNL1        0.0014
     27 C           5.1825   -4.1642   20.2282 C.ar    1  UNL1        0.0199
     28 C           4.9849   -3.3352   21.4626 C.ar    1  UNL1        0.1222
     29 C           4.0407   -2.1698   21.4401 C.ar    1  UNL1        0.0214
     30 S           5.7316   -3.6713   22.7193 S.O2    1  UNL1        0.0634
     31 O           4.7295   -2.8960   23.5221 O.2     1  UNL1       -0.1528
     32 O           6.7337   -4.4467   21.9165 O.2     1  UNL1       -0.1528
     33 N           6.4783   -4.0075   23.9760 N.3     1  UNL1       -0.1504
     34 C           7.4386   -5.1598   23.9924 C.3     1  UNL1        0.1279
     35 C           8.1853   -5.4959   25.2492 C.3     1  UNL1        0.1613
     36 O           7.9717   -4.6799   26.4895 O.3     1  UNL1       -0.3507
     37 C           7.0114   -3.5278   26.4732 C.3     1  UNL1        0.1613
     38 C           6.2647   -3.1915   25.2164 C.3     1  UNL1        0.1279
@<TRIPOS>BOND
     1     7     8    1
     2     8     9    1
     3     9    10    1
     4    10     1    1
     5     1     2   ar
     6     2     3   ar
     7     3    24    1
     8    24    25   ar
     9    25    26   ar
    10    26    27   ar
    11    27    28   ar
    12    28    30    1
    13    30    31    2
    14    30    32    2
    15    30    33    1
    16    33    34    1
    17    34    35    1
    18    35    36    1
    19    36    37    1
    20    37    38    1
    21    28    29   ar
    22     3     4   ar
    23     4     5   ar
    24     5     6   ar
    25    10    11    1
    26    11    12    1
    27    12    15    1
    28    15    16   ar
    29    16    17   ar
    30    17    18    1
    31    17    19   ar
    32    19    20    1
    33    19    21   ar
    34    21    22   ar
    35    22    23    1
    36    12     8    1
    37    22    15   ar
    38     6     1   ar
    39    29    24   ar
    40    38    33    1
    41     7    13    1
    42     7    14    1
@<TRIPOS>MOLECULE
*****
 38 42 0 0 0
SMALL
GASTEIGER

@<TRIPOS>ATOM
      1 C           0.1217    2.3694   23.1542 C.ar    1  UNL1        0.1350
      2 C           0.2329    1.5855   24.4282 C.ar    1  UNL1        0.0535
      3 C          -0.2260    2.1889   25.7225 C.ar    1  UNL1        0.0859
      4 N          -0.7962    3.5761   25.7429 N.ar    1  UNL1       -0.2239
      5 C          -0.9075    4.3600   24.4689 C.ar    1  UNL1        0.2000
      6 N          -0.4486    3.7567   23.1746 N.ar    1  UNL1       -0.2090
      7 N           0.5051    1.1842   18.0230 N.3     1  UNL1       -0.3205
      8 C           0.7568    1.2213   19.5013 C.3     1  UNL1        0.0766
      9 C          -0.0072    2.0321   20.5057 C.3     1  UNL1        0.1079
     10 N           0.5806    1.7661   21.8598 N.pl3   1  UNL1       -0.2914
     11 C           1.7079    0.7908   21.6924 C.3     1  UNL1        0.0980
     12 C           1.8169    0.4541   20.2347 C.3     1  UNL1        0.0602
     13 H          -0.2747    1.8010   17.7953 H       1  UNL1        0.1189
     14 H           0.2780    0.2307   17.7406 H       1  UNL1        0.1189
     15 C           2.8112   -0.4849   19.6186 C.ar    1  UNL1        0.0103
     16 C           2.8042   -1.9370   19.9945 C.ar    1  UNL1        0.0300
     17 C           3.7986   -2.8760   19.3784 C.ar    1  UNL1        0.1672
     18 F           3.7916   -4.3281   19.7543 F       1  UNL1       -0.2018
     19 C           4.7998   -2.3629   18.3865 C.ar    1  UNL1        0.1696
     20 F           5.7942   -3.3019   17.7704 F       1  UNL1       -0.2017
     21 C           4.8068   -0.9107   18.0105 C.ar    1  UNL1        0.0612
     22 C           3.8125    0.0282   18.6266 C.ar    1  UNL1        0.1386
     23 F           3.8195    1.4804   18.2507 F       1  UNL1       -0.2044
     24 C          -0.1147    1.4050   26.9966 C.ar    1  UNL1        0.0191
     25 C          -1.3394    1.1323   27.8188 C.ar    1  UNL1        0.0016
     26 C          -1.2281    0.3485   29.0928 C.ar    1  UNL1        0.0014
     27 C           0.1077   -0.1628   29.5447 C.ar    1  UNL1        0.0199
     28 C           1.3323    0.1099   28.7225 C.ar    1  UNL1        0.1222
     29 C           1.2211    0.8938   27.4484 C.ar    1  UNL1        0.0214
     30 S           2.6682   -0.4013   29.1744 S.O2    1  UNL1        0.0634
     31 O           2.1319   -0.5740   30.5645 O.2     1  UNL1       -0.1528
     32 O           3.2045   -0.2286   27.7842 O.2     1  UNL1       -0.1528
     33 N           4.0040   -0.9125   29.6262 N.3     1  UNL1       -0.1504
     34 C           5.0385   -1.3052   28.6134 C.3     1  UNL1        0.1279
     35 C           6.3743   -1.8164   29.0652 C.3     1  UNL1        0.1613
     36 O           6.6757   -1.9350   30.5298 O.3     1  UNL1       -0.3507
     37 C           5.6413   -1.5423   31.5426 C.3     1  UNL1        0.1613
     38 C           4.3054   -1.0311   31.0908 C.3     1  UNL1        0.1279
@<TRIPOS>BOND
     1     7     8    1
     2     8     9    1
     3     9    10    1
     4    10     1    1
     5     1     2   ar
     6     2     3   ar
     7     3    24    1
     8    24    25   ar
     9    25    26   ar
    10    26    27   ar
    11    27    28   ar
    12    28    30    1
    13    30    31    2
    14    30    32    2
    15    30    33    1
    16    33    34    1
    17    34    35    1
    18    35    36    1
    19    36    37    1
    20    37    38    1
    21    28    29   ar
    22     3     4   ar
    23     4     5   ar
    24     5     6   ar
    25    10    11    1
    26    11    12    1
    27    12    15    1
    28    15    16   ar
    29    16    17   ar
    30    17    18    1
    31    17    19   ar
    32    19    20    1
    33    19    21   ar
    34    21    22   ar
    35    22    23    1
    36    12     8    1
    37    22    15   ar
    38     6     1   ar
    39    29    24   ar
    40    38    33    1
    41     7    13    1
    42     7    14    1
@<TRIPOS>MOLECULE
*****
 38 42 0 0 0
SMALL
GASTEIGER

@<TRIPOS>ATOM
      1 C           5.4363   -3.6564   21.2362 C.ar    1  UNL1        0.1350
      2 C           4.5953   -2.4178   21.1443 C.ar    1  UNL1        0.0535
      3 C           3.7965   -2.1439   19.9046 C.ar    1  UNL1        0.0859
      4 N           3.8386   -3.1087   18.7568 N.ar    1  UNL1       -0.2239
      5 C           4.6796   -4.3474   18.8487 C.ar    1  UNL1        0.2000
      6 N           5.4784   -4.6212   20.0884 N.ar    1  UNL1       -0.2090
      7 N           9.4008   -4.9674   24.4681 N.3     1  UNL1       -0.3205
      8 C           8.0575   -4.5329   23.9614 C.3     1  UNL1        0.0766
      9 C           7.6641   -4.3844   22.5216 C.3     1  UNL1        0.1079
     10 N           6.2352   -3.9303   22.4759 N.pl3   1  UNL1       -0.2914
     11 C           5.7454   -3.7982   23.8875 C.3     1  UNL1        0.0980
     12 C           6.8716   -4.1706   24.8056 C.3     1  UNL1        0.0602
     13 H          10.0192   -5.1506   23.6779 H       1  UNL1        0.1189
     14 H           9.2964   -5.8173   25.0224 H       1  UNL1        0.1189
     15 C           6.8210   -4.1792   26.3048 C.ar    1  UNL1        0.0103
     16 C           6.8981   -2.8886   27.0652 C.ar    1  UNL1        0.0300
     17 C           6.8474   -2.8973   28.5644 C.ar    1  UNL1        0.1672
     18 F           6.9246   -1.6067   29.3249 F       1  UNL1       -0.2018
     19 C           6.7196   -4.1965   29.3029 C.ar    1  UNL1        0.1696
     20 F           6.6690   -4.2051   30.8021 F       1  UNL1       -0.2017
     21 C           6.6425   -5.4872   28.5424 C.ar    1  UNL1        0.0612
     22 C           6.6932   -5.4785   27.0434 C.ar    1  UNL1        0.1386
     23 F           6.6160   -6.7692   26.2828 F       1  UNL1       -0.2044
     24 C           2.9554   -0.9053   19.8127 C.ar    1  UNL1        0.0191
     25 C           2.8000   -0.2002   18.4979 C.ar    1  UNL1        0.0016
     26 C           1.9590    1.0384   18.4059 C.ar    1  UNL1        0.0014
     27 C           1.2734    1.5720   19.6287 C.ar    1  UNL1        0.0199
     28 C           1.4288    0.8670   20.9435 C.ar    1  UNL1        0.1222
     29 C           2.2699   -0.3717   21.0355 C.ar    1  UNL1        0.0214
     30 S           0.7432    1.4005   22.1663 S.O2    1  UNL1        0.0634
     31 O           1.9229    1.0007   23.0021 O.2     1  UNL1       -0.1528
     32 O          -0.4364    1.8002   21.3306 O.2     1  UNL1       -0.1528
     33 N           0.0577    1.9340   23.3891 N.3     1  UNL1       -0.1504
     34 C          -0.8203    3.1461   23.2881 C.3     1  UNL1        0.1279
     35 C          -1.5059    3.6796   24.5109 C.3     1  UNL1        0.1613
     36 O          -1.3135    3.0011   25.8348 O.3     1  UNL1       -0.3507
     37 C          -0.4356    1.7891   25.9359 C.3     1  UNL1        0.1613
     38 C           0.2500    1.2555   24.7130 C.3     1  UNL1        0.1279
@<TRIPOS>BOND
     1     7     8    1
     2     8     9    1
     3     9    10    1
     4    10     1    1
     5     1     2   ar
     6     2     3   ar
     7     3    24    1
     8    24    25   ar
     9    25    26   ar
    10    26    27   ar
    11    27    28   ar
    12    28    30    1
    13    30    31    2
    14    30    32    2
    15    30    33    1
    16    33    34    1
    17    34    35    1
    18    35    36    1
    19    36    37    1
    20    37    38    1
    21    28    29   ar
    22     3     4   ar
    23     4     5   ar
    24     5     6   ar
    25    10    11    1
    26    11    12    1
    27    12    15    1
    28    15    16   ar
    29    16    17   ar
    30    17    18    1
    31    17    19   ar
    32    19    20    1
    33    19    21   ar
    34    21    22   ar
    35    22    23    1
    36    12     8    1
    37    22    15   ar
    38     6     1   ar
    39    29    24   ar
    40    38    33    1
    41     7    13    1
    42     7    14    1
@<TRIPOS>MOLECULE
*****
 38 42 0 0 0
SMALL
GASTEIGER

@<TRIPOS>ATOM
      1 C           7.5436   -5.2348   24.2545 C.ar    1  UNL1        0.1350
      2 C           7.5782   -5.0549   25.7432 C.ar    1  UNL1        0.0535
      3 C           8.0972   -6.1559   26.6198 C.ar    1  UNL1        0.0859
      4 N           8.5817   -7.4367   26.0076 N.ar    1  UNL1       -0.2239
      5 C           8.5471   -7.6165   24.5188 C.ar    1  UNL1        0.2000
      6 N           8.0281   -6.5156   23.6423 N.ar    1  UNL1       -0.2090
      7 N           7.3359   -1.0709   21.0140 N.3     1  UNL1       -0.3205
      8 C           6.9291   -2.2198   21.8884 C.3     1  UNL1        0.0766
      9 C           7.8573   -3.1312   22.6352 C.3     1  UNL1        0.1079
     10 N           7.0245   -4.1337   23.3779 N.pl3   1  UNL1       -0.2914
     11 C           5.5816   -3.8420   23.0900 C.3     1  UNL1        0.0980
     12 C           5.5226   -2.6591   22.1694 C.3     1  UNL1        0.0602
     13 H           8.3531   -0.9976   21.0004 H       1  UNL1        0.1189
     14 H           6.9375   -0.2067   21.3811 H       1  UNL1        0.1189
     15 C           4.2760   -2.0266   21.6254 C.ar    1  UNL1        0.0103
     16 C           3.5067   -1.0462   22.4602 C.ar    1  UNL1        0.0300
     17 C           2.2601   -0.4137   21.9162 C.ar    1  UNL1        0.1672
     18 F           1.4908    0.5668   22.7510 F       1  UNL1       -0.2018
     19 C           1.7829   -0.7616   20.5375 C.ar    1  UNL1        0.1696
     20 F           0.5363   -0.1291   19.9935 F       1  UNL1       -0.2017
     21 C           2.5522   -1.7421   19.7026 C.ar    1  UNL1        0.0612
     22 C           3.7987   -2.3745   20.2466 C.ar    1  UNL1        0.1386
     23 F           4.5681   -3.3550   19.4118 F       1  UNL1       -0.2044
     24 C           8.1318   -5.9761   28.1086 C.ar    1  UNL1        0.0191
     25 C           8.9889   -6.8723   28.9526 C.ar    1  UNL1        0.0016
     26 C           9.0235   -6.6926   30.4413 C.ar    1  UNL1        0.0014
     27 C           8.2010   -5.6166   31.0862 C.ar    1  UNL1        0.0199
     28 C           7.3439   -4.7204   30.2423 C.ar    1  UNL1        0.1222
     29 C           7.3093   -4.9002   28.7534 C.ar    1  UNL1        0.0214
     30 S           6.5215   -3.6444   30.8871 S.O2    1  UNL1        0.0634
     31 O           6.5778   -4.3830   32.1914 O.2     1  UNL1       -0.1528
     32 O           6.4651   -2.9059   29.5828 O.2     1  UNL1       -0.1528
     33 N           5.6990   -2.5685   31.5319 N.3     1  UNL1       -0.1504
     34 C           5.3783   -1.3141   30.7744 C.3     1  UNL1        0.1279
     35 C           4.5558   -0.2381   31.4193 C.3     1  UNL1        0.1613
     36 O           4.0540   -0.4165   32.8215 O.3     1  UNL1       -0.3507
     37 C           4.3747   -1.6708   33.5790 C.3     1  UNL1        0.1613
     38 C           5.1972   -2.7469   32.9342 C.3     1  UNL1        0.1279
@<TRIPOS>BOND
     1     7     8    1
     2     8     9    1
     3     9    10    1
     4    10     1    1
     5     1     2   ar
     6     2     3   ar
     7     3    24    1
     8    24    25   ar
     9    25    26   ar
    10    26    27   ar
    11    27    28   ar
    12    28    30    1
    13    30    31    2
    14    30    32    2
    15    30    33    1
    16    33    34    1
    17    34    35    1
    18    35    36    1
    19    36    37    1
    20    37    38    1
    21    28    29   ar
    22     3     4   ar
    23     4     5   ar
    24     5     6   ar
    25    10    11    1
    26    11    12    1
    27    12    15    1
    28    15    16   ar
    29    16    17   ar
    30    17    18    1
    31    17    19   ar
    32    19    20    1
    33    19    21   ar
    34    21    22   ar
    35    22    23    1
    36    12     8    1
    37    22    15   ar
    38     6     1   ar
    39    29    24   ar
    40    38    33    1
    41     7    13    1
    42     7    14    1
@<TRIPOS>MOLECULE
*****
 38 42 0 0 0
SMALL
GASTEIGER

@<TRIPOS>ATOM
      1 C           7.8993   -5.9211   27.7633 C.ar    1  UNL1        0.1350
      2 C           7.8405   -5.3135   26.3932 C.ar    1  UNL1        0.0535
      3 C           7.9899   -6.1830   25.1801 C.ar    1  UNL1        0.0859
      4 N           8.1980   -7.6601   25.3371 N.ar    1  UNL1       -0.2239
      5 C           8.2568   -8.2678   26.7072 C.ar    1  UNL1        0.2000
      6 N           8.1075   -7.3983   27.9203 N.ar    1  UNL1       -0.2090
      7 N           8.8641   -3.4972   32.3540 N.3     1  UNL1       -0.3205
      8 C           8.1935   -3.9374   31.0866 C.3     1  UNL1        0.0766
      9 C           8.7515   -4.9027   30.0832 C.3     1  UNL1        0.1079
     10 N           7.7500   -5.0516   28.9765 N.pl3   1  UNL1       -0.2914
     11 C           6.5729   -4.1784   29.2959 C.3     1  UNL1        0.0980
     12 C           6.8470   -3.4898   30.6000 C.3     1  UNL1        0.0602
     13 H           9.7707   -3.9572   32.4365 H       1  UNL1        0.1189
     14 H           8.2812   -3.7489   33.1523 H       1  UNL1        0.1189
     15 C           5.9348   -2.5232   31.2955 C.ar    1  UNL1        0.0103
     16 C           5.3451   -2.8754   32.6290 C.ar    1  UNL1        0.0300
     17 C           4.4328   -1.9088   33.3244 C.ar    1  UNL1        0.1672
     18 F           3.8431   -2.2609   34.6579 F       1  UNL1       -0.2018
     19 C           4.1104   -0.5902   32.6864 C.ar    1  UNL1        0.1696
     20 F           3.1981    0.3763   33.3818 F       1  UNL1       -0.2017
     21 C           4.7001   -0.2380   31.3528 C.ar    1  UNL1        0.0612
     22 C           5.6122   -1.2046   30.6574 C.ar    1  UNL1        0.1386
     23 F           6.2020   -0.8525   29.3238 F       1  UNL1       -0.2044
     24 C           7.9311   -5.5753   23.8099 C.ar    1  UNL1        0.0191
     25 C           8.9855   -5.9078   22.7962 C.ar    1  UNL1        0.0016
     26 C           8.9267   -5.3002   21.4260 C.ar    1  UNL1        0.0014
     27 C           7.8135   -4.3601   21.0695 C.ar    1  UNL1        0.0199
     28 C           6.7591   -4.0276   22.0833 C.ar    1  UNL1        0.1222
     29 C           6.8179   -4.6353   23.4535 C.ar    1  UNL1        0.0214
     30 S           5.6459   -3.0876   21.7269 S.O2    1  UNL1        0.0634
     31 O           6.6219   -1.9496   21.6800 O.2     1  UNL1       -0.1528
     32 O           4.6699   -4.2256   21.7738 O.2     1  UNL1       -0.1528
     33 N           4.5327   -2.1475   21.3705 N.3     1  UNL1       -0.1504
     34 C           3.7518   -1.4646   22.4540 C.3     1  UNL1        0.1279
     35 C           2.6386   -0.5246   22.0976 C.3     1  UNL1        0.1613
     36 O           2.3063   -0.2673   20.6577 O.3     1  UNL1       -0.3507
     37 C           3.0871   -0.9502   19.5742 C.3     1  UNL1        0.1613
     38 C           4.2003   -1.8903   19.9306 C.3     1  UNL1        0.1279
@<TRIPOS>BOND
     1     7     8    1
     2     8     9    1
     3     9    10    1
     4    10     1    1
     5     1     2   ar
     6     2     3   ar
     7     3    24    1
     8    24    25   ar
     9    25    26   ar
    10    26    27   ar
    11    27    28   ar
    12    28    30    1
    13    30    31    2
    14    30    32    2
    15    30    33    1
    16    33    34    1
    17    34    35    1
    18    35    36    1
    19    36    37    1
    20    37    38    1
    21    28    29   ar
    22     3     4   ar
    23     4     5   ar
    24     5     6   ar
    25    10    11    1
    26    11    12    1
    27    12    15    1
    28    15    16   ar
    29    16    17   ar
    30    17    18    1
    31    17    19   ar
    32    19    20    1
    33    19    21   ar
    34    21    22   ar
    35    22    23    1
    36    12     8    1
    37    22    15   ar
    38     6     1   ar
    39    29    24   ar
    40    38    33    1
    41     7    13    1
    42     7    14    1
@<TRIPOS>MOLECULE
*****
 38 42 0 0 0
SMALL
GASTEIGER

@<TRIPOS>ATOM
      1 C           0.1092    1.9806   25.3825 C.ar    1  UNL1        0.1350
      2 C           0.7059    1.0851   24.3375 C.ar    1  UNL1        0.0535
      3 C           0.7255    1.5178   22.9014 C.ar    1  UNL1        0.0859
      4 N           0.1485    2.8460   22.5104 N.ar    1  UNL1       -0.2239
      5 C          -0.4483    3.7415   23.5553 C.ar    1  UNL1        0.2000
      6 N          -0.4679    3.3087   24.9914 N.ar    1  UNL1       -0.2090
      7 N          -1.5718    0.3160   30.1031 N.3     1  UNL1       -0.3205
      8 C          -0.6832    0.7827   28.9885 C.3     1  UNL1        0.0766
      9 C          -1.1232    1.1329   27.5979 C.3     1  UNL1        0.1079
     10 N           0.0895    1.5478   26.8186 N.pl3   1  UNL1       -0.2914
     11 C           1.2790    1.4541   27.7276 C.3     1  UNL1        0.0980
     12 C           0.8014    0.9812   29.0686 C.3     1  UNL1        0.0602
     13 H          -2.5359    0.2702   29.7730 H       1  UNL1        0.1189
     14 H          -1.5103    0.9699   30.8835 H       1  UNL1        0.1189
     15 C           1.6582    0.7479   30.2776 C.ar    1  UNL1        0.0103
     16 C           2.5755   -0.4378   30.3292 C.ar    1  UNL1        0.0300
     17 C           3.4322   -0.6712   31.5382 C.ar    1  UNL1        0.1672
     18 F           4.3495   -1.8569   31.5899 F       1  UNL1       -0.2018
     19 C           3.3715    0.2811   32.6955 C.ar    1  UNL1        0.1696
     20 F           4.2282    0.0477   33.9045 F       1  UNL1       -0.2017
     21 C           2.4542    1.4669   32.6439 C.ar    1  UNL1        0.0612
     22 C           1.5976    1.7002   31.4349 C.ar    1  UNL1        0.1386
     23 F           0.6802    2.8859   31.3833 F       1  UNL1       -0.2044
     24 C           1.3223    0.6224   21.8563 C.ar    1  UNL1        0.0191
     25 C           0.7781    0.6347   20.4586 C.ar    1  UNL1        0.0016
     26 C           1.3748   -0.2607   19.4135 C.ar    1  UNL1        0.0014
     27 C           2.5157   -1.1685   19.7662 C.ar    1  UNL1        0.0199
     28 C           3.0599   -1.1807   21.1640 C.ar    1  UNL1        0.1222
     29 C           2.4632   -0.2853   22.2090 C.ar    1  UNL1        0.0214
     30 S           4.2008   -2.0884   21.5166 S.O2    1  UNL1        0.0634
     31 O           3.9134   -1.8832   22.9744 O.2     1  UNL1       -0.1528
     32 O           4.4882   -2.2936   20.0588 O.2     1  UNL1       -0.1528
     33 N           5.3417   -2.9961   21.8693 N.3     1  UNL1       -0.1504
     34 C           5.5173   -3.4655   23.2832 C.3     1  UNL1        0.1279
     35 C           6.6582   -4.3732   23.6359 C.3     1  UNL1        0.1613
     36 O           7.6236   -4.8115   22.5748 O.3     1  UNL1       -0.3507
     37 C           7.4481   -4.3421   21.1610 C.3     1  UNL1        0.1613
     38 C           6.3071   -3.4344   20.8082 C.3     1  UNL1        0.1279
@<TRIPOS>BOND
     1     7     8    1
     2     8     9    1
     3     9    10    1
     4    10     1    1
     5     1     2   ar
     6     2     3   ar
     7     3    24    1
     8    24    25   ar
     9    25    26   ar
    10    26    27   ar
    11    27    28   ar
    12    28    30    1
    13    30    31    2
    14    30    32    2
    15    30    33    1
    16    33    34    1
    17    34    35    1
    18    35    36    1
    19    36    37    1
    20    37    38    1
    21    28    29   ar
    22     3     4   ar
    23     4     5   ar
    24     5     6   ar
    25    10    11    1
    26    11    12    1
    27    12    15    1
    28    15    16   ar
    29    16    17   ar
    30    17    18    1
    31    17    19   ar
    32    19    20    1
    33    19    21   ar
    34    21    22   ar
    35    22    23    1
    36    12     8    1
    37    22    15   ar
    38     6     1   ar
    39    29    24   ar
    40    38    33    1
    41     7    13    1
    42     7    14    1
@<TRIPOS>MOLECULE
*****
 38 42 0 0 0
SMALL
GASTEIGER

@<TRIPOS>ATOM
      1 C           5.9444   -2.7749   27.3195 C.ar    1  UNL1        0.1350
      2 C           6.0786   -2.8775   25.8291 C.ar    1  UNL1        0.0535
      3 C           7.0708   -3.8291   25.2292 C.ar    1  UNL1        0.0859
      4 N           7.9288   -4.6781   26.1198 N.ar    1  UNL1       -0.2239
      5 C           7.7946   -4.5755   27.6102 C.ar    1  UNL1        0.2000
      6 N           6.8024   -3.6239   28.2101 N.ar    1  UNL1       -0.2090
      7 N           3.5561    0.5448   30.6598 N.3     1  UNL1       -0.3205
      8 C           3.8544   -0.2973   29.4549 C.3     1  UNL1        0.0766
      9 C           5.0632   -1.1644   29.2625 C.3     1  UNL1        0.1079
     10 N           4.9521   -1.8232   27.9195 N.pl3   1  UNL1       -0.2914
     11 C           3.6747   -1.3633   27.2818 C.3     1  UNL1        0.0980
     12 C           2.9963   -0.4203   28.2307 C.3     1  UNL1        0.0602
     13 H           4.3075    0.4409   31.3417 H       1  UNL1        0.1189
     14 H           2.6751    0.2430   31.0759 H       1  UNL1        0.1189
     15 C           1.6892    0.2774   27.9965 C.ar    1  UNL1        0.0103
     16 C           0.4708   -0.1335   28.7690 C.ar    1  UNL1        0.0300
     17 C          -0.8363    0.5642   28.5349 C.ar    1  UNL1        0.1672
     18 F          -2.0547    0.1533   29.3073 F       1  UNL1       -0.2018
     19 C          -0.9250    1.6726   27.5283 C.ar    1  UNL1        0.1696
     20 F          -2.2321    2.3703   27.2941 F       1  UNL1       -0.2017
     21 C           0.2934    2.0835   26.7557 C.ar    1  UNL1        0.0612
     22 C           1.6004    1.3859   26.9899 C.ar    1  UNL1        0.1386
     23 F           2.8189    1.7968   26.2174 F       1  UNL1       -0.2044
     24 C           7.2050   -3.9318   23.7387 C.ar    1  UNL1        0.0191
     25 C           8.2521   -4.8232   23.1397 C.ar    1  UNL1        0.0016
     26 C           8.3864   -4.9259   21.6493 C.ar    1  UNL1        0.0014
     27 C           7.4735   -4.1372   20.7578 C.ar    1  UNL1        0.0199
     28 C           6.4264   -3.2457   21.3569 C.ar    1  UNL1        0.1222
     29 C           6.2922   -3.1430   22.8474 C.ar    1  UNL1        0.0214
     30 S           5.5136   -2.4570   20.4655 S.O2    1  UNL1        0.0634
     31 O           4.4923   -2.3991   21.5626 O.2     1  UNL1       -0.1528
     32 O           6.5348   -2.5148   19.3685 O.2     1  UNL1       -0.1528
     33 N           4.6007   -1.6682   19.5742 N.3     1  UNL1       -0.1504
     34 C           4.8077   -1.6813   18.0885 C.3     1  UNL1        0.1279
     35 C           3.8949   -0.8925   17.1972 C.3     1  UNL1        0.1613
     36 O           2.7750   -0.0907   17.7914 O.3     1  UNL1       -0.3507
     37 C           2.5681   -0.0776   19.2770 C.3     1  UNL1        0.1613
     38 C           3.4809   -0.8664   20.1684 C.3     1  UNL1        0.1279
@<TRIPOS>BOND
     1     7     8    1
     2     8     9    1
     3     9    10    1
     4    10     1    1
     5     1     2   ar
     6     2     3   ar
     7     3    24    1
     8    24    25   ar
     9    25    26   ar
    10    26    27   ar
    11    27    28   ar
    12    28    30    1
    13    30    31    2
    14    30    32    2
    15    30    33    1
    16    33    34    1
    17    34    35    1
    18    35    36    1
    19    36    37    1
    20    37    38    1
    21    28    29   ar
    22     3     4   ar
    23     4     5   ar
    24     5     6   ar
    25    10    11    1
    26    11    12    1
    27    12    15    1
    28    15    16   ar
    29    16    17   ar
    30    17    18    1
    31    17    19   ar
    32    19    20    1
    33    19    21   ar
    34    21    22   ar
    35    22    23    1
    36    12     8    1
    37    22    15   ar
    38     6     1   ar
    39    29    24   ar
    40    38    33    1
    41     7    13    1
    42     7    14    1
