@<TRIPOS>MOLECULE
*****
 39 42 0 0 0
SMALL
GASTEIGER

@<TRIPOS>ATOM
      1 C         -13.4721  -18.1405   23.5130 C.3     1  UNL1        0.0214
      2 C         -12.3961  -17.5284   22.6660 C.3     1  UNL1        0.0758
      3 N         -11.6533  -16.3202   23.1546 N.am    1  UNL1       -0.2902
      4 C         -10.2767  -16.4687   23.7315 C.2     1  UNL1        0.3044
      5 O          -9.6429  -17.8253   23.8199 O.2     1  UNL1       -0.2525
      6 N          -9.5339  -15.2606   24.2200 N.am    1  UNL1       -0.2683
      7 H         -12.0693  -15.4298   23.0966 H       1  UNL1        0.1509
      8 H          -9.9499  -14.3702   24.1620 H       1  UNL1        0.1564
      9 C          -8.1573  -15.4091   24.7970 C.ar    1  UNL1        0.0517
     10 C          -7.9658  -15.4306   26.2846 C.ar    1  UNL1        0.0147
     11 C          -6.5892  -15.5791   26.8615 C.ar    1  UNL1        0.0014
     12 C          -5.4040  -15.7060   25.9509 C.ar    1  UNL1        0.0032
     13 C          -5.5955  -15.6845   24.4634 C.ar    1  UNL1        0.0386
     14 C          -6.9721  -15.5360   23.8864 C.ar    1  UNL1        0.0178
     15 C          -4.4103  -15.8114   23.5527 C.ar    1  UNL1        0.1839
     16 N          -3.9630  -14.7979   22.5413 N.ar    1  UNL1       -0.1081
     17 N          -2.7405  -15.3343   21.8571 N.ar    1  UNL1       -0.0227
     18 N          -2.4323  -16.6791   22.4457 N.ar    1  UNL1       -0.0429
     19 N          -3.4643  -16.9740   23.4936 N.ar    1  UNL1       -0.2113
     20 C          -3.5374  -18.2138   24.3348 C.3     1  UNL1        0.1573
     21 C         -12.0628  -18.1244   21.3304 C.3     1  UNL1        0.0519
     22 C         -10.8618  -17.6417   20.5724 C.3     1  UNL1        0.1136
     23 N         -10.7511  -16.1973   20.1833 N.3     1  UNL1       -0.3096
     24 H          -9.8779  -16.0472   19.6780 H       1  UNL1        0.1200
     25 H         -10.7624  -15.6173   21.0223 H       1  UNL1        0.1200
     26 N          -9.7714  -18.6035   20.2034 N.3     1  UNL1       -0.2616
     27 C          -9.9074  -19.4571   18.9775 C.3     1  UNL1        0.0732
     28 C          -8.8171  -20.4189   18.6086 C.3     1  UNL1        0.0174
     29 C          -7.5907  -20.5269   19.4655 C.3     1  UNL1        0.0031
     30 C          -7.4546  -19.6732   20.6913 C.3     1  UNL1        0.0204
     31 C          -8.5450  -18.7115   21.0602 C.3     1  UNL1        0.0735
     32 C          -6.2282  -19.7813   21.5482 C.3     1  UNL1        0.0277
     33 C          -4.8785  -19.4801   20.9673 C.ar    1  UNL1       -0.0220
     34 C          -4.7596  -18.5784   19.7744 C.ar    1  UNL1       -0.0020
     35 C          -3.4098  -18.2773   19.1935 C.ar    1  UNL1        0.0293
     36 C          -2.1790  -18.8778   19.8054 C.ar    1  UNL1        0.1401
     37 F          -0.8292  -18.5765   19.2244 F       1  UNL1       -0.2042
     38 C          -2.2978  -19.7794   20.9982 C.ar    1  UNL1        0.0293
     39 C          -3.6476  -20.0806   21.5792 C.ar    1  UNL1       -0.0020
@<TRIPOS>BOND
     1     2     1    1
     2     2    21    1
     3    21    22    1
     4    22    23    1
     5    22    26    1
     6    26    27    1
     7    27    28    1
     8    28    29    1
     9    29    30    1
    10    30    32    1
    11    32    33    1
    12    33    34   ar
    13    34    35   ar
    14    35    36   ar
    15    36    37    1
    16    36    38   ar
    17    38    39   ar
    18    30    31    1
    19     2     3    1
    20     3     4   am
    21     4     5    2
    22     4     6   am
    23     6     9    1
    24     9    10   ar
    25    10    11   ar
    26    11    12   ar
    27    12    13   ar
    28    13    15    1
    29    15    16   ar
    30    16    17   ar
    31    17    18   ar
    32    18    19   ar
    33    19    20    1
    34    13    14   ar
    35    31    26    1
    36    14     9   ar
    37    39    33   ar
    38    19    15   ar
    39    23    24    1
    40    23    25    1
    41     3     7    1
    42     6     8    1
@<TRIPOS>MOLECULE
*****
 39 42 0 0 0
SMALL
GASTEIGER

@<TRIPOS>ATOM
      1 C          -2.1469  -17.8753   17.5279 C.3     1  UNL1        0.0214
      2 C          -1.9633  -18.4848   18.8861 C.3     1  UNL1        0.0758
      3 N          -2.8997  -19.5564   19.3601 N.am    1  UNL1       -0.2902
      4 C          -4.3562  -19.2506   19.5475 C.2     1  UNL1        0.3044
      5 O          -4.8762  -17.8732   19.2609 O.2     1  UNL1       -0.2525
      6 N          -5.2926  -20.3223   20.0215 N.am    1  UNL1       -0.2683
      7 H          -2.5584  -20.4605   19.5482 H       1  UNL1        0.1509
      8 H          -4.9513  -21.2264   20.2096 H       1  UNL1        0.1564
      9 C          -6.7491  -20.0165   20.2088 C.ar    1  UNL1        0.0517
     10 C          -7.6425  -19.8606   19.0140 C.ar    1  UNL1        0.0147
     11 C          -9.0990  -19.5548   19.2013 C.ar    1  UNL1        0.0014
     12 C          -9.6621  -19.4049   20.5835 C.ar    1  UNL1        0.0032
     13 C          -8.7688  -19.5608   21.7783 C.ar    1  UNL1        0.0386
     14 C          -7.3122  -19.8666   21.5910 C.ar    1  UNL1        0.0178
     15 C          -9.3320  -19.4109   23.1605 C.ar    1  UNL1        0.1839
     16 N          -9.2509  -20.4275   24.2606 N.ar    1  UNL1       -0.1081
     17 N          -9.9439  -19.8629   25.4652 N.ar    1  UNL1       -0.0227
     18 N         -10.4532  -18.4976   25.1096 N.ar    1  UNL1       -0.0429
     19 N         -10.0750  -18.2183   23.6852 N.ar    1  UNL1       -0.2113
     20 C         -10.3855  -16.9661   22.9199 C.3     1  UNL1        0.1573
     21 C          -0.8432  -18.0226   19.7705 C.3     1  UNL1        0.0519
     22 C          -1.1050  -17.0084   20.8442 C.3     1  UNL1        0.1136
     23 N          -0.2441  -15.7843   20.9455 N.3     1  UNL1       -0.3096
     24 H          -0.5614  -15.2091   21.7259 H       1  UNL1        0.1200
     25 H          -0.3107  -15.2492   20.0797 H       1  UNL1        0.1200
     26 N          -2.2276  -17.2185   21.8166 N.3     1  UNL1       -0.2616
     27 C          -2.4992  -18.5882   22.3642 C.3     1  UNL1        0.0732
     28 C          -3.6218  -18.7982   23.3366 C.3     1  UNL1        0.0174
     29 C          -4.4729  -17.6383   23.7614 C.3     1  UNL1        0.0031
     30 C          -4.2013  -16.2686   23.2139 C.3     1  UNL1        0.0204
     31 C          -3.0787  -16.0586   22.2415 C.3     1  UNL1        0.0735
     32 C          -5.0524  -15.1087   23.6387 C.3     1  UNL1        0.0277
     33 C          -6.0232  -15.2660   24.7712 C.ar    1  UNL1       -0.0220
     34 C          -5.5209  -15.3689   26.1809 C.ar    1  UNL1       -0.0020
     35 C          -6.4918  -15.5261   27.3134 C.ar    1  UNL1        0.0293
     36 C          -7.9649  -15.5805   27.0364 C.ar    1  UNL1        0.1401
     37 F          -8.9358  -15.7377   28.1690 F       1  UNL1       -0.2042
     38 C          -8.4673  -15.4776   25.6268 C.ar    1  UNL1        0.0293
     39 C          -7.4964  -15.3203   24.4941 C.ar    1  UNL1       -0.0020
@<TRIPOS>BOND
     1     2     1    1
     2     2    21    1
     3    21    22    1
     4    22    23    1
     5    22    26    1
     6    26    27    1
     7    27    28    1
     8    28    29    1
     9    29    30    1
    10    30    32    1
    11    32    33    1
    12    33    34   ar
    13    34    35   ar
    14    35    36   ar
    15    36    37    1
    16    36    38   ar
    17    38    39   ar
    18    30    31    1
    19     2     3    1
    20     3     4   am
    21     4     5    2
    22     4     6   am
    23     6     9    1
    24     9    10   ar
    25    10    11   ar
    26    11    12   ar
    27    12    13   ar
    28    13    15    1
    29    15    16   ar
    30    16    17   ar
    31    17    18   ar
    32    18    19   ar
    33    19    20    1
    34    13    14   ar
    35    31    26    1
    36    14     9   ar
    37    39    33   ar
    38    19    15   ar
    39    23    24    1
    40    23    25    1
    41     3     7    1
    42     6     8    1
@<TRIPOS>MOLECULE
*****
 39 42 0 0 0
SMALL
GASTEIGER

@<TRIPOS>ATOM
      1 C         -10.1009  -20.9645   24.7985 C.3     1  UNL1        0.0214
      2 C         -10.6448  -19.8540   23.9495 C.3     1  UNL1        0.0758
      3 N         -10.1056  -19.6337   22.5672 N.am    1  UNL1       -0.2902
      4 C          -8.6504  -19.8628   22.2845 C.2     1  UNL1        0.3044
      5 O          -7.7345  -20.3121   23.3840 O.2     1  UNL1       -0.2525
      6 N          -8.1112  -19.6425   20.9022 N.am    1  UNL1       -0.2683
      7 H         -10.7068  -19.3388   21.8455 H       1  UNL1        0.1509
      8 H          -8.7124  -19.3476   20.1805 H       1  UNL1        0.1564
      9 C          -6.6560  -19.8716   20.6195 C.ar    1  UNL1        0.0517
     10 C          -6.2016  -21.1771   20.0370 C.ar    1  UNL1        0.0147
     11 C          -4.7464  -21.4061   19.7542 C.ar    1  UNL1        0.0014
     12 C          -3.7456  -20.3297   20.0540 C.ar    1  UNL1        0.0032
     13 C          -4.2000  -19.0243   20.6364 C.ar    1  UNL1        0.0386
     14 C          -5.6552  -18.7952   20.9192 C.ar    1  UNL1        0.0178
     15 C          -3.1992  -17.9479   20.9362 C.ar    1  UNL1        0.1839
     16 N          -3.1286  -17.1355   22.1952 N.ar    1  UNL1       -0.1081
     17 N          -1.9790  -16.1804   22.0666 N.ar    1  UNL1       -0.0227
     18 N          -1.3392  -16.4026   20.7282 N.ar    1  UNL1       -0.0429
     19 N          -2.0933  -17.4950   20.0296 N.ar    1  UNL1       -0.2113
     20 C          -1.7941  -18.0389   18.6641 C.3     1  UNL1        0.1573
     21 C         -11.7279  -18.9637   24.4827 C.3     1  UNL1        0.0519
     22 C         -12.4684  -18.0458   23.5559 C.3     1  UNL1        0.1136
     23 N         -13.9634  -17.9496   23.6317 N.3     1  UNL1       -0.3096
     24 H         -14.2971  -17.2839   22.9346 H       1  UNL1        0.1200
     25 H         -14.2370  -17.6335   24.5621 H       1  UNL1        0.1200
     26 N         -11.7139  -17.2240   22.5531 N.3     1  UNL1       -0.2616
     27 C         -12.3229  -16.9294   21.2143 C.3     1  UNL1        0.0732
     28 C         -11.5683  -16.1076   20.2117 C.3     1  UNL1        0.0174
     29 C         -10.2049  -15.5805   20.5478 C.3     1  UNL1        0.0031
     30 C          -9.5959  -15.8750   21.8866 C.3     1  UNL1        0.0204
     31 C         -10.3504  -16.6968   22.8892 C.3     1  UNL1        0.0735
     32 C          -8.2324  -15.3478   22.2227 C.3     1  UNL1        0.0277
     33 C          -7.7409  -15.3881   23.6393 C.ar    1  UNL1       -0.0220
     34 C          -8.7225  -15.4245   24.7730 C.ar    1  UNL1       -0.0020
     35 C          -8.2311  -15.4648   26.1895 C.ar    1  UNL1        0.0293
     36 C          -6.7580  -15.4687   26.4725 C.ar    1  UNL1        0.1401
     37 F          -6.2665  -15.5090   27.8892 F       1  UNL1       -0.2042
     38 C          -5.7764  -15.4323   25.3389 C.ar    1  UNL1        0.0293
     39 C          -6.2679  -15.3920   23.9222 C.ar    1  UNL1       -0.0020
@<TRIPOS>BOND
     1     2     1    1
     2     2    21    1
     3    21    22    1
     4    22    23    1
     5    22    26    1
     6    26    27    1
     7    27    28    1
     8    28    29    1
     9    29    30    1
    10    30    32    1
    11    32    33    1
    12    33    34   ar
    13    34    35   ar
    14    35    36   ar
    15    36    37    1
    16    36    38   ar
    17    38    39   ar
    18    30    31    1
    19     2     3    1
    20     3     4   am
    21     4     5    2
    22     4     6   am
    23     6     9    1
    24     9    10   ar
    25    10    11   ar
    26    11    12   ar
    27    12    13   ar
    28    13    15    1
    29    15    16   ar
    30    16    17   ar
    31    17    18   ar
    32    18    19   ar
    33    19    20    1
    34    13    14   ar
    35    31    26    1
    36    14     9   ar
    37    39    33   ar
    38    19    15   ar
    39    23    24    1
    40    23    25    1
    41     3     7    1
    42     6     8    1
@<TRIPOS>MOLECULE
*****
 39 42 0 0 0
SMALL
GASTEIGER

@<TRIPOS>ATOM
      1 C          -3.1251  -17.0003   17.7615 C.3     1  UNL1        0.0214
      2 C          -2.5724  -18.1490   18.5520 C.3     1  UNL1        0.0758
      3 N          -3.4570  -19.3053   18.9133 N.am    1  UNL1       -0.2902
      4 C          -4.6678  -19.0843   19.7706 C.2     1  UNL1        0.3044
      5 O          -4.9940  -17.7068   20.2667 O.2     1  UNL1       -0.2525
      6 N          -5.5523  -20.2406   20.1318 N.am    1  UNL1       -0.2683
      7 H          -3.2428  -20.2094   18.5876 H       1  UNL1        0.1509
      8 H          -5.3381  -21.1447   19.8062 H       1  UNL1        0.1564
      9 C          -6.7631  -20.0195   20.9891 C.ar    1  UNL1        0.0517
     10 C          -6.8606  -20.6780   22.3334 C.ar    1  UNL1        0.0147
     11 C          -8.0714  -20.4569   23.1907 C.ar    1  UNL1        0.0014
     12 C          -9.1847  -19.5774   22.7038 C.ar    1  UNL1        0.0032
     13 C          -9.0872  -18.9189   21.3596 C.ar    1  UNL1        0.0386
     14 C          -7.8764  -19.1400   20.5022 C.ar    1  UNL1        0.0178
     15 C         -10.2005  -18.0394   20.8728 C.ar    1  UNL1        0.1839
     16 N         -10.7564  -18.0104   19.4798 N.ar    1  UNL1       -0.1081
     17 N         -11.8528  -16.9875   19.4395 N.ar    1  UNL1       -0.0227
     18 N         -11.9746  -16.3844   20.8075 N.ar    1  UNL1       -0.0429
     19 N         -10.9534  -17.0345   21.6933 N.ar    1  UNL1       -0.2113
     20 C         -10.7252  -16.7327   23.1448 C.3     1  UNL1        0.1573
     21 C          -1.1352  -18.1414   18.9814 C.3     1  UNL1        0.0519
     22 C          -0.7828  -17.8910   20.4177 C.3     1  UNL1        0.1136
     23 N           0.6404  -17.6167   20.8040 N.3     1  UNL1       -0.3096
     24 H           0.6970  -17.4706   21.8119 H       1  UNL1        0.1200
     25 H           0.9689  -16.7808   20.3204 H       1  UNL1        0.1200
     26 N          -1.8537  -17.9149   21.4679 N.3     1  UNL1       -0.2616
     27 C          -2.2772  -19.2182   22.0777 C.3     1  UNL1        0.0732
     28 C          -3.3480  -19.2421   23.1277 C.3     1  UNL1        0.0174
     29 C          -3.9954  -17.9626   23.5680 C.3     1  UNL1        0.0031
     30 C          -3.5719  -16.6593   22.9582 C.3     1  UNL1        0.0204
     31 C          -2.5010  -16.6354   21.9082 C.3     1  UNL1        0.0735
     32 C          -4.2192  -15.3798   23.3985 C.3     1  UNL1        0.0277
     33 C          -5.3533  -15.4119   24.3797 C.ar    1  UNL1       -0.0220
     34 C          -5.0714  -15.3901   25.8529 C.ar    1  UNL1       -0.0020
     35 C          -6.2054  -15.4222   26.8341 C.ar    1  UNL1        0.0293
     36 C          -7.6215  -15.4762   26.3422 C.ar    1  UNL1        0.1401
     37 F          -8.7556  -15.5084   27.3235 F       1  UNL1       -0.2042
     38 C          -7.9034  -15.4981   24.8691 C.ar    1  UNL1        0.0293
     39 C          -6.7693  -15.4659   23.8878 C.ar    1  UNL1       -0.0020
@<TRIPOS>BOND
     1     2     1    1
     2     2    21    1
     3    21    22    1
     4    22    23    1
     5    22    26    1
     6    26    27    1
     7    27    28    1
     8    28    29    1
     9    29    30    1
    10    30    32    1
    11    32    33    1
    12    33    34   ar
    13    34    35   ar
    14    35    36   ar
    15    36    37    1
    16    36    38   ar
    17    38    39   ar
    18    30    31    1
    19     2     3    1
    20     3     4   am
    21     4     5    2
    22     4     6   am
    23     6     9    1
    24     9    10   ar
    25    10    11   ar
    26    11    12   ar
    27    12    13   ar
    28    13    15    1
    29    15    16   ar
    30    16    17   ar
    31    17    18   ar
    32    18    19   ar
    33    19    20    1
    34    13    14   ar
    35    31    26    1
    36    14     9   ar
    37    39    33   ar
    38    19    15   ar
    39    23    24    1
    40    23    25    1
    41     3     7    1
    42     6     8    1
@<TRIPOS>MOLECULE
*****
 39 42 0 0 0
SMALL
GASTEIGER

@<TRIPOS>ATOM
      1 C          -4.6080  -18.9402   19.0534 C.3     1  UNL1        0.0214
      2 C          -5.2367  -19.8660   20.0522 C.3     1  UNL1        0.0758
      3 N          -6.6691  -20.2811   19.8921 N.am    1  UNL1       -0.2902
      4 C          -7.7707  -19.3387   20.2773 C.2     1  UNL1        0.3044
      5 O          -7.4397  -17.9811   20.8226 O.2     1  UNL1       -0.2525
      6 N          -9.2031  -19.7538   20.1173 N.am    1  UNL1       -0.2683
      7 H          -6.8864  -21.1722   19.5343 H       1  UNL1        0.1509
      8 H          -9.4204  -20.6449   19.7594 H       1  UNL1        0.1564
      9 C         -10.3047  -18.8114   20.5025 C.ar    1  UNL1        0.0517
     10 C         -10.6362  -17.6445   19.6201 C.ar    1  UNL1        0.0147
     11 C         -11.7378  -16.7021   20.0053 C.ar    1  UNL1        0.0014
     12 C         -12.5077  -16.9264   21.2729 C.ar    1  UNL1        0.0032
     13 C         -12.1762  -18.0932   22.1553 C.ar    1  UNL1        0.0386
     14 C         -11.0746  -19.0357   21.7701 C.ar    1  UNL1        0.0178
     15 C         -12.9462  -18.3175   23.4229 C.ar    1  UNL1        0.1839
     16 N         -14.4308  -18.1812   23.5885 N.ar    1  UNL1       -0.1081
     17 N         -14.7689  -18.4970   25.0155 N.ar    1  UNL1       -0.0227
     18 N         -13.4932  -18.8285   25.7317 N.ar    1  UNL1       -0.0429
     19 N         -12.3668  -18.7175   24.7474 N.ar    1  UNL1       -0.2113
     20 C         -10.9156  -18.9634   25.0368 C.3     1  UNL1        0.1573
     21 C          -4.4328  -20.3766   21.2112 C.3     1  UNL1        0.0519
     22 C          -3.1652  -19.6806   21.6094 C.3     1  UNL1        0.1136
     23 N          -1.8628  -20.4244   21.5886 N.3     1  UNL1       -0.3096
     24 H          -1.1112  -19.8024   21.8864 H       1  UNL1        0.1200
     25 H          -1.6753  -20.7553   20.6422 H       1  UNL1        0.1200
     26 N          -3.2000  -18.2407   22.0284 N.3     1  UNL1       -0.2616
     27 C          -2.3312  -17.2357   21.3319 C.3     1  UNL1        0.0732
     28 C          -2.3660  -15.7959   21.7509 C.3     1  UNL1        0.0174
     29 C          -3.2696  -15.3610   22.8665 C.3     1  UNL1        0.0031
     30 C          -4.1383  -16.3660   23.5630 C.3     1  UNL1        0.0204
     31 C          -4.1035  -17.8058   23.1440 C.3     1  UNL1        0.0735
     32 C          -5.0419  -15.9312   24.6786 C.3     1  UNL1        0.0277
     33 C          -6.5250  -15.8717   24.4626 C.ar    1  UNL1       -0.0220
     34 C          -7.4538  -15.8390   25.6401 C.ar    1  UNL1       -0.0020
     35 C          -8.9369  -15.7795   25.4241 C.ar    1  UNL1        0.0293
     36 C          -9.4914  -15.7528   24.0306 C.ar    1  UNL1        0.1401
     37 F         -10.9746  -15.6933   23.8146 F       1  UNL1       -0.2042
     38 C          -8.5628  -15.7855   22.8531 C.ar    1  UNL1        0.0293
     39 C          -7.0795  -15.8450   23.0691 C.ar    1  UNL1       -0.0020
@<TRIPOS>BOND
     1     2     1    1
     2     2    21    1
     3    21    22    1
     4    22    23    1
     5    22    26    1
     6    26    27    1
     7    27    28    1
     8    28    29    1
     9    29    30    1
    10    30    32    1
    11    32    33    1
    12    33    34   ar
    13    34    35   ar
    14    35    36   ar
    15    36    37    1
    16    36    38   ar
    17    38    39   ar
    18    30    31    1
    19     2     3    1
    20     3     4   am
    21     4     5    2
    22     4     6   am
    23     6     9    1
    24     9    10   ar
    25    10    11   ar
    26    11    12   ar
    27    12    13   ar
    28    13    15    1
    29    15    16   ar
    30    16    17   ar
    31    17    18   ar
    32    18    19   ar
    33    19    20    1
    34    13    14   ar
    35    31    26    1
    36    14     9   ar
    37    39    33   ar
    38    19    15   ar
    39    23    24    1
    40    23    25    1
    41     3     7    1
    42     6     8    1
@<TRIPOS>MOLECULE
*****
 39 42 0 0 0
SMALL
GASTEIGER

@<TRIPOS>ATOM
      1 C          -1.2824    4.3120   18.8409 C.3     1  UNL1        0.0214
      2 C          -1.6747    3.5413   20.0665 C.3     1  UNL1        0.0758
      3 N          -1.3620    2.0775   20.1639 N.am    1  UNL1       -0.2902
      4 C           0.0316    1.6283   20.4895 C.2     1  UNL1        0.3044
      5 O           1.1125    2.6429   20.7176 O.2     1  UNL1       -0.2525
      6 N           0.3442    0.1645   20.5870 N.am    1  UNL1       -0.2683
      7 H          -2.0715    1.4116   20.0142 H       1  UNL1        0.1509
      8 H          -0.3652   -0.5014   20.4373 H       1  UNL1        0.1564
      9 C           1.7378   -0.2847   20.9126 C.ar    1  UNL1        0.0517
     10 C           2.1476   -0.4819   22.3420 C.ar    1  UNL1        0.0147
     11 C           3.5412   -0.9311   22.6676 C.ar    1  UNL1        0.0014
     12 C           4.5251   -1.1831   21.5638 C.ar    1  UNL1        0.0032
     13 C           4.1154   -0.9859   20.1344 C.ar    1  UNL1        0.0386
     14 C           2.7217   -0.5367   19.8087 C.ar    1  UNL1        0.0178
     15 C           5.0993   -1.2380   19.0306 C.ar    1  UNL1        0.1839
     16 N           5.8236   -0.1898   18.2387 N.ar    1  UNL1       -0.1081
     17 N           6.7036   -0.8865   17.2435 N.ar    1  UNL1       -0.0227
     18 N           6.5232   -2.3651   17.4203 N.ar    1  UNL1       -0.0429
     19 N           5.5317   -2.5823   18.5247 N.ar    1  UNL1       -0.2113
     20 C           5.0561   -3.9106   19.0339 C.3     1  UNL1        0.1573
     21 C          -2.3796    4.2344   21.1947 C.3     1  UNL1        0.0519
     22 C          -3.4323    3.5094   21.9795 C.3     1  UNL1        0.1136
     23 N          -4.3802    2.5792   21.2822 N.3     1  UNL1       -0.3096
     24 H          -5.0235    2.1759   21.9634 H       1  UNL1        0.1200
     25 H          -3.8527    1.8328   20.8294 H       1  UNL1        0.1200
     26 N          -3.5371    3.7145   23.4618 N.3     1  UNL1       -0.2616
     27 C          -4.8834    3.7334   24.1230 C.3     1  UNL1        0.0732
     28 C          -4.9882    3.9385   25.6051 C.3     1  UNL1        0.0174
     29 C          -3.7467    4.1247   26.4262 C.3     1  UNL1        0.0031
     30 C          -2.4004    4.1058   25.7650 C.3     1  UNL1        0.0204
     31 C          -2.2956    3.9007   24.2828 C.3     1  UNL1        0.0735
     32 C          -1.1590    4.2920   26.5860 C.3     1  UNL1        0.0277
     33 C          -0.5872    3.1371   27.3536 C.ar    1  UNL1       -0.0220
     34 C          -1.1970    1.7730   27.2211 C.ar    1  UNL1       -0.0020
     35 C          -0.6252    0.6181   27.9887 C.ar    1  UNL1        0.0293
     36 C           0.5564    0.8272   28.8887 C.ar    1  UNL1        0.1401
     37 F           1.1281   -0.3278   29.6563 F       1  UNL1       -0.2042
     38 C           1.1662    2.1912   29.0212 C.ar    1  UNL1        0.0293
     39 C           0.5944    3.3462   28.2537 C.ar    1  UNL1       -0.0020
@<TRIPOS>BOND
     1     2     1    1
     2     2    21    1
     3    21    22    1
     4    22    23    1
     5    22    26    1
     6    26    27    1
     7    27    28    1
     8    28    29    1
     9    29    30    1
    10    30    32    1
    11    32    33    1
    12    33    34   ar
    13    34    35   ar
    14    35    36   ar
    15    36    37    1
    16    36    38   ar
    17    38    39   ar
    18    30    31    1
    19     2     3    1
    20     3     4   am
    21     4     5    2
    22     4     6   am
    23     6     9    1
    24     9    10   ar
    25    10    11   ar
    26    11    12   ar
    27    12    13   ar
    28    13    15    1
    29    15    16   ar
    30    16    17   ar
    31    17    18   ar
    32    18    19   ar
    33    19    20    1
    34    13    14   ar
    35    31    26    1
    36    14     9   ar
    37    39    33   ar
    38    19    15   ar
    39    23    24    1
    40    23    25    1
    41     3     7    1
    42     6     8    1
