@<TRIPOS>MOLECULE
*****
 36 38 0 0 0
SMALL
GASTEIGER

@<TRIPOS>ATOM
      1 C          -6.7440  -15.3725   25.3757 C.2     1  UNL1        0.2303
      2 O          -5.8209  -14.8778   26.4496 O.2     1  UNL1       -0.2745
      3 N          -8.0916  -15.9217   25.7395 N.am    1  UNL1       -0.2740
      4 C          -8.5161  -15.9762   27.1772 C.3     1  UNL1        0.1152
      5 C          -6.3195  -15.3181   23.9381 C.3     1  UNL1        0.1116
      6 C          -2.5796  -17.4421   22.6143 C.ar    1  UNL1       -0.0048
      7 C          -3.6292  -18.1834   23.3882 C.ar    1  UNL1       -0.0032
      8 C          -4.8758  -17.4754   23.8295 C.ar    1  UNL1       -0.0041
      9 C          -5.0729  -16.0261   23.4968 C.ar    1  UNL1       -0.0131
     10 C          -4.0233  -15.2848   22.7230 C.ar    1  UNL1       -0.0041
     11 C          -2.7767  -15.9928   22.2817 C.ar    1  UNL1       -0.0032
     12 C          -1.3330  -18.1501   22.1731 C.3     1  UNL1        0.1173
     13 N          -1.1931  -18.6064   20.7511 N.3     1  UNL1       -0.1788
     14 H          -0.9392  -17.7852   20.2020 H       1  UNL1        0.1488
     15 S          -2.3531  -19.2524   20.0531 S.O2    1  UNL1        0.0410
     16 O          -2.2543  -20.4292   20.9780 O.2     1  UNL1       -0.1575
     17 O          -2.4518  -18.0756   19.1282 O.2     1  UNL1       -0.1575
     18 C          -3.5130  -19.8983   19.3551 C.3     1  UNL1        0.1688
     19 C          -4.4193  -20.8264   20.1083 C.3     1  UNL1        0.0270
     20 C          -6.2598  -18.9933   20.1555 C.3     1  UNL1        0.0001
     21 C          -5.8043  -20.3854   20.4788 C.3     1  UNL1        0.0019
     22 C          -9.0147  -16.4165   24.6657 C.3     1  UNL1        0.1138
     23 C          -9.1212  -17.8865   24.3869 C.ar    1  UNL1       -0.0029
     24 C          -8.3924  -18.4832   23.2196 C.ar    1  UNL1       -0.0026
     25 C          -8.4989  -19.9532   22.9407 C.ar    1  UNL1       -0.0003
     26 C          -9.3341  -20.8265   23.8293 C.ar    1  UNL1       -0.0000
     27 C         -10.0629  -20.2298   24.9967 C.ar    1  UNL1       -0.0003
     28 C          -9.9564  -18.7598   25.2755 C.ar    1  UNL1       -0.0026
     29 C          -9.8313  -15.4413   23.8708 C.3     1  UNL1        0.0968
     30 N         -10.7615  -15.9367   22.8033 N.3     1  UNL1       -0.2689
     31 C         -12.1250  -16.5214   23.0240 C.3     1  UNL1        0.0748
     32 C         -12.6977  -16.8805   21.6849 C.3     1  UNL1        0.0480
     33 C         -11.6880  -16.5176   20.6366 C.3     1  UNL1        0.1278
     34 O         -11.8471  -16.7051   19.1569 O.3     1  UNL1       -0.3830
     35 C         -10.4914  -15.9343   21.3278 C.3     1  UNL1        0.1017
     36 H         -12.7127  -17.1020   18.9725 H       1  UNL1        0.2104
@<TRIPOS>BOND
     1    20    21    1
     2    21    19    1
     3    19    18    1
     4    18    15    1
     5    15    16    2
     6    15    17    2
     7    15    13    1
     8    13    12    1
     9    12     6    1
    10     6     7   ar
    11     7     8   ar
    12     8     9   ar
    13     9     5    1
    14     5     1    1
    15     1     2    2
    16     1     3   am
    17     3     4    1
    18     3    22    1
    19    22    29    1
    20    29    30    1
    21    30    31    1
    22    31    32    1
    23    32    33    1
    24    33    34    1
    25    33    35    1
    26    22    23    1
    27    23    24   ar
    28    24    25   ar
    29    25    26   ar
    30    26    27   ar
    31    27    28   ar
    32     9    10   ar
    33    10    11   ar
    34    11     6   ar
    35    35    30    1
    36    28    23   ar
    37    13    14    1
    38    34    36    1
@<TRIPOS>MOLECULE
*****
 36 38 0 0 0
SMALL
GASTEIGER

@<TRIPOS>ATOM
      1 C          -9.4437  -15.9749   21.7409 C.2     1  UNL1        0.2303
      2 O          -9.1765  -14.7309   20.9463 O.2     1  UNL1       -0.2745
      3 N         -10.3571  -17.0319   21.1947 N.am    1  UNL1       -0.2740
      4 C         -11.0034  -16.8450   19.8540 C.3     1  UNL1        0.1152
      5 C          -8.7973  -16.1618   23.0815 C.3     1  UNL1        0.1116
      6 C          -4.4876  -17.4295   23.3446 C.ar    1  UNL1       -0.0048
      7 C          -5.4908  -18.3176   22.6702 C.ar    1  UNL1       -0.0032
      8 C          -6.9274  -17.8950   22.5825 C.ar    1  UNL1       -0.0041
      9 C          -7.3608  -16.5843   23.1692 C.ar    1  UNL1       -0.0131
     10 C          -6.3576  -15.6962   23.8435 C.ar    1  UNL1       -0.0041
     11 C          -4.9210  -16.1188   23.9312 C.ar    1  UNL1       -0.0032
     12 C          -3.0511  -17.8521   23.4323 C.3     1  UNL1        0.1173
     13 N          -2.0254  -17.2118   22.5446 N.3     1  UNL1       -0.1788
     14 H          -2.2823  -16.2283   22.4596 H       1  UNL1        0.1488
     15 S          -1.8132  -17.7259   21.1515 S.O2    1  UNL1        0.0410
     16 O          -1.2652  -19.0066   21.7077 O.2     1  UNL1       -0.1575
     17 O          -2.3613  -16.4451   20.5954 O.2     1  UNL1       -0.1575
     18 C          -1.6011  -18.2400   19.7584 C.3     1  UNL1        0.1688
     19 C          -2.7755  -18.6729   18.9318 C.3     1  UNL1        0.0270
     20 C          -4.1480  -20.5950   20.0141 C.3     1  UNL1        0.0001
     21 C          -4.0266  -19.1578   19.6022 C.3     1  UNL1        0.0019
     22 C         -10.6242  -18.2759   21.9892 C.3     1  UNL1        0.1138
     23 C         -11.7309  -18.2961   23.0015 C.ar    1  UNL1       -0.0029
     24 C         -13.0891  -17.7733   22.6384 C.ar    1  UNL1       -0.0026
     25 C         -14.1958  -17.7935   23.6507 C.ar    1  UNL1       -0.0003
     26 C         -13.9443  -18.3365   25.0261 C.ar    1  UNL1       -0.0000
     27 C         -12.5861  -18.8593   25.3892 C.ar    1  UNL1       -0.0003
     28 C         -11.4794  -18.8391   24.3769 C.ar    1  UNL1       -0.0026
     29 C          -9.7846  -19.4996   21.7713 C.3     1  UNL1        0.0968
     30 N          -9.2220  -19.7909   20.4116 N.3     1  UNL1       -0.2689
     31 C          -7.8380  -19.4565   19.9399 C.3     1  UNL1        0.0748
     32 C          -7.7053  -19.9267   18.5217 C.3     1  UNL1        0.0480
     33 C          -9.0075  -20.5517   18.1169 C.3     1  UNL1        0.1278
     34 O          -9.3177  -21.1547   16.7789 O.3     1  UNL1       -0.3830
     35 C          -9.9448  -20.4678   19.2849 C.3     1  UNL1        0.1017
     36 H          -8.5408  -21.0808   16.2030 H       1  UNL1        0.2104
@<TRIPOS>BOND
     1    20    21    1
     2    21    19    1
     3    19    18    1
     4    18    15    1
     5    15    16    2
     6    15    17    2
     7    15    13    1
     8    13    12    1
     9    12     6    1
    10     6     7   ar
    11     7     8   ar
    12     8     9   ar
    13     9     5    1
    14     5     1    1
    15     1     2    2
    16     1     3   am
    17     3     4    1
    18     3    22    1
    19    22    29    1
    20    29    30    1
    21    30    31    1
    22    31    32    1
    23    32    33    1
    24    33    34    1
    25    33    35    1
    26    22    23    1
    27    23    24   ar
    28    24    25   ar
    29    25    26   ar
    30    26    27   ar
    31    27    28   ar
    32     9    10   ar
    33    10    11   ar
    34    11     6   ar
    35    35    30    1
    36    28    23   ar
    37    13    14    1
    38    34    36    1
@<TRIPOS>MOLECULE
*****
 36 38 0 0 0
SMALL
GASTEIGER

@<TRIPOS>ATOM
      1 C          -8.1163  -15.8940   22.7919 C.2     1  UNL1        0.2303
      2 O          -7.7920  -14.4316   22.7111 O.2     1  UNL1       -0.2745
      3 N          -9.1752  -16.4775   21.9041 N.am    1  UNL1       -0.2740
      4 C          -9.9098  -15.5987   20.9354 C.3     1  UNL1        0.1152
      5 C          -7.3818  -16.7727   23.7605 C.3     1  UNL1        0.1116
      6 C          -3.4480  -18.6170   22.5885 C.ar    1  UNL1       -0.0048
      7 C          -4.7334  -19.3066   22.2390 C.ar    1  UNL1       -0.0032
      8 C          -6.0446  -18.6919   22.6297 C.ar    1  UNL1       -0.0041
      9 C          -6.0705  -17.3875   23.3698 C.ar    1  UNL1       -0.0131
     10 C          -4.7851  -16.6979   23.7193 C.ar    1  UNL1       -0.0041
     11 C          -3.4738  -17.3127   23.3286 C.ar    1  UNL1       -0.0032
     12 C          -2.1367  -19.2318   22.1978 C.3     1  UNL1        0.1173
     13 N          -0.9850  -18.3551   21.8042 N.3     1  UNL1       -0.1788
     14 H          -1.0414  -17.5173   22.3832 H       1  UNL1        0.1488
     15 S          -0.8462  -17.8916   20.3843 S.O2    1  UNL1        0.0410
     16 O          -0.6140  -19.3069   19.9450 O.2     1  UNL1       -0.1575
     17 O          -1.0785  -16.4763   20.8237 O.2     1  UNL1       -0.1575
     18 C          -0.7075  -17.4281   18.9645 C.3     1  UNL1        0.1688
     19 C          -1.8636  -17.5560   18.0174 C.3     1  UNL1        0.0270
     20 C          -3.9828  -18.6790   19.0164 C.3     1  UNL1        0.0001
     21 C          -3.2690  -17.4522   18.5312 C.3     1  UNL1        0.0019
     22 C          -9.4995  -17.9397   21.9848 C.3     1  UNL1        0.1138
     23 C          -9.3440  -18.8105   20.7734 C.ar    1  UNL1       -0.0029
     24 C         -10.5502  -19.2059   19.9741 C.ar    1  UNL1       -0.0026
     25 C         -10.3947  -20.0767   18.7627 C.ar    1  UNL1       -0.0003
     26 C          -9.0330  -20.5520   18.3505 C.ar    1  UNL1       -0.0000
     27 C          -7.8269  -20.1565   19.1497 C.ar    1  UNL1       -0.0003
     28 C          -7.9824  -19.2858   20.3611 C.ar    1  UNL1       -0.0026
     29 C          -9.9793  -18.5313   23.2770 C.3     1  UNL1        0.0968
     30 N         -11.4191  -18.3949   23.6754 N.3     1  UNL1       -0.2689
     31 C         -12.5159  -17.8142   22.8330 C.3     1  UNL1        0.0748
     32 C         -13.7894  -17.8758   23.6231 C.3     1  UNL1        0.0480
     33 C         -13.4796  -18.4945   24.9541 C.3     1  UNL1        0.1278
     34 O         -14.4623  -18.7479   26.0587 O.3     1  UNL1       -0.3830
     35 C         -12.0147  -18.8154   24.9864 C.3     1  UNL1        0.1017
     36 H         -15.3428  -18.4485   25.7831 H       1  UNL1        0.2104
@<TRIPOS>BOND
     1    20    21    1
     2    21    19    1
     3    19    18    1
     4    18    15    1
     5    15    16    2
     6    15    17    2
     7    15    13    1
     8    13    12    1
     9    12     6    1
    10     6     7   ar
    11     7     8   ar
    12     8     9   ar
    13     9     5    1
    14     5     1    1
    15     1     2    2
    16     1     3   am
    17     3     4    1
    18     3    22    1
    19    22    29    1
    20    29    30    1
    21    30    31    1
    22    31    32    1
    23    32    33    1
    24    33    34    1
    25    33    35    1
    26    22    23    1
    27    23    24   ar
    28    24    25   ar
    29    25    26   ar
    30    26    27   ar
    31    27    28   ar
    32     9    10   ar
    33    10    11   ar
    34    11     6   ar
    35    35    30    1
    36    28    23   ar
    37    13    14    1
    38    34    36    1
@<TRIPOS>MOLECULE
*****
 36 38 0 0 0
SMALL
GASTEIGER

@<TRIPOS>ATOM
      1 C           6.3113   -1.7623   25.1584 C.2     1  UNL1        0.2303
      2 O           6.6510   -0.3759   24.6973 O.2     1  UNL1       -0.2745
      3 N           7.2622   -2.5123   26.0435 N.am    1  UNL1       -0.2740
      4 C           8.5527   -1.8760   26.4673 C.3     1  UNL1        0.1152
      5 C           5.0208   -2.3986   24.7346 C.3     1  UNL1        0.1116
      6 C           4.0183   -2.7569   20.3623 C.ar    1  UNL1       -0.0048
      7 C           4.8712   -3.7984   21.0240 C.ar    1  UNL1       -0.0032
      8 C           5.2054   -3.6789   22.4814 C.ar    1  UNL1       -0.0041
      9 C           4.6866   -2.5181   23.2772 C.ar    1  UNL1       -0.0131
     10 C           3.8337   -1.4766   22.6155 C.ar    1  UNL1       -0.0041
     11 C           3.4995   -1.5961   21.1580 C.ar    1  UNL1       -0.0032
     12 C           3.6841   -2.8764   18.9049 C.3     1  UNL1        0.1173
     13 N           4.7242   -2.5676   17.8692 N.3     1  UNL1       -0.1788
     14 H           5.1851   -3.4490   17.6429 H       1  UNL1        0.1488
     15 S           5.8092   -1.5759   18.1682 S.O2    1  UNL1        0.0410
     16 O           6.7978   -2.6965   18.2975 O.2     1  UNL1       -0.1575
     17 O           4.8205   -0.4553   18.0389 O.2     1  UNL1       -0.1575
     18 C           6.8941   -0.5842   18.4672 C.3     1  UNL1        0.1688
     19 C           6.8596    0.2032   19.7434 C.3     1  UNL1        0.0270
     20 C           8.0701   -1.4657   21.3244 C.3     1  UNL1        0.0001
     21 C           6.9493   -0.5037   21.0634 C.3     1  UNL1        0.0019
     22 C           6.9226   -3.8987   26.5046 C.3     1  UNL1        0.1138
     23 C           7.3957   -5.0868   25.7208 C.ar    1  UNL1       -0.0029
     24 C           8.0346   -4.8931   24.3775 C.ar    1  UNL1       -0.0026
     25 C           8.5077   -6.0813   23.5937 C.ar    1  UNL1       -0.0003
     26 C           8.3419   -7.4631   24.1530 C.ar    1  UNL1       -0.0000
     27 C           7.7031   -7.6568   25.4963 C.ar    1  UNL1       -0.0003
     28 C           7.2300   -6.4687   26.2801 C.ar    1  UNL1       -0.0026
     29 C           6.1099   -4.0968   27.7497 C.3     1  UNL1        0.0968
     30 N           6.7953   -4.3155   29.0659 N.3     1  UNL1       -0.2689
     31 C           7.5583   -3.2852   29.8445 C.3     1  UNL1        0.0748
     32 C           8.0726   -3.9357   31.0944 C.3     1  UNL1        0.0480
     33 C           7.6275   -5.3682   31.0883 C.3     1  UNL1        0.1278
     34 O           7.9203   -6.3871   32.1495 O.3     1  UNL1       -0.3830
     35 C           6.8380   -5.6029   29.8346 C.3     1  UNL1        0.1017
     36 H           8.4486   -5.9785   32.8529 H       1  UNL1        0.2104
@<TRIPOS>BOND
     1    20    21    1
     2    21    19    1
     3    19    18    1
     4    18    15    1
     5    15    16    2
     6    15    17    2
     7    15    13    1
     8    13    12    1
     9    12     6    1
    10     6     7   ar
    11     7     8   ar
    12     8     9   ar
    13     9     5    1
    14     5     1    1
    15     1     2    2
    16     1     3   am
    17     3     4    1
    18     3    22    1
    19    22    29    1
    20    29    30    1
    21    30    31    1
    22    31    32    1
    23    32    33    1
    24    33    34    1
    25    33    35    1
    26    22    23    1
    27    23    24   ar
    28    24    25   ar
    29    25    26   ar
    30    26    27   ar
    31    27    28   ar
    32     9    10   ar
    33    10    11   ar
    34    11     6   ar
    35    35    30    1
    36    28    23   ar
    37    13    14    1
    38    34    36    1
@<TRIPOS>MOLECULE
*****
 36 38 0 0 0
SMALL
GASTEIGER

@<TRIPOS>ATOM
      1 C          -9.9480  -18.5394   24.8158 C.2     1  UNL1        0.2303
      2 O         -10.0461  -18.6643   26.3075 O.2     1  UNL1       -0.2745
      3 N          -9.9722  -19.7690   23.9570 N.am    1  UNL1       -0.2740
      4 C         -10.0944  -21.1235   24.5899 C.3     1  UNL1        0.1152
      5 C          -9.8259  -17.1849   24.1831 C.3     1  UNL1        0.1116
      6 C          -5.7628  -15.3621   23.5356 C.ar    1  UNL1       -0.0048
      7 C          -6.2081  -15.7293   24.9201 C.ar    1  UNL1       -0.0032
      8 C          -7.5625  -16.3369   25.1359 C.ar    1  UNL1       -0.0041
      9 C          -8.4715  -16.5773   23.9673 C.ar    1  UNL1       -0.0131
     10 C          -8.0262  -16.2101   22.5828 C.ar    1  UNL1       -0.0041
     11 C          -6.6719  -15.6025   22.3670 C.ar    1  UNL1       -0.0032
     12 C          -4.4085  -14.7545   23.3198 C.3     1  UNL1        0.1173
     13 N          -3.5794  -15.1698   22.1408 N.3     1  UNL1       -0.1788
     14 H          -4.2252  -15.3244   21.3665 H       1  UNL1        0.1488
     15 S          -2.7084  -16.3878   22.2281 S.O2    1  UNL1        0.0410
     16 O          -1.5642  -15.6113   21.6468 O.2     1  UNL1       -0.1575
     17 O          -3.8526  -17.1643   22.8094 O.2     1  UNL1       -0.1575
     18 C          -1.8374  -17.6059   22.3154 C.3     1  UNL1        0.1688
     19 C          -2.3931  -18.9525   21.9579 C.3     1  UNL1        0.0270
     20 C          -1.8625  -18.5223   19.4513 C.3     1  UNL1        0.0001
     21 C          -2.3098  -19.4471   20.5443 C.3     1  UNL1        0.0019
     22 C          -9.8742  -19.6441   22.4655 C.3     1  UNL1        0.1138
     23 C          -8.5291  -19.6142   21.8021 C.ar    1  UNL1       -0.0029
     24 C          -7.2906  -19.8792   22.6056 C.ar    1  UNL1       -0.0026
     25 C          -5.9455  -19.8493   21.9423 C.ar    1  UNL1       -0.0003
     26 C          -5.8391  -19.5545   20.4754 C.ar    1  UNL1       -0.0000
     27 C          -7.0777  -19.2895   19.6719 C.ar    1  UNL1       -0.0003
     28 C          -8.4227  -19.3194   20.3353 C.ar    1  UNL1       -0.0026
     29 C         -11.1211  -19.5490   21.6373 C.3     1  UNL1        0.0968
     30 N         -11.6360  -18.2071   21.2082 N.3     1  UNL1       -0.2689
     31 C         -12.5744  -17.3328   21.9860 C.3     1  UNL1        0.0748
     32 C         -12.8212  -16.0892   21.1844 C.3     1  UNL1        0.0480
     33 C         -12.0354  -16.1949   19.9110 C.3     1  UNL1        0.1278
     34 O         -11.9901  -15.1715   18.8154 O.3     1  UNL1       -0.3830
     35 C         -11.3030  -17.5039   19.9257 C.3     1  UNL1        0.1017
     36 H         -12.5524  -14.4178   19.0535 H       1  UNL1        0.2104
@<TRIPOS>BOND
     1    20    21    1
     2    21    19    1
     3    19    18    1
     4    18    15    1
     5    15    16    2
     6    15    17    2
     7    15    13    1
     8    13    12    1
     9    12     6    1
    10     6     7   ar
    11     7     8   ar
    12     8     9   ar
    13     9     5    1
    14     5     1    1
    15     1     2    2
    16     1     3   am
    17     3     4    1
    18     3    22    1
    19    22    29    1
    20    29    30    1
    21    30    31    1
    22    31    32    1
    23    32    33    1
    24    33    34    1
    25    33    35    1
    26    22    23    1
    27    23    24   ar
    28    24    25   ar
    29    25    26   ar
    30    26    27   ar
    31    27    28   ar
    32     9    10   ar
    33    10    11   ar
    34    11     6   ar
    35    35    30    1
    36    28    23   ar
    37    13    14    1
    38    34    36    1
@<TRIPOS>MOLECULE
*****
 36 38 0 0 0
SMALL
GASTEIGER

@<TRIPOS>ATOM
      1 C           3.4316    1.9544   23.8908 C.2     1  UNL1        0.2303
      2 O           4.7413    1.9646   24.6219 O.2     1  UNL1       -0.2745
      3 N           2.6900    3.2382   23.6627 N.am    1  UNL1       -0.2740
      4 C           3.2581    4.5321   24.1657 C.3     1  UNL1        0.1152
      5 C           2.8635    0.6605   23.3877 C.3     1  UNL1        0.1116
      6 C           3.7308   -0.6949   19.1853 C.ar    1  UNL1       -0.0048
      7 C           2.4668   -1.1276   19.8671 C.ar    1  UNL1       -0.0032
      8 C           2.1776   -0.6758   21.2679 C.ar    1  UNL1       -0.0041
      9 C           3.1526    0.2087   21.9869 C.ar    1  UNL1       -0.0131
     10 C           4.4167    0.6414   21.3051 C.ar    1  UNL1       -0.0041
     11 C           4.7058    0.1896   19.9043 C.ar    1  UNL1       -0.0032
     12 C           4.0200   -1.1468   17.7845 C.3     1  UNL1        0.1173
     13 N           4.5846   -2.5146   17.5391 N.3     1  UNL1       -0.1788
     14 H           3.8452   -3.0641   17.1013 H       1  UNL1        0.1488
     15 S           5.1067   -3.3274   18.6866 S.O2    1  UNL1        0.0410
     16 O           6.4141   -2.5963   18.6096 O.2     1  UNL1       -0.1575
     17 O           3.7992   -4.0586   18.7635 O.2     1  UNL1       -0.1575
     18 C           5.6287   -4.1402   19.8341 C.3     1  UNL1        0.1688
     19 C           5.7711   -3.5172   21.1911 C.3     1  UNL1        0.0270
     20 C           4.7078   -2.7706   23.4410 C.3     1  UNL1        0.0001
     21 C           4.6056   -3.5016   22.1352 C.3     1  UNL1        0.0019
     22 C           1.3803    3.2281   22.9315 C.3     1  UNL1        0.1138
     23 C           1.3491    2.9821   21.4522 C.ar    1  UNL1       -0.0029
     24 C           0.2334    2.1817   20.8483 C.ar    1  UNL1       -0.0026
     25 C           0.2022    1.9358   19.3690 C.ar    1  UNL1       -0.0003
     26 C           1.2866    2.4902   18.4934 C.ar    1  UNL1       -0.0000
     27 C           2.4022    3.2906   19.0973 C.ar    1  UNL1       -0.0003
     28 C           2.4335    3.5365   20.5766 C.ar    1  UNL1       -0.0026
     29 C           0.1019    3.4639   23.6798 C.3     1  UNL1        0.0968
     30 N          -0.0843    2.8805   25.0491 N.3     1  UNL1       -0.2689
     31 C          -0.2728    3.6554   26.3195 C.3     1  UNL1        0.0748
     32 C          -0.4196    2.6736   27.4440 C.3     1  UNL1        0.0480
     33 C          -0.3219    1.2917   26.8685 C.3     1  UNL1        0.1278
     34 O          -0.4151    0.0076   27.6381 O.3     1  UNL1       -0.3830
     35 C          -0.1147    1.4196   25.3884 C.3     1  UNL1        0.1017
     36 H          -0.5501    0.2032   28.5785 H       1  UNL1        0.2104
@<TRIPOS>BOND
     1    20    21    1
     2    21    19    1
     3    19    18    1
     4    18    15    1
     5    15    16    2
     6    15    17    2
     7    15    13    1
     8    13    12    1
     9    12     6    1
    10     6     7   ar
    11     7     8   ar
    12     8     9   ar
    13     9     5    1
    14     5     1    1
    15     1     2    2
    16     1     3   am
    17     3     4    1
    18     3    22    1
    19    22    29    1
    20    29    30    1
    21    30    31    1
    22    31    32    1
    23    32    33    1
    24    33    34    1
    25    33    35    1
    26    22    23    1
    27    23    24   ar
    28    24    25   ar
    29    25    26   ar
    30    26    27   ar
    31    27    28   ar
    32     9    10   ar
    33    10    11   ar
    34    11     6   ar
    35    35    30    1
    36    28    23   ar
    37    13    14    1
    38    34    36    1
@<TRIPOS>MOLECULE
*****
 36 38 0 0 0
SMALL
GASTEIGER

@<TRIPOS>ATOM
      1 C           3.4375    1.2705   24.0687 C.2     1  UNL1        0.2303
      2 O           4.8404    0.9629   24.5014 O.2     1  UNL1       -0.2745
      3 N           2.9516    2.6895   24.0527 N.am    1  UNL1       -0.2740
      4 C           3.8688    3.8010   24.4693 C.3     1  UNL1        0.1152
      5 C           2.5204    0.1590   23.6522 C.3     1  UNL1        0.1116
      6 C           3.4364   -2.2510   19.9640 C.ar    1  UNL1       -0.0048
      7 C           4.2089   -2.4903   21.2273 C.ar    1  UNL1       -0.0032
      8 C           3.9035   -1.6870   22.4567 C.ar    1  UNL1       -0.0041
      9 C           2.8257   -0.6443   22.4228 C.ar    1  UNL1       -0.0131
     10 C           2.0532   -0.4050   21.1595 C.ar    1  UNL1       -0.0041
     11 C           2.3586   -1.2084   19.9301 C.ar    1  UNL1       -0.0032
     12 C           3.7417   -3.0543   18.7346 C.3     1  UNL1        0.1173
     13 N           4.8750   -2.6520   17.8381 N.3     1  UNL1       -0.1788
     14 H           5.7206   -3.0693   18.2271 H       1  UNL1        0.1488
     15 S           5.1734   -1.1995   17.6122 S.O2    1  UNL1        0.0410
     16 O           4.0133   -1.1083   16.6657 O.2     1  UNL1       -0.1575
     17 O           6.3335   -1.2906   18.5587 O.2     1  UNL1       -0.1575
     18 C           5.4718    0.2531   17.3864 C.3     1  UNL1        0.1688
     19 C           4.6819    1.3025   18.1108 C.3     1  UNL1        0.0270
     20 C           5.3350    1.3443   20.6251 C.3     1  UNL1        0.0001
     21 C           5.2831    2.0164   19.2851 C.3     1  UNL1        0.0019
     22 C           1.5488    2.9971   23.6200 C.3     1  UNL1        0.1138
     23 C           1.1696    2.8896   22.1727 C.ar    1  UNL1       -0.0029
     24 C          -0.1947    2.3980   21.7893 C.ar    1  UNL1       -0.0026
     25 C          -0.5738    2.2906   20.3420 C.ar    1  UNL1       -0.0003
     26 C           0.4113    2.6747   19.2781 C.ar    1  UNL1       -0.0000
     27 C           1.7756    3.1663   19.6615 C.ar    1  UNL1       -0.0003
     28 C           2.1547    3.2738   21.1088 C.ar    1  UNL1       -0.0026
     29 C           0.5250    3.4122   24.6347 C.3     1  UNL1        0.0968
     30 N           0.3799    2.6405   25.9128 N.3     1  UNL1       -0.2689
     31 C           0.8274    3.0924   27.2713 C.3     1  UNL1        0.0748
     32 C           0.4860    2.0125   28.2548 C.3     1  UNL1        0.0480
     33 C          -0.1726    0.8932   27.5042 C.3     1  UNL1        0.1278
     34 O          -0.6771   -0.3891   28.0969 O.3     1  UNL1       -0.3830
     35 C          -0.2381    1.2813   26.0567 C.3     1  UNL1        0.1017
     36 H          -0.5130   -0.3899   29.0529 H       1  UNL1        0.2104
@<TRIPOS>BOND
     1    20    21    1
     2    21    19    1
     3    19    18    1
     4    18    15    1
     5    15    16    2
     6    15    17    2
     7    15    13    1
     8    13    12    1
     9    12     6    1
    10     6     7   ar
    11     7     8   ar
    12     8     9   ar
    13     9     5    1
    14     5     1    1
    15     1     2    2
    16     1     3   am
    17     3     4    1
    18     3    22    1
    19    22    29    1
    20    29    30    1
    21    30    31    1
    22    31    32    1
    23    32    33    1
    24    33    34    1
    25    33    35    1
    26    22    23    1
    27    23    24   ar
    28    24    25   ar
    29    25    26   ar
    30    26    27   ar
    31    27    28   ar
    32     9    10   ar
    33    10    11   ar
    34    11     6   ar
    35    35    30    1
    36    28    23   ar
    37    13    14    1
    38    34    36    1
@<TRIPOS>MOLECULE
*****
 36 38 0 0 0
SMALL
GASTEIGER

@<TRIPOS>ATOM
      1 C           4.7301   -3.0520   21.0323 C.2     1  UNL1        0.2303
      2 O           4.7708   -4.3155   21.8400 O.2     1  UNL1       -0.2745
      3 N           4.1129   -3.0555   19.6652 N.am    1  UNL1       -0.2740
      4 C           3.5364   -4.3223   19.1057 C.3     1  UNL1        0.1152
      5 C           5.3065   -1.7853   21.5918 C.3     1  UNL1        0.1116
      6 C           2.6139    1.2336   23.5630 C.ar    1  UNL1       -0.0048
      7 C           3.6274    1.6802   22.5515 C.ar    1  UNL1       -0.0032
      8 C           4.5250    0.6739   21.8944 C.ar    1  UNL1       -0.0041
      9 C           4.4090   -0.7790   22.2489 C.ar    1  UNL1       -0.0131
     10 C           3.3954   -1.2255   23.2604 C.ar    1  UNL1       -0.0041
     11 C           2.4979   -0.2192   23.9175 C.ar    1  UNL1       -0.0032
     12 C           1.7163    2.2400   24.2201 C.3     1  UNL1        0.1173
     13 N           0.2585    1.9382   24.4030 N.3     1  UNL1       -0.1788
     14 H          -0.2531    2.5774   23.7947 H       1  UNL1        0.1488
     15 S          -0.3643    2.0436   25.7636 S.O2    1  UNL1        0.0410
     16 O           0.7475    1.2156   26.3366 O.2     1  UNL1       -0.1575
     17 O          -1.4761    2.8716   25.1905 O.2     1  UNL1       -0.1575
     18 C          -0.9871    2.1490   27.1241 C.3     1  UNL1        0.1688
     19 C          -0.2608    1.6186   28.3245 C.3     1  UNL1        0.0270
     20 C          -1.4319   -0.6543   28.7855 C.3     1  UNL1        0.0001
     21 C          -0.9559    0.6835   29.2691 C.3     1  UNL1        0.0019
     22 C           4.0721   -1.7921   18.8576 C.3     1  UNL1        0.1138
     23 C           2.9644   -0.8029   19.0680 C.ar    1  UNL1       -0.0029
     24 C           2.9978    0.5214   18.3643 C.ar    1  UNL1       -0.0026
     25 C           1.8901    1.5107   18.5748 C.ar    1  UNL1       -0.0003
     26 C           0.7489    1.1757   19.4888 C.ar    1  UNL1       -0.0000
     27 C           0.7155   -0.1486   20.1924 C.ar    1  UNL1       -0.0003
     28 C           1.8232   -1.1379   19.9820 C.ar    1  UNL1       -0.0026
     29 C           5.1391   -1.5181   17.8395 C.3     1  UNL1        0.0968
     30 N           6.5353   -1.1973   18.2841 N.3     1  UNL1       -0.2689
     31 C           7.5875   -2.1931   18.6730 C.3     1  UNL1        0.0748
     32 C           8.8269   -1.4356   19.0471 C.3     1  UNL1        0.0480
     33 C           8.5408    0.0284   18.8895 C.3     1  UNL1        0.1278
     34 O           9.5021    1.1485   19.1565 O.3     1  UNL1       -0.3830
     35 C           7.1245    0.1757   18.4179 C.3     1  UNL1        0.1017
     36 H          10.3508    0.7828   19.4511 H       1  UNL1        0.2104
@<TRIPOS>BOND
     1    20    21    1
     2    21    19    1
     3    19    18    1
     4    18    15    1
     5    15    16    2
     6    15    17    2
     7    15    13    1
     8    13    12    1
     9    12     6    1
    10     6     7   ar
    11     7     8   ar
    12     8     9   ar
    13     9     5    1
    14     5     1    1
    15     1     2    2
    16     1     3   am
    17     3     4    1
    18     3    22    1
    19    22    29    1
    20    29    30    1
    21    30    31    1
    22    31    32    1
    23    32    33    1
    24    33    34    1
    25    33    35    1
    26    22    23    1
    27    23    24   ar
    28    24    25   ar
    29    25    26   ar
    30    26    27   ar
    31    27    28   ar
    32     9    10   ar
    33    10    11   ar
    34    11     6   ar
    35    35    30    1
    36    28    23   ar
    37    13    14    1
    38    34    36    1
@<TRIPOS>MOLECULE
*****
 36 38 0 0 0
SMALL
GASTEIGER

@<TRIPOS>ATOM
      1 C           3.9171   -2.6928   19.8548 C.2     1  UNL1        0.2303
      2 O           3.2434   -3.8657   19.2061 O.2     1  UNL1       -0.2745
      3 N           5.1474   -2.0982   19.2361 N.am    1  UNL1       -0.2740
      4 C           5.7040   -2.6764   17.9688 C.3     1  UNL1        0.1152
      5 C           3.3605   -2.1147   21.1220 C.3     1  UNL1        0.1116
      6 C           0.6531    1.4760   20.9578 C.ar    1  UNL1       -0.0048
      7 C           0.6943    0.5146   19.8073 C.ar    1  UNL1       -0.0032
      8 C           1.5967   -0.6824   19.8620 C.ar    1  UNL1       -0.0041
      9 C           2.4580   -0.9178   21.0672 C.ar    1  UNL1       -0.0131
     10 C           2.4169    0.0437   22.2178 C.ar    1  UNL1       -0.0041
     11 C           1.5144    1.2406   22.1631 C.ar    1  UNL1       -0.0032
     12 C          -0.2493    2.6730   20.9031 C.3     1  UNL1        0.1173
     13 N          -1.7379    2.4923   20.9424 N.3     1  UNL1       -0.1788
     14 H          -1.9282    1.5448   20.6164 H       1  UNL1        0.1488
     15 S          -2.6256    3.4083   20.1531 S.O2    1  UNL1        0.0410
     16 O          -3.8247    2.8670   20.8736 O.2     1  UNL1       -0.1575
     17 O          -1.4265    3.9496   19.4326 O.2     1  UNL1       -0.1575
     18 C          -3.5133    4.3242   19.3638 C.3     1  UNL1        0.1688
     19 C          -4.6348    3.7588   18.5436 C.3     1  UNL1        0.0270
     20 C          -3.6754    3.4115   16.1543 C.3     1  UNL1        0.0001
     21 C          -4.6937    4.0255   17.0687 C.3     1  UNL1        0.0019
     22 C           5.8211   -0.9254   19.8846 C.3     1  UNL1        0.1138
     23 C           5.2277    0.4462   19.7553 C.ar    1  UNL1       -0.0029
     24 C           4.4960    0.8319   18.5040 C.ar    1  UNL1       -0.0026
     25 C           3.9027    2.2035   18.3746 C.ar    1  UNL1       -0.0003
     26 C           4.0411    3.1894   19.4966 C.ar    1  UNL1       -0.0000
     27 C           4.7728    2.8037   20.7479 C.ar    1  UNL1       -0.0003
     28 C           5.3661    1.4321   20.8772 C.ar    1  UNL1       -0.0026
     29 C           7.0880   -1.1242   20.6626 C.3     1  UNL1        0.0968
     30 N           7.4109   -2.4710   21.2388 N.3     1  UNL1       -0.2689
     31 C           6.9317   -3.0040   22.5565 C.3     1  UNL1        0.0748
     32 C           7.4942   -4.3836   22.7306 C.3     1  UNL1        0.0480
     33 C           8.3211   -4.7032   21.5205 C.3     1  UNL1        0.1278
     34 O           9.0683   -5.9805   21.2755 O.3     1  UNL1       -0.3830
     35 C           8.2696   -3.5211   20.5986 C.3     1  UNL1        0.1017
     36 H           8.9372   -6.5809   22.0260 H       1  UNL1        0.2104
@<TRIPOS>BOND
     1    20    21    1
     2    21    19    1
     3    19    18    1
     4    18    15    1
     5    15    16    2
     6    15    17    2
     7    15    13    1
     8    13    12    1
     9    12     6    1
    10     6     7   ar
    11     7     8   ar
    12     8     9   ar
    13     9     5    1
    14     5     1    1
    15     1     2    2
    16     1     3   am
    17     3     4    1
    18     3    22    1
    19    22    29    1
    20    29    30    1
    21    30    31    1
    22    31    32    1
    23    32    33    1
    24    33    34    1
    25    33    35    1
    26    22    23    1
    27    23    24   ar
    28    24    25   ar
    29    25    26   ar
    30    26    27   ar
    31    27    28   ar
    32     9    10   ar
    33    10    11   ar
    34    11     6   ar
    35    35    30    1
    36    28    23   ar
    37    13    14    1
    38    34    36    1
