@<TRIPOS>MOLECULE
*****
 27 30 0 0 0
SMALL
GASTEIGER

@<TRIPOS>ATOM
      1 C          -4.4990  -19.7530   20.8636 C.ar    1  UNL1        0.1384
      2 C          -5.4708  -20.7745   20.3515 C.ar    1  UNL1        0.0381
      3 C          -6.9246  -20.6704   20.7058 C.ar    1  UNL1        0.0172
      4 C          -7.4066  -19.5446   21.5722 C.ar    1  UNL1        0.0430
      5 C          -6.4348  -18.5232   22.0841 C.ar    1  UNL1        0.0207
      6 C          -4.9810  -18.6273   21.7298 C.ar    1  UNL1        0.0362
      7 C          -6.9169  -17.3974   22.9505 C.3     1  UNL1        0.1402
      8 O          -5.9451  -16.3760   23.4625 O.3     1  UNL1       -0.3518
      9 C          -6.4271  -15.2503   24.3288 C.3     1  UNL1        0.1425
     10 C          -7.8809  -15.1462   24.6831 C.3     1  UNL1        0.0322
     11 C          -8.8527  -16.1676   24.1711 C.3     1  UNL1        0.0070
     12 C          -8.3707  -17.2933   23.3048 C.3     1  UNL1        0.0494
     13 C          -9.3425  -18.3148   22.7928 C.3     1  UNL1        0.0717
     14 N          -8.8604  -19.4405   21.9265 N.pl3   1  UNL1       -0.3341
     15 H          -9.4983  -20.1109   21.5904 H       1  UNL1        0.1468
     16 C         -10.7963  -18.2107   23.1471 C.3     1  UNL1        0.0230
     17 C         -11.7385  -17.4758   22.2402 C.3     1  UNL1        0.0338
     18 C         -13.1923  -17.3716   22.5945 C.3     1  UNL1        0.1422
     19 O         -13.7040  -18.0023   23.8557 O.3     1  UNL1       -0.3538
     20 C         -12.7618  -18.7371   24.7625 C.3     1  UNL1        0.1422
     21 C         -11.3080  -18.8413   24.4082 C.3     1  UNL1        0.0338
     22 O          -3.0451  -19.8572   20.5092 O.3     1  UNL1       -0.4755
     23 C          -2.5218  -19.1740   19.2806 C.3     1  UNL1        0.2054
     24 C          -2.2512  -17.6987   19.3006 C.3     1  UNL1        0.0473
     25 C          -1.8346  -16.3212   21.4637 C.3     1  UNL1        0.0001
     26 C          -1.3049  -17.1234   20.3122 C.3     1  UNL1        0.0037
     27 C           0.1712  -17.3502   20.1723 C.3     1  UNL1        0.0001
@<TRIPOS>BOND
     1    25    26    1
     2    26    27    1
     3    26    24    1
     4    24    23    1
     5    23    22    1
     6    22     1    1
     7     1     2   ar
     8     2     3   ar
     9     3     4   ar
    10     4     5   ar
    11     5     6   ar
    12     5     7    1
    13     7     8    1
    14     8     9    1
    15     9    10    1
    16    10    11    1
    17    12    11    1
    18    12    13    1
    19    13    16    1
    20    16    17    1
    21    17    18    1
    22    18    19    1
    23    19    20    1
    24    20    21    1
    25    13    14    1
    26     6     1   ar
    27    12     7    1
    28    21    16    1
    29    14     4    1
    30    14    15    1
@<TRIPOS>MOLECULE
*****
 27 30 0 0 0
SMALL
GASTEIGER

@<TRIPOS>ATOM
      1 C         -11.1992  -18.8566   23.9911 C.ar    1  UNL1        0.1384
      2 C         -11.0182  -20.0672   23.1241 C.ar    1  UNL1        0.0381
      3 C          -9.6955  -20.3277   22.4663 C.ar    1  UNL1        0.0172
      4 C          -8.5538  -19.3775   22.6756 C.ar    1  UNL1        0.0430
      5 C          -8.7348  -18.1670   23.5427 C.ar    1  UNL1        0.0207
      6 C         -10.0575  -17.9065   24.2004 C.ar    1  UNL1        0.0362
      7 C          -7.5931  -17.2168   23.7520 C.3     1  UNL1        0.1402
      8 O          -7.7741  -16.0063   24.6191 O.3     1  UNL1       -0.3518
      9 C          -6.6324  -15.0562   24.8284 C.3     1  UNL1        0.1425
     10 C          -5.3097  -15.3167   24.1706 C.3     1  UNL1        0.0322
     11 C          -5.1287  -16.5272   23.3036 C.3     1  UNL1        0.0070
     12 C          -6.2704  -17.4773   23.0943 C.3     1  UNL1        0.0494
     13 C          -6.0894  -18.6879   22.2272 C.3     1  UNL1        0.0717
     14 N          -7.2311  -19.6380   22.0179 N.pl3   1  UNL1       -0.3341
     15 H          -7.1123  -20.4325   21.4488 H       1  UNL1        0.1468
     16 C          -4.7667  -18.9483   21.5695 C.3     1  UNL1        0.0230
     17 C          -4.6581  -18.9378   20.0734 C.3     1  UNL1        0.0338
     18 C          -3.3354  -19.1983   19.4156 C.3     1  UNL1        0.1422
     19 O          -2.1213  -19.4692   20.2540 O.3     1  UNL1       -0.3538
     20 C          -2.2300  -19.4797   21.7500 C.3     1  UNL1        0.1422
     21 C          -3.5527  -19.2193   22.4077 C.3     1  UNL1        0.0338
     22 O         -12.5219  -18.5962   24.6489 O.3     1  UNL1       -0.4755
     23 C         -13.6443  -17.9880   23.8612 C.3     1  UNL1        0.2054
     24 C         -13.5407  -17.8800   22.3687 C.3     1  UNL1        0.0473
     25 C         -11.7980  -17.3908   20.5050 C.3     1  UNL1        0.0001
     26 C         -12.5192  -16.9714   21.7516 C.3     1  UNL1        0.0037
     27 C         -12.2188  -15.6435   22.3812 C.3     1  UNL1        0.0001
@<TRIPOS>BOND
     1    25    26    1
     2    26    27    1
     3    26    24    1
     4    24    23    1
     5    23    22    1
     6    22     1    1
     7     1     2   ar
     8     2     3   ar
     9     3     4   ar
    10     4     5   ar
    11     5     6   ar
    12     5     7    1
    13     7     8    1
    14     8     9    1
    15     9    10    1
    16    10    11    1
    17    12    11    1
    18    12    13    1
    19    13    16    1
    20    16    17    1
    21    17    18    1
    22    18    19    1
    23    19    20    1
    24    20    21    1
    25    13    14    1
    26     6     1   ar
    27    12     7    1
    28    21    16    1
    29    14     4    1
    30    14    15    1
@<TRIPOS>MOLECULE
*****
 27 30 0 0 0
SMALL
GASTEIGER

@<TRIPOS>ATOM
      1 C         -10.6187  -18.8763   20.8156 C.ar    1  UNL1        0.1384
      2 C         -10.1199  -19.7010   19.6661 C.ar    1  UNL1        0.0381
      3 C          -8.6455  -19.8486   19.4332 C.ar    1  UNL1        0.0172
      4 C          -7.6699  -19.1716   20.3497 C.ar    1  UNL1        0.0430
      5 C          -8.1687  -18.3471   21.4992 C.ar    1  UNL1        0.0207
      6 C          -9.6431  -18.1994   21.7321 C.ar    1  UNL1        0.0362
      7 C          -7.1931  -17.6701   22.4157 C.3     1  UNL1        0.1402
      8 O          -7.6919  -16.8455   23.5651 O.3     1  UNL1       -0.3518
      9 C          -6.7163  -16.1686   24.4816 C.3     1  UNL1        0.1425
     10 C          -5.2419  -16.3163   24.2486 C.3     1  UNL1        0.0322
     11 C          -4.7431  -17.1409   23.0992 C.3     1  UNL1        0.0070
     12 C          -5.7187  -17.8178   22.1827 C.3     1  UNL1        0.0494
     13 C          -5.2199  -18.6424   21.0332 C.3     1  UNL1        0.0717
     14 N          -6.1954  -19.3193   20.1168 N.pl3   1  UNL1       -0.3341
     15 H          -5.8681  -19.8605   19.3624 H       1  UNL1        0.1468
     16 C          -3.7454  -18.7900   20.8003 C.3     1  UNL1        0.0230
     17 C          -3.0998  -18.1127   19.6279 C.3     1  UNL1        0.0338
     18 C          -1.6254  -18.2603   19.3949 C.3     1  UNL1        0.1422
     19 O          -0.7966  -19.0853   20.3344 O.3     1  UNL1       -0.3538
     20 C          -1.4422  -19.7626   21.5067 C.3     1  UNL1        0.1422
     21 C          -2.9166  -19.6150   21.7397 C.3     1  UNL1        0.0338
     22 O         -12.0931  -18.7287   21.0486 O.3     1  UNL1       -0.4755
     23 C         -12.6644  -17.3907   21.4143 C.3     1  UNL1        0.2054
     24 C         -12.7303  -16.9713   22.8530 C.3     1  UNL1        0.0473
     25 C         -14.3512  -18.2776   24.4073 C.3     1  UNL1        0.0001
     26 C         -12.9595  -17.9967   23.9234 C.3     1  UNL1        0.0037
     27 C         -11.7969  -18.7412   24.5100 C.3     1  UNL1        0.0001
@<TRIPOS>BOND
     1    25    26    1
     2    26    27    1
     3    26    24    1
     4    24    23    1
     5    23    22    1
     6    22     1    1
     7     1     2   ar
     8     2     3   ar
     9     3     4   ar
    10     4     5   ar
    11     5     6   ar
    12     5     7    1
    13     7     8    1
    14     8     9    1
    15     9    10    1
    16    10    11    1
    17    12    11    1
    18    12    13    1
    19    13    16    1
    20    16    17    1
    21    17    18    1
    22    18    19    1
    23    19    20    1
    24    20    21    1
    25    13    14    1
    26     6     1   ar
    27    12     7    1
    28    21    16    1
    29    14     4    1
    30    14    15    1
@<TRIPOS>MOLECULE
*****
 27 30 0 0 0
SMALL
GASTEIGER

@<TRIPOS>ATOM
      1 C          -3.9915  -19.3219   21.4635 C.ar    1  UNL1        0.1384
      2 C          -4.1169  -18.5016   22.7132 C.ar    1  UNL1        0.0381
      3 C          -5.4644  -18.0180   23.1608 C.ar    1  UNL1        0.0172
      4 C          -6.6865  -18.3546   22.3588 C.ar    1  UNL1        0.0430
      5 C          -6.5611  -19.1749   21.1092 C.ar    1  UNL1        0.0207
      6 C          -5.2136  -19.6585   20.6616 C.ar    1  UNL1        0.0362
      7 C          -7.7832  -19.5116   20.3072 C.3     1  UNL1        0.1402
      8 O          -7.6578  -20.3318   19.0577 O.3     1  UNL1       -0.3518
      9 C          -8.8799  -20.6685   18.2558 C.3     1  UNL1        0.1425
     10 C         -10.2274  -20.1849   18.7034 C.3     1  UNL1        0.0322
     11 C         -10.3528  -19.3646   19.9529 C.3     1  UNL1        0.0070
     12 C          -9.1307  -19.0280   20.7549 C.3     1  UNL1        0.0494
     13 C          -9.2561  -18.2077   22.0045 C.3     1  UNL1        0.0717
     14 N          -8.0340  -17.8710   22.8064 N.pl3   1  UNL1       -0.3341
     15 H          -8.1163  -17.3327   23.6266 H       1  UNL1        0.1468
     16 C         -10.6036  -17.7241   22.4521 C.3     1  UNL1        0.0230
     17 C         -11.0696  -16.3486   22.0766 C.3     1  UNL1        0.0338
     18 C         -12.4171  -15.8650   22.5242 C.3     1  UNL1        0.1422
     19 O         -13.2986  -16.7569   23.3474 O.3     1  UNL1       -0.3538
     20 C         -12.8327  -18.1323   23.7228 C.3     1  UNL1        0.1422
     21 C         -11.4851  -18.6159   23.2752 C.3     1  UNL1        0.0338
     22 O          -2.6440  -19.8055   21.0159 O.3     1  UNL1       -0.4755
     23 C          -2.1015  -19.3854   19.6820 C.3     1  UNL1        0.2054
     24 C          -1.8839  -17.9312   19.3851 C.3     1  UNL1        0.0473
     25 C           0.4862  -17.1574   20.1159 C.3     1  UNL1        0.0001
     26 C          -1.0042  -17.1070   20.2777 C.3     1  UNL1        0.0037
     27 C          -1.6150  -16.2323   21.3321 C.3     1  UNL1        0.0001
@<TRIPOS>BOND
     1    25    26    1
     2    26    27    1
     3    26    24    1
     4    24    23    1
     5    23    22    1
     6    22     1    1
     7     1     2   ar
     8     2     3   ar
     9     3     4   ar
    10     4     5   ar
    11     5     6   ar
    12     5     7    1
    13     7     8    1
    14     8     9    1
    15     9    10    1
    16    10    11    1
    17    12    11    1
    18    12    13    1
    19    13    16    1
    20    16    17    1
    21    17    18    1
    22    18    19    1
    23    19    20    1
    24    20    21    1
    25    13    14    1
    26     6     1   ar
    27    12     7    1
    28    21    16    1
    29    14     4    1
    30    14    15    1
@<TRIPOS>MOLECULE
*****
 27 30 0 0 0
SMALL
GASTEIGER

@<TRIPOS>ATOM
      1 C          -3.7908  -17.5800   23.1048 C.ar    1  UNL1        0.1384
      2 C          -4.2946  -16.7082   24.2167 C.ar    1  UNL1        0.0381
      3 C          -5.7688  -16.4943   24.3928 C.ar    1  UNL1        0.0172
      4 C          -6.7392  -17.1521   23.4570 C.ar    1  UNL1        0.0430
      5 C          -6.2354  -18.0239   22.3452 C.ar    1  UNL1        0.0207
      6 C          -4.7612  -18.2379   22.1691 C.ar    1  UNL1        0.0362
      7 C          -7.2057  -18.6818   21.4094 C.3     1  UNL1        0.1402
      8 O          -6.7019  -19.5535   20.2976 O.3     1  UNL1       -0.3518
      9 C          -7.6723  -20.2113   19.3619 C.3     1  UNL1        0.1425
     10 C          -9.1465  -19.9974   19.5379 C.3     1  UNL1        0.0322
     11 C          -9.6503  -19.1256   20.6497 C.3     1  UNL1        0.0070
     12 C          -8.6799  -18.4678   21.5855 C.3     1  UNL1        0.0494
     13 C          -9.1837  -17.5960   22.6973 C.3     1  UNL1        0.0717
     14 N          -8.2134  -16.9382   23.6331 N.pl3   1  UNL1       -0.3341
     15 H          -8.5440  -16.3660   24.3628 H       1  UNL1        0.1468
     16 C         -10.6579  -17.3820   22.8734 C.3     1  UNL1        0.0230
     17 C         -11.4727  -18.3752   23.6479 C.3     1  UNL1        0.0338
     18 C         -12.9469  -18.1612   23.8240 C.3     1  UNL1        0.1422
     19 O         -13.6063  -16.9541   23.2256 O.3     1  UNL1       -0.3538
     20 C         -12.7915  -15.9610   22.4511 C.3     1  UNL1        0.1422
     21 C         -11.3173  -16.1750   22.2750 C.3     1  UNL1        0.0338
     22 O          -2.3166  -17.7940   22.9288 O.3     1  UNL1       -0.4755
     23 C          -1.8160  -18.7327   21.8712 C.3     1  UNL1        0.2054
     24 C          -1.3594  -18.1959   20.5471 C.3     1  UNL1        0.0473
     25 C          -3.2900  -19.4421   19.3348 C.3     1  UNL1        0.0001
     26 C          -2.1911  -18.4213   19.3193 C.3     1  UNL1        0.0037
     27 C          -1.9238  -17.6258   18.0760 C.3     1  UNL1        0.0001
@<TRIPOS>BOND
     1    25    26    1
     2    26    27    1
     3    26    24    1
     4    24    23    1
     5    23    22    1
     6    22     1    1
     7     1     2   ar
     8     2     3   ar
     9     3     4   ar
    10     4     5   ar
    11     5     6   ar
    12     5     7    1
    13     7     8    1
    14     8     9    1
    15     9    10    1
    16    10    11    1
    17    12    11    1
    18    12    13    1
    19    13    16    1
    20    16    17    1
    21    17    18    1
    22    18    19    1
    23    19    20    1
    24    20    21    1
    25    13    14    1
    26     6     1   ar
    27    12     7    1
    28    21    16    1
    29    14     4    1
    30    14    15    1
@<TRIPOS>MOLECULE
*****
 27 30 0 0 0
SMALL
GASTEIGER

@<TRIPOS>ATOM
      1 C         -10.6546  -16.3327   23.1225 C.ar    1  UNL1        0.1384
      2 C          -9.5563  -15.7212   23.9411 C.ar    1  UNL1        0.0381
      3 C          -8.1305  -16.1201   23.7004 C.ar    1  UNL1        0.0172
      4 C          -7.8029  -17.1304   22.6411 C.ar    1  UNL1        0.0430
      5 C          -8.9012  -17.7418   21.8226 C.ar    1  UNL1        0.0207
      6 C         -10.3270  -17.3430   22.0633 C.ar    1  UNL1        0.0362
      7 C          -8.5736  -18.7522   20.7633 C.3     1  UNL1        0.1402
      8 O          -9.6718  -19.3636   19.9448 O.3     1  UNL1       -0.3518
      9 C          -9.3443  -20.3738   18.8855 C.3     1  UNL1        0.1425
     10 C          -7.9184  -20.7727   18.6448 C.3     1  UNL1        0.0322
     11 C          -6.8202  -20.1613   19.4633 C.3     1  UNL1        0.0070
     12 C          -7.1478  -19.1510   20.5226 C.3     1  UNL1        0.0494
     13 C          -6.0495  -18.5395   21.3411 C.3     1  UNL1        0.0717
     14 N          -6.3771  -17.5293   22.4004 N.pl3   1  UNL1       -0.3341
     15 H          -5.6563  -17.1279   22.9376 H       1  UNL1        0.1468
     16 C          -4.6237  -18.9384   21.1004 C.3     1  UNL1        0.0230
     17 C          -4.0404  -18.8416   19.7218 C.3     1  UNL1        0.0338
     18 C          -2.6145  -19.2405   19.4811 C.3     1  UNL1        0.1422
     19 O          -1.7721  -19.7361   20.6190 O.3     1  UNL1       -0.3538
     20 C          -2.3554  -19.8328   21.9975 C.3     1  UNL1        0.1422
     21 C          -3.7812  -19.4339   22.2382 C.3     1  UNL1        0.0338
     22 O         -12.0804  -15.9339   23.3632 O.3     1  UNL1       -0.4755
     23 C         -13.1911  -16.6640   22.6679 C.3     1  UNL1        0.2054
     24 C         -13.5771  -18.0429   23.1145 C.3     1  UNL1        0.0473
     25 C         -11.8827  -19.0382   24.8141 C.3     1  UNL1        0.0001
     26 C         -13.2485  -18.5005   24.5047 C.3     1  UNL1        0.0037
     27 C         -14.2855  -18.4204   25.5854 C.3     1  UNL1        0.0001
@<TRIPOS>BOND
     1    25    26    1
     2    26    27    1
     3    26    24    1
     4    24    23    1
     5    23    22    1
     6    22     1    1
     7     1     2   ar
     8     2     3   ar
     9     3     4   ar
    10     4     5   ar
    11     5     6   ar
    12     5     7    1
    13     7     8    1
    14     8     9    1
    15     9    10    1
    16    10    11    1
    17    12    11    1
    18    12    13    1
    19    13    16    1
    20    16    17    1
    21    17    18    1
    22    18    19    1
    23    19    20    1
    24    20    21    1
    25    13    14    1
    26     6     1   ar
    27    12     7    1
    28    21    16    1
    29    14     4    1
    30    14    15    1
@<TRIPOS>MOLECULE
*****
 27 30 0 0 0
SMALL
GASTEIGER

@<TRIPOS>ATOM
      1 C           2.9828    0.6880   26.4069 C.ar    1  UNL1        0.1384
      2 C           4.1179   -0.2734   26.6002 C.ar    1  UNL1        0.0381
      3 C           4.5754   -1.1328   25.4591 C.ar    1  UNL1        0.0172
      4 C           3.8977   -1.0308   24.1247 C.ar    1  UNL1        0.0430
      5 C           2.7627   -0.0695   23.9315 C.ar    1  UNL1        0.0207
      6 C           2.3052    0.7899   25.0726 C.ar    1  UNL1        0.0362
      7 C           2.0850    0.0325   22.5972 C.3     1  UNL1        0.1402
      8 O           0.9499    0.9938   22.4040 O.3     1  UNL1       -0.3518
      9 C           0.2723    1.0957   21.0697 C.3     1  UNL1        0.1425
     10 C           0.7298    0.2363   19.9286 C.3     1  UNL1        0.0322
     11 C           1.8649   -0.7250   20.1218 C.3     1  UNL1        0.0070
     12 C           2.5425   -0.8269   21.4561 C.3     1  UNL1        0.0494
     13 C           3.6776   -1.7883   21.6493 C.3     1  UNL1        0.0717
     14 N           4.3552   -1.8902   22.9836 N.pl3   1  UNL1       -0.3341
     15 H           5.1002   -2.5212   23.1105 H       1  UNL1        0.1468
     16 C           4.1351   -2.6477   20.5082 C.3     1  UNL1        0.0230
     17 C           5.0474   -2.0808   19.4611 C.3     1  UNL1        0.0338
     18 C           5.5049   -2.9402   18.3200 C.3     1  UNL1        0.1422
     19 O           5.0501   -4.3666   18.2260 O.3     1  UNL1       -0.3538
     20 C           4.1378   -4.9334   19.2731 C.3     1  UNL1        0.1422
     21 C           3.6804   -4.0740   20.4142 C.3     1  UNL1        0.0338
     22 O           2.5253    1.5474   27.5480 O.3     1  UNL1       -0.4755
     23 C           1.9874    0.9128   28.7963 C.3     1  UNL1        0.2054
     24 C           0.9447   -0.1614   28.7020 C.3     1  UNL1        0.0473
     25 C          -0.7512    1.3347   27.4231 C.3     1  UNL1        0.0001
     26 C          -0.4710    0.1956   28.3580 C.3     1  UNL1        0.0037
     27 C          -1.6064   -0.5864   28.9489 C.3     1  UNL1        0.0001
@<TRIPOS>BOND
     1    25    26    1
     2    26    27    1
     3    26    24    1
     4    24    23    1
     5    23    22    1
     6    22     1    1
     7     1     2   ar
     8     2     3   ar
     9     3     4   ar
    10     4     5   ar
    11     5     6   ar
    12     5     7    1
    13     7     8    1
    14     8     9    1
    15     9    10    1
    16    10    11    1
    17    12    11    1
    18    12    13    1
    19    13    16    1
    20    16    17    1
    21    17    18    1
    22    18    19    1
    23    19    20    1
    24    20    21    1
    25    13    14    1
    26     6     1   ar
    27    12     7    1
    28    21    16    1
    29    14     4    1
    30    14    15    1
@<TRIPOS>MOLECULE
*****
 27 30 0 0 0
SMALL
GASTEIGER

@<TRIPOS>ATOM
      1 C           4.4676    0.6063   35.5451 C.ar    1  UNL1        0.1384
      2 C           4.7925   -0.5033   34.5894 C.ar    1  UNL1        0.0381
      3 C           4.1535   -0.5356   33.2327 C.ar    1  UNL1        0.0172
      4 C           3.1897    0.5416   32.8317 C.ar    1  UNL1        0.0430
      5 C           2.8648    1.6511   33.7874 C.ar    1  UNL1        0.0207
      6 C           3.5038    1.6834   35.1441 C.ar    1  UNL1        0.0362
      7 C           1.9010    2.7283   33.3864 C.3     1  UNL1        0.1402
      8 O           1.5761    3.8378   34.3422 O.3     1  UNL1       -0.3518
      9 C           0.6123    4.9149   33.9412 C.3     1  UNL1        0.1425
     10 C          -0.0266    4.8825   32.5845 C.3     1  UNL1        0.0322
     11 C           0.2982    3.7730   31.6287 C.3     1  UNL1        0.0070
     12 C           1.2620    2.6959   32.0297 C.3     1  UNL1        0.0494
     13 C           1.5869    1.5863   31.0740 C.3     1  UNL1        0.0717
     14 N           2.5507    0.5092   31.4750 N.pl3   1  UNL1       -0.3341
     15 H           2.7640   -0.2190   30.8477 H       1  UNL1        0.1468
     16 C           0.9480    1.5540   29.7172 C.3     1  UNL1        0.0230
     17 C          -0.3371    0.8082   29.5110 C.3     1  UNL1        0.0338
     18 C          -0.9760    0.7758   28.1543 C.3     1  UNL1        0.1422
     19 O          -0.3299    1.4893   27.0038 O.3     1  UNL1       -0.3538
     20 C           0.9551    2.2350   27.2101 C.3     1  UNL1        0.1422
     21 C           1.5940    2.2674   28.5668 C.3     1  UNL1        0.0338
     22 O           5.1065    0.6387   36.9018 O.3     1  UNL1       -0.4755
     23 C           4.5580    1.5402   37.9679 C.3     1  UNL1        0.2054
     24 C           3.4926    1.0400   38.8979 C.3     1  UNL1        0.0473
     25 C           1.8496    2.9357   38.2221 C.3     1  UNL1        0.0001
     26 C           2.0930    1.5682   38.7884 C.3     1  UNL1        0.0037
     27 C           0.9368    0.7289   39.2451 C.3     1  UNL1        0.0001
@<TRIPOS>BOND
     1    25    26    1
     2    26    27    1
     3    26    24    1
     4    24    23    1
     5    23    22    1
     6    22     1    1
     7     1     2   ar
     8     2     3   ar
     9     3     4   ar
    10     4     5   ar
    11     5     6   ar
    12     5     7    1
    13     7     8    1
    14     8     9    1
    15     9    10    1
    16    10    11    1
    17    12    11    1
    18    12    13    1
    19    13    16    1
    20    16    17    1
    21    17    18    1
    22    18    19    1
    23    19    20    1
    24    20    21    1
    25    13    14    1
    26     6     1   ar
    27    12     7    1
    28    21    16    1
    29    14     4    1
    30    14    15    1
@<TRIPOS>MOLECULE
*****
 27 30 0 0 0
SMALL
GASTEIGER

@<TRIPOS>ATOM
      1 C           3.3543    0.0241   21.5035 C.ar    1  UNL1        0.1384
      2 C           4.0653   -0.7828   22.5493 C.ar    1  UNL1        0.0381
      3 C           3.6039   -0.7350   23.9757 C.ar    1  UNL1        0.0172
      4 C           2.4314    0.1197   24.3564 C.ar    1  UNL1        0.0430
      5 C           1.7204    0.9265   23.3108 C.ar    1  UNL1        0.0207
      6 C           2.1818    0.8787   21.8843 C.ar    1  UNL1        0.0362
      7 C           0.5479    1.7811   23.6915 C.3     1  UNL1        0.1402
      8 O          -0.1631    2.5879   22.6458 O.3     1  UNL1       -0.3518
      9 C          -1.3355    3.4425   23.0265 C.3     1  UNL1        0.1425
     10 C          -1.7970    3.4903   24.4530 C.3     1  UNL1        0.0322
     11 C          -1.0860    2.6835   25.4987 C.3     1  UNL1        0.0070
     12 C           0.0864    1.8289   25.1179 C.3     1  UNL1        0.0494
     13 C           0.7975    1.0220   26.1637 C.3     1  UNL1        0.0717
     14 N           1.9699    0.1674   25.7829 N.pl3   1  UNL1       -0.3341
     15 H           2.4366   -0.3621   26.4692 H       1  UNL1        0.1468
     16 C           0.3360    1.0698   27.5901 C.3     1  UNL1        0.0230
     17 C           1.0253    1.9708   28.5716 C.3     1  UNL1        0.0338
     18 C           0.5638    2.0186   29.9980 C.3     1  UNL1        0.1422
     19 O          -0.5869    1.1654   30.4430 O.3     1  UNL1       -0.3538
     20 C          -1.2761    0.2644   29.4616 C.3     1  UNL1        0.1422
     21 C          -0.8146    0.2166   28.0351 C.3     1  UNL1        0.0338
     22 O           3.8157   -0.0237   20.0771 O.3     1  UNL1       -0.4755
     23 C           3.2348   -1.0356   19.1344 C.3     1  UNL1        0.2054
     24 C           3.3169   -2.4976   19.4597 C.3     1  UNL1        0.0473
     25 C           4.3616   -4.8297   18.9906 C.3     1  UNL1        0.0001
     26 C           4.4164   -3.3350   18.8767 C.3     1  UNL1        0.0037
     27 C           5.5706   -2.6778   18.1797 C.3     1  UNL1        0.0001
@<TRIPOS>BOND
     1    25    26    1
     2    26    27    1
     3    26    24    1
     4    24    23    1
     5    23    22    1
     6    22     1    1
     7     1     2   ar
     8     2     3   ar
     9     3     4   ar
    10     4     5   ar
    11     5     6   ar
    12     5     7    1
    13     7     8    1
    14     8     9    1
    15     9    10    1
    16    10    11    1
    17    12    11    1
    18    12    13    1
    19    13    16    1
    20    16    17    1
    21    17    18    1
    22    18    19    1
    23    19    20    1
    24    20    21    1
    25    13    14    1
    26     6     1   ar
    27    12     7    1
    28    21    16    1
    29    14     4    1
    30    14    15    1
