@<TRIPOS>MOLECULE
*****
 47 50 0 0 0
SMALL
GASTEIGER

@<TRIPOS>ATOM
      1 C           3.7921    0.5466   30.5600 C.2     1  UNL1        0.2491
      2 O           5.2495    0.2338   30.3923 O.2     1  UNL1       -0.2727
      3 N           3.0731    1.3518   29.5183 N.am    1  UNL1       -0.2724
      4 C           3.8115    1.8440   28.3091 C.3     1  UNL1        0.1202
      5 C           3.8829    0.9930   27.0760 C.ar    1  UNL1       -0.0023
      6 C           3.5693    1.5877   25.7351 C.ar    1  UNL1       -0.0026
      7 C           3.6407    0.7366   24.5019 C.ar    1  UNL1       -0.0003
      8 C           4.0257   -0.7091   24.6097 C.ar    1  UNL1       -0.0000
      9 C           4.3393   -1.3038   25.9506 C.ar    1  UNL1       -0.0003
     10 C           4.2679   -0.4528   27.1837 C.ar    1  UNL1       -0.0026
     11 C           4.0971   -1.5601   23.3766 C.ar    1  UNL1       -0.0000
     12 C           4.8350   -2.8657   23.4080 C.ar    1  UNL1       -0.0001
     13 C           4.9064   -3.7167   22.1748 C.ar    1  UNL1        0.0039
     14 C           4.2398   -3.2622   20.9103 C.ar    1  UNL1        0.0714
     15 C           3.5018   -1.9567   20.8789 C.ar    1  UNL1        0.0039
     16 C           3.4304   -1.1056   22.1120 C.ar    1  UNL1       -0.0001
     17 C           4.3111   -4.1132   19.6771 C.3     1  UNL1        0.4186
     18 F           4.3825   -4.9642   18.4439 F       1  UNL1       -0.1659
     19 F           5.7452   -4.4319   19.9800 F       1  UNL1       -0.1659
     20 F           2.8770   -3.7946   19.3741 F       1  UNL1       -0.1659
     21 C           1.6157    1.6646   29.6860 C.3     1  UNL1        0.1111
     22 C           0.8335    2.2316   28.5386 C.3     1  UNL1        0.0939
     23 N          -0.0808    1.3467   27.7442 N.3     1  UNL1       -0.2712
     24 C          -0.5518    1.7799   26.3876 C.3     1  UNL1        0.0722
     25 C           0.0360    1.1579   25.1556 C.3     1  UNL1        0.0188
     26 C          -0.5240    0.0286   28.3063 C.3     1  UNL1        0.0722
     27 C          -1.7624   -0.0490   29.1493 C.3     1  UNL1        0.0188
     28 C           3.0536    0.0543   31.7692 C.3     1  UNL1        0.1934
     29 C           4.0368    1.6031   35.2884 C.ar    1  UNL1        0.0529
     30 C           3.4279    1.4542   33.9257 C.ar    1  UNL1        0.0782
     31 N           3.6625    0.2032   33.1320 N.ar    1  UNL1       -0.2979
     32 C           4.5060   -0.8989   33.7010 C.ar    1  UNL1        0.1750
     33 N           5.1149   -0.7500   35.0638 N.ar    1  UNL1       -0.1847
     34 C           4.8803    0.5010   35.8575 C.ar    1  UNL1        0.2783
     35 O           5.4892    0.6499   37.2203 O.2     1  UNL1       -0.2654
     36 S           4.7407   -2.1499   32.9073 S.3     1  UNL1       -0.0724
     37 C           6.1408   -2.5915   32.5999 C.3     1  UNL1        0.0913
     38 C           6.4085   -3.4587   31.4056 C.ar    1  UNL1       -0.0108
     39 C           6.2976   -2.8867   30.0234 C.ar    1  UNL1       -0.0011
     40 C           6.5653   -3.7539   28.8291 C.ar    1  UNL1        0.0293
     41 C           6.9440   -5.1932   29.0171 C.ar    1  UNL1        0.1401
     42 F           7.2117   -6.0604   27.8229 F       1  UNL1       -0.2042
     43 C           7.0548   -5.7651   30.3993 C.ar    1  UNL1        0.0293
     44 C           6.7871   -4.8979   31.5936 C.ar    1  UNL1       -0.0011
     45 C           3.8021    2.8541   36.0821 C.3     1  UNL1        0.0328
     46 C           1.6600    4.1682   36.7411 C.3     1  UNL1        0.0004
     47 C           2.5676    2.9880   36.9235 C.3     1  UNL1        0.0049
@<TRIPOS>BOND
     1    46    47    1
     2    47    45    1
     3    45    29    1
     4    29    30   ar
     5    30    31   ar
     6    31    28    1
     7    28     1    1
     8     1     2    2
     9     1     3   am
    10     3    21    1
    11    21    22    1
    12    22    23    1
    13    23    24    1
    14    24    25    1
    15    23    26    1
    16    26    27    1
    17     3     4    1
    18     4     5    1
    19     5     6   ar
    20     6     7   ar
    21     7     8   ar
    22     8    11    1
    23    11    12   ar
    24    12    13   ar
    25    13    14   ar
    26    14    17    1
    27    17    18    1
    28    17    19    1
    29    17    20    1
    30    14    15   ar
    31    15    16   ar
    32     8     9   ar
    33     9    10   ar
    34    31    32   ar
    35    32    36    1
    36    36    37    1
    37    37    38    1
    38    38    39   ar
    39    39    40   ar
    40    40    41   ar
    41    41    42    1
    42    41    43   ar
    43    43    44   ar
    44    32    33   ar
    45    33    34   ar
    46    34    35    2
    47    34    29   ar
    48    10     5   ar
    49    44    38   ar
    50    16    11   ar
@<TRIPOS>MOLECULE
*****
 47 50 0 0 0
SMALL
GASTEIGER

@<TRIPOS>ATOM
      1 C           3.9598   -0.0318   25.8501 C.2     1  UNL1        0.2491
      2 O           4.1548    0.7873   24.6087 O.2     1  UNL1       -0.2727
      3 N           3.3523    0.5911   27.0720 N.am    1  UNL1       -0.2724
      4 C           2.9400    2.0332   27.0525 C.3     1  UNL1        0.1202
      5 C           1.5351    2.4065   26.6826 C.ar    1  UNL1       -0.0023
      6 C           0.8702    3.5757   27.3465 C.ar    1  UNL1       -0.0026
      7 C          -0.5348    3.9491   26.9766 C.ar    1  UNL1       -0.0003
      8 C          -1.2748    3.1531   25.9427 C.ar    1  UNL1       -0.0000
      9 C          -0.6099    1.9839   25.2788 C.ar    1  UNL1       -0.0003
     10 C           0.7950    1.6106   25.6487 C.ar    1  UNL1       -0.0026
     11 C          -2.6797    3.5265   25.5728 C.ar    1  UNL1       -0.0000
     12 C          -3.1630    3.3279   24.1668 C.ar    1  UNL1       -0.0001
     13 C          -4.5679    3.7013   23.7969 C.ar    1  UNL1        0.0039
     14 C          -5.4895    4.2732   24.8330 C.ar    1  UNL1        0.0714
     15 C          -5.0062    4.4717   26.2391 C.ar    1  UNL1        0.0039
     16 C          -3.6013    4.0984   26.6090 C.ar    1  UNL1       -0.0001
     17 C          -6.8945    4.6465   24.4631 C.3     1  UNL1        0.4186
     18 F          -8.2994    5.0199   24.0933 F       1  UNL1       -0.1659
     19 F          -6.9836    5.5175   25.6811 F       1  UNL1       -0.1659
     20 F          -6.8053    3.7756   23.2452 F       1  UNL1       -0.1659
     21 C           3.1573   -0.2280   28.3133 C.3     1  UNL1        0.1111
     22 C           1.7718   -0.5461   28.7920 C.3     1  UNL1        0.0939
     23 N           1.0175    0.4505   29.6212 N.3     1  UNL1       -0.2712
     24 C          -0.4296    0.7225   29.3348 C.3     1  UNL1        0.0722
     25 C          -1.2938   -0.3552   28.7502 C.3     1  UNL1        0.0188
     26 C           1.7102    1.1753   30.7370 C.3     1  UNL1        0.0722
     27 C           1.5363    2.6572   30.8906 C.3     1  UNL1        0.0188
     28 C           4.3722   -1.4739   25.8695 C.3     1  UNL1        0.1934
     29 C           4.3853   -2.6767   22.0876 C.ar    1  UNL1        0.0529
     30 C           3.9640   -2.0000   23.3582 C.ar    1  UNL1        0.0782
     31 N           4.7935   -2.1507   24.5989 N.ar    1  UNL1       -0.2979
     32 C           6.0442   -2.9782   24.5690 C.ar    1  UNL1        0.1750
     33 N           6.4654   -3.6550   23.2984 N.ar    1  UNL1       -0.1847
     34 C           5.6360   -3.5043   22.0577 C.ar    1  UNL1        0.2783
     35 O           6.0573   -4.1811   20.7870 O.2     1  UNL1       -0.2654
     36 S           6.8736   -3.1289   25.8097 S.3     1  UNL1       -0.0724
     37 C           6.7885   -4.3881   26.6203 C.3     1  UNL1        0.0913
     38 C           6.7450   -4.3145   28.1179 C.ar    1  UNL1       -0.0108
     39 C           6.5257   -2.9955   28.7979 C.ar    1  UNL1       -0.0011
     40 C           6.4822   -2.9218   30.2954 C.ar    1  UNL1        0.0293
     41 C           6.6579   -4.1672   31.1130 C.ar    1  UNL1        0.1401
     42 F           6.6143   -4.0935   32.6106 F       1  UNL1       -0.2042
     43 C           6.8771   -5.4861   30.4330 C.ar    1  UNL1        0.0293
     44 C           6.9206   -5.5597   28.9355 C.ar    1  UNL1       -0.0011
     45 C           3.5558   -2.5260   20.8469 C.3     1  UNL1        0.0328
     46 C           1.6516   -0.9431   20.0607 C.3     1  UNL1        0.0004
     47 C           3.0918   -1.1664   20.4156 C.3     1  UNL1        0.0049
@<TRIPOS>BOND
     1    46    47    1
     2    47    45    1
     3    45    29    1
     4    29    30   ar
     5    30    31   ar
     6    31    28    1
     7    28     1    1
     8     1     2    2
     9     1     3   am
    10     3    21    1
    11    21    22    1
    12    22    23    1
    13    23    24    1
    14    24    25    1
    15    23    26    1
    16    26    27    1
    17     3     4    1
    18     4     5    1
    19     5     6   ar
    20     6     7   ar
    21     7     8   ar
    22     8    11    1
    23    11    12   ar
    24    12    13   ar
    25    13    14   ar
    26    14    17    1
    27    17    18    1
    28    17    19    1
    29    17    20    1
    30    14    15   ar
    31    15    16   ar
    32     8     9   ar
    33     9    10   ar
    34    31    32   ar
    35    32    36    1
    36    36    37    1
    37    37    38    1
    38    38    39   ar
    39    39    40   ar
    40    40    41   ar
    41    41    42    1
    42    41    43   ar
    43    43    44   ar
    44    32    33   ar
    45    33    34   ar
    46    34    35    2
    47    34    29   ar
    48    10     5   ar
    49    44    38   ar
    50    16    11   ar
@<TRIPOS>MOLECULE
*****
 47 50 0 0 0
SMALL
GASTEIGER

@<TRIPOS>ATOM
      1 C           5.9017   -3.7568   21.0659 C.2     1  UNL1        0.2491
      2 O           4.6392   -4.4402   21.5007 O.2     1  UNL1       -0.2727
      3 N           5.9589   -3.0613   19.7380 N.am    1  UNL1       -0.2724
      4 C           4.7537   -3.0492   18.8452 C.3     1  UNL1        0.1202
      5 C           3.7521   -1.9378   18.9524 C.ar    1  UNL1       -0.0023
      6 C           2.7937   -1.9006   20.1058 C.ar    1  UNL1       -0.0026
      7 C           1.7920   -0.7892   20.2130 C.ar    1  UNL1       -0.0003
      8 C           1.7487    0.2850   19.1670 C.ar    1  UNL1       -0.0000
      9 C           2.7071    0.2478   18.0136 C.ar    1  UNL1       -0.0003
     10 C           3.7087   -0.8636   17.9063 C.ar    1  UNL1       -0.0026
     11 C           0.7471    1.3963   19.2742 C.ar    1  UNL1       -0.0000
     12 C          -0.0915    1.5334   20.5103 C.ar    1  UNL1       -0.0001
     13 C          -1.0932    2.6449   20.6176 C.ar    1  UNL1        0.0039
     14 C          -1.2563    3.6191   19.4887 C.ar    1  UNL1        0.0714
     15 C          -0.4177    3.4819   18.2526 C.ar    1  UNL1        0.0039
     16 C           0.5840    2.3706   18.1454 C.ar    1  UNL1       -0.0001
     17 C          -2.2580    4.7305   19.5960 C.3     1  UNL1        0.4186
     18 F          -3.2596    5.8419   19.7032 F       1  UNL1       -0.1659
     19 F          -1.5280    5.4913   18.5291 F       1  UNL1       -0.1659
     20 F          -2.9879    3.9697   20.6629 F       1  UNL1       -0.1659
     21 C           7.2214   -2.3779   19.3032 C.3     1  UNL1        0.1111
     22 C           7.1772   -1.3362   18.2249 C.3     1  UNL1        0.0939
     23 N           7.9653   -0.0686   18.3739 N.3     1  UNL1       -0.2712
     24 C           7.6703    1.1063   17.4893 C.3     1  UNL1        0.0722
     25 C           6.6331    0.9921   16.4118 C.3     1  UNL1        0.0188
     26 C           9.0483    0.0241   19.4075 C.3     1  UNL1        0.0722
     27 C           9.0694    1.1736   20.3709 C.3     1  UNL1        0.0188
     28 C           7.1069   -3.7690   21.9587 C.3     1  UNL1        0.1934
     29 C           7.0100   -5.0395   25.7172 C.ar    1  UNL1        0.0529
     30 C           7.1807   -5.0337   24.2270 C.ar    1  UNL1        0.0782
     31 N           6.9362   -3.7748   23.4490 N.ar    1  UNL1       -0.2979
     32 C           6.5211   -2.5216   24.1613 C.ar    1  UNL1        0.1750
     33 N           6.3504   -2.5275   25.6515 N.ar    1  UNL1       -0.1847
     34 C           6.5949   -3.7864   26.4295 C.ar    1  UNL1        0.2783
     35 O           6.4243   -3.7922   27.9198 O.2     1  UNL1       -0.2654
     36 S           6.2766   -1.2627   23.3833 S.3     1  UNL1       -0.0724
     37 C           4.8728   -0.8142   23.1041 C.3     1  UNL1        0.0913
     38 C           4.6267    0.3816   22.2327 C.ar    1  UNL1       -0.0108
     39 C           3.5476    1.3605   22.5897 C.ar    1  UNL1       -0.0011
     40 C           3.3015    2.5564   21.7183 C.ar    1  UNL1        0.0293
     41 C           4.1346    2.7734   20.4899 C.ar    1  UNL1        0.1401
     42 F           3.8886    3.9693   19.6185 F       1  UNL1       -0.2042
     43 C           5.2137    1.7946   20.1329 C.ar    1  UNL1        0.0293
     44 C           5.4598    0.5987   21.0043 C.ar    1  UNL1       -0.0011
     45 C           7.2545   -6.2985   26.4952 C.3     1  UNL1        0.0328
     46 C           8.8061   -8.3823   26.4723 C.3     1  UNL1        0.0004
     47 C           7.7793   -7.5197   25.8002 C.3     1  UNL1        0.0049
@<TRIPOS>BOND
     1    46    47    1
     2    47    45    1
     3    45    29    1
     4    29    30   ar
     5    30    31   ar
     6    31    28    1
     7    28     1    1
     8     1     2    2
     9     1     3   am
    10     3    21    1
    11    21    22    1
    12    22    23    1
    13    23    24    1
    14    24    25    1
    15    23    26    1
    16    26    27    1
    17     3     4    1
    18     4     5    1
    19     5     6   ar
    20     6     7   ar
    21     7     8   ar
    22     8    11    1
    23    11    12   ar
    24    12    13   ar
    25    13    14   ar
    26    14    17    1
    27    17    18    1
    28    17    19    1
    29    17    20    1
    30    14    15   ar
    31    15    16   ar
    32     8     9   ar
    33     9    10   ar
    34    31    32   ar
    35    32    36    1
    36    36    37    1
    37    37    38    1
    38    38    39   ar
    39    39    40   ar
    40    40    41   ar
    41    41    42    1
    42    41    43   ar
    43    43    44   ar
    44    32    33   ar
    45    33    34   ar
    46    34    35    2
    47    34    29   ar
    48    10     5   ar
    49    44    38   ar
    50    16    11   ar
@<TRIPOS>MOLECULE
*****
 47 50 0 0 0
SMALL
GASTEIGER

@<TRIPOS>ATOM
      1 C           5.5940    0.8763   29.7261 C.2     1  UNL1        0.2491
      2 O           6.5156    1.5503   28.7533 O.2     1  UNL1       -0.2727
      3 N           4.1324    0.7524   29.4120 N.am    1  UNL1       -0.2724
      4 C           3.5926    1.3024   28.1252 C.3     1  UNL1        0.1202
      5 C           3.7064    0.5025   26.8614 C.ar    1  UNL1       -0.0023
      6 C           2.8688    0.8600   25.6695 C.ar    1  UNL1       -0.0026
      7 C           2.9826    0.0600   24.4057 C.ar    1  UNL1       -0.0003
      8 C           3.9340   -1.0974   24.3338 C.ar    1  UNL1       -0.0000
      9 C           4.7716   -1.4549   25.5257 C.ar    1  UNL1       -0.0003
     10 C           4.6578   -0.6550   26.7895 C.ar    1  UNL1       -0.0026
     11 C           4.0478   -1.8973   23.0700 C.ar    1  UNL1       -0.0000
     12 C           3.4602   -1.3714   21.7940 C.ar    1  UNL1       -0.0001
     13 C           3.5740   -2.1713   20.5302 C.ar    1  UNL1        0.0039
     14 C           4.2754   -3.4972   20.5424 C.ar    1  UNL1        0.0714
     15 C           4.8629   -4.0231   21.8184 C.ar    1  UNL1        0.0039
     16 C           4.7492   -3.2232   23.0822 C.ar    1  UNL1       -0.0001
     17 C           4.3892   -4.2971   19.2786 C.3     1  UNL1        0.4186
     18 F           4.5030   -5.0971   18.0149 F       1  UNL1       -0.1659
     19 F           5.8657   -4.0348   19.2456 F       1  UNL1       -0.1659
     20 F           2.9127   -4.5595   19.3117 F       1  UNL1       -0.1659
     21 C           3.2108    0.0784   30.3848 C.3     1  UNL1        0.1111
     22 C           1.8946   -0.4673   29.9162 C.3     1  UNL1        0.0939
     23 N           0.7283    0.4548   29.7174 N.3     1  UNL1       -0.2712
     24 C          -0.3038    0.1446   28.6741 C.3     1  UNL1        0.0722
     25 C          -1.6593   -0.3500   29.0838 C.3     1  UNL1        0.0188
     26 C           0.5941    1.6871   30.5620 C.3     1  UNL1        0.0722
     27 C           0.8270    3.0398   29.9573 C.3     1  UNL1        0.0188
     28 C           6.1338    0.3263   31.0129 C.3     1  UNL1        0.1934
     29 C           6.8690   -3.4664   30.1048 C.ar    1  UNL1        0.0529
     30 C           6.6458   -1.9907   29.9550 C.ar    1  UNL1        0.0782
     31 N           6.3570   -1.1494   31.1628 N.ar    1  UNL1       -0.2979
     32 C           6.2915   -1.7838   32.5204 C.ar    1  UNL1        0.1750
     33 N           6.5147   -3.2595   32.6702 N.ar    1  UNL1       -0.1847
     34 C           6.8035   -4.1008   31.4624 C.ar    1  UNL1        0.2783
     35 O           7.0267   -5.5766   31.6123 O.2     1  UNL1       -0.2654
     36 S           6.0027   -0.9425   33.7283 S.3     1  UNL1       -0.0724
     37 C           4.5944   -0.8024   34.2254 C.3     1  UNL1        0.0913
     38 C           4.2603    0.2438   35.2470 C.ar    1  UNL1       -0.0108
     39 C           3.5544    1.5002   34.8307 C.ar    1  UNL1       -0.0011
     40 C           3.2203    2.5464   35.8524 C.ar    1  UNL1        0.0293
     41 C           3.5921    2.3363   37.2904 C.ar    1  UNL1        0.1401
     42 F           3.2580    3.3825   38.3120 F       1  UNL1       -0.2042
     43 C           4.2980    1.0799   37.7066 C.ar    1  UNL1        0.0293
     44 C           4.6321    0.0337   36.6849 C.ar    1  UNL1       -0.0011
     45 C           7.1578   -4.3077   28.8970 C.3     1  UNL1        0.0328
     46 C           6.8939   -4.5161   26.3208 C.3     1  UNL1        0.0004
     47 C           6.3228   -4.1560   27.6602 C.3     1  UNL1        0.0049
@<TRIPOS>BOND
     1    46    47    1
     2    47    45    1
     3    45    29    1
     4    29    30   ar
     5    30    31   ar
     6    31    28    1
     7    28     1    1
     8     1     2    2
     9     1     3   am
    10     3    21    1
    11    21    22    1
    12    22    23    1
    13    23    24    1
    14    24    25    1
    15    23    26    1
    16    26    27    1
    17     3     4    1
    18     4     5    1
    19     5     6   ar
    20     6     7   ar
    21     7     8   ar
    22     8    11    1
    23    11    12   ar
    24    12    13   ar
    25    13    14   ar
    26    14    17    1
    27    17    18    1
    28    17    19    1
    29    17    20    1
    30    14    15   ar
    31    15    16   ar
    32     8     9   ar
    33     9    10   ar
    34    31    32   ar
    35    32    36    1
    36    36    37    1
    37    37    38    1
    38    38    39   ar
    39    39    40   ar
    40    40    41   ar
    41    41    42    1
    42    41    43   ar
    43    43    44   ar
    44    32    33   ar
    45    33    34   ar
    46    34    35    2
    47    34    29   ar
    48    10     5   ar
    49    44    38   ar
    50    16    11   ar
@<TRIPOS>MOLECULE
*****
 47 50 0 0 0
SMALL
GASTEIGER

@<TRIPOS>ATOM
      1 C           2.9559    0.2412   30.1295 C.2     1  UNL1        0.2491
      2 O           1.7420   -0.5945   29.8503 O.2     1  UNL1       -0.2727
      3 N           3.3688    1.3107   29.1621 N.am    1  UNL1       -0.2724
      4 C           2.5679    1.5445   27.9157 C.3     1  UNL1        0.1202
      5 C           2.8405    0.7308   26.6854 C.ar    1  UNL1       -0.0023
      6 C           2.1327    1.0510   25.4023 C.ar    1  UNL1       -0.0026
      7 C           2.4054    0.2372   24.1720 C.ar    1  UNL1       -0.0003
      8 C           3.3858   -0.8967   24.2249 C.ar    1  UNL1       -0.0000
      9 C           4.0936   -1.2170   25.5081 C.ar    1  UNL1       -0.0003
     10 C           3.8210   -0.4033   26.7383 C.ar    1  UNL1       -0.0026
     11 C           3.6585   -1.7104   22.9947 C.ar    1  UNL1       -0.0000
     12 C           4.4758   -2.9645   23.0909 C.ar    1  UNL1       -0.0001
     13 C           4.7484   -3.7782   21.8605 C.ar    1  UNL1        0.0039
     14 C           4.2038   -3.3378   20.5341 C.ar    1  UNL1        0.0714
     15 C           3.3865   -2.0837   20.4380 C.ar    1  UNL1        0.0039
     16 C           3.1138   -1.2700   21.6682 C.ar    1  UNL1       -0.0001
     17 C           4.4764   -4.1515   19.3038 C.3     1  UNL1        0.4186
     18 F           4.7491   -4.9652   18.0736 F       1  UNL1       -0.1659
     19 F           5.9289   -4.2212   19.6718 F       1  UNL1       -0.1659
     20 F           3.0239   -4.0818   18.9358 F       1  UNL1       -0.1659
     21 C           4.5828    2.1465   29.4413 C.3     1  UNL1        0.1111
     22 C           5.2187    2.9377   28.3371 C.3     1  UNL1        0.0939
     23 N           6.2527    2.3003   27.4570 N.3     1  UNL1       -0.2712
     24 C           6.4931    2.8328   26.0755 C.3     1  UNL1        0.0722
     25 C           5.5285    2.5164   24.9713 C.3     1  UNL1        0.0188
     26 C           7.0462    1.1303   27.9584 C.3     1  UNL1        0.0722
     27 C           7.5296    0.0848   26.9974 C.3     1  UNL1        0.0188
     28 C           3.7569    0.0075   31.3760 C.3     1  UNL1        0.1934
     29 C           6.5013   -2.6056   30.1971 C.ar    1  UNL1        0.0529
     30 C           5.4790   -1.5087   30.1572 C.ar    1  UNL1        0.0782
     31 N           4.7792   -1.0895   31.4160 N.ar    1  UNL1       -0.2979
     32 C           5.1015   -1.7673   32.7146 C.ar    1  UNL1        0.1750
     33 N           6.1238   -2.8643   32.7545 N.ar    1  UNL1       -0.1847
     34 C           6.8237   -3.2834   31.4958 C.ar    1  UNL1        0.2783
     35 O           7.8459   -4.3805   31.5357 O.2     1  UNL1       -0.2654
     36 S           4.4017   -1.3482   33.9734 S.3     1  UNL1       -0.0724
     37 C           5.0624   -0.3840   34.9134 C.3     1  UNL1        0.0913
     38 C           4.2330    0.6004   35.6835 C.ar    1  UNL1       -0.0108
     39 C           3.4781    1.6747   34.9580 C.ar    1  UNL1       -0.0011
     40 C           2.6487    2.6591   35.7281 C.ar    1  UNL1        0.0293
     41 C           2.5742    2.5693   37.2236 C.ar    1  UNL1        0.1401
     42 F           1.7447    3.5537   37.9936 F       1  UNL1       -0.2042
     43 C           3.3290    1.4950   37.9490 C.ar    1  UNL1        0.0293
     44 C           4.1584    0.5106   37.1789 C.ar    1  UNL1       -0.0011
     45 C           7.2011   -3.0248   28.9383 C.3     1  UNL1        0.0328
     46 C           6.6418   -3.6672   26.4839 C.3     1  UNL1        0.0004
     47 C           6.5058   -3.9201   27.9561 C.3     1  UNL1        0.0049
@<TRIPOS>BOND
     1    46    47    1
     2    47    45    1
     3    45    29    1
     4    29    30   ar
     5    30    31   ar
     6    31    28    1
     7    28     1    1
     8     1     2    2
     9     1     3   am
    10     3    21    1
    11    21    22    1
    12    22    23    1
    13    23    24    1
    14    24    25    1
    15    23    26    1
    16    26    27    1
    17     3     4    1
    18     4     5    1
    19     5     6   ar
    20     6     7   ar
    21     7     8   ar
    22     8    11    1
    23    11    12   ar
    24    12    13   ar
    25    13    14   ar
    26    14    17    1
    27    17    18    1
    28    17    19    1
    29    17    20    1
    30    14    15   ar
    31    15    16   ar
    32     8     9   ar
    33     9    10   ar
    34    31    32   ar
    35    32    36    1
    36    36    37    1
    37    37    38    1
    38    38    39   ar
    39    39    40   ar
    40    40    41   ar
    41    41    42    1
    42    41    43   ar
    43    43    44   ar
    44    32    33   ar
    45    33    34   ar
    46    34    35    2
    47    34    29   ar
    48    10     5   ar
    49    44    38   ar
    50    16    11   ar
@<TRIPOS>MOLECULE
*****
 47 50 0 0 0
SMALL
GASTEIGER

@<TRIPOS>ATOM
      1 C           4.1322   -1.1083   28.3274 C.2     1  UNL1        0.2491
      2 O           3.0397   -1.6688   27.4658 O.2     1  UNL1       -0.2727
      3 N           3.7908   -0.3937   29.6013 N.am    1  UNL1       -0.2724
      4 C           2.3569   -0.2396   30.0136 C.3     1  UNL1        0.1202
      5 C           1.3952    0.4911   29.1242 C.ar    1  UNL1       -0.0023
      6 C           0.0134   -0.0511   28.9080 C.ar    1  UNL1       -0.0026
      7 C          -0.9484    0.6797   28.0185 C.ar    1  UNL1       -0.0003
      8 C          -0.5283    1.9525   27.3453 C.ar    1  UNL1       -0.0000
      9 C           0.8535    2.4947   27.5614 C.ar    1  UNL1       -0.0003
     10 C           1.8152    1.7640   28.4509 C.ar    1  UNL1       -0.0026
     11 C          -1.4900    2.6832   26.4558 C.ar    1  UNL1       -0.0000
     12 C          -2.7526    3.2570   27.0275 C.ar    1  UNL1       -0.0001
     13 C          -3.7143    3.9877   26.1379 C.ar    1  UNL1        0.0039
     14 C          -3.4135    4.1446   24.6769 C.ar    1  UNL1        0.0714
     15 C          -2.1510    3.5708   24.1052 C.ar    1  UNL1        0.0039
     16 C          -1.1893    2.8401   24.9946 C.ar    1  UNL1       -0.0001
     17 C          -4.3753    4.8753   23.7873 C.3     1  UNL1        0.4186
     18 F          -5.3369    5.6060   22.8978 F       1  UNL1       -0.1659
     19 F          -3.3711    5.9745   23.6046 F       1  UNL1       -0.1659
     20 F          -5.3794    3.7761   23.9700 F       1  UNL1       -0.1659
     21 C           4.8834    0.1667   30.4628 C.3     1  UNL1        0.1111
     22 C           4.7359    0.1669   31.9555 C.3     1  UNL1        0.0939
     23 N           4.8631   -1.1162   32.7219 N.3     1  UNL1       -0.2712
     24 C           5.4511   -2.3284   32.0627 C.3     1  UNL1        0.0722
     25 C           6.8739   -2.7159   32.3376 C.3     1  UNL1        0.0188
     26 C           4.4024   -1.1871   34.1476 C.3     1  UNL1        0.0722
     27 C           5.2377   -0.5821   35.2368 C.3     1  UNL1        0.0188
     28 C           5.5661   -1.2625   27.9150 C.3     1  UNL1        0.1934
     29 C           6.9489   -4.9821   27.8627 C.ar    1  UNL1        0.0529
     30 C           6.4528   -3.6614   28.3723 C.ar    1  UNL1        0.0782
     31 N           6.0622   -2.5832   27.4054 N.ar    1  UNL1       -0.2979
     32 C           6.1676   -2.8257   25.9289 C.ar    1  UNL1        0.1750
     33 N           6.6636   -4.1464   25.4193 N.ar    1  UNL1       -0.1847
     34 C           7.0542   -5.2246   26.3862 C.ar    1  UNL1        0.2783
     35 O           7.5503   -6.5453   25.8766 O.2     1  UNL1       -0.2654
     36 S           5.7769   -1.7475   24.9620 S.3     1  UNL1       -0.0724
     37 C           4.3974   -1.7319   24.3732 C.3     1  UNL1        0.0913
     38 C           4.1842   -2.1579   22.9508 C.ar    1  UNL1       -0.0108
     39 C           3.4774   -1.2455   21.9926 C.ar    1  UNL1       -0.0011
     40 C           3.2641   -1.6715   20.5703 C.ar    1  UNL1        0.0293
     41 C           3.7577   -3.0098   20.1061 C.ar    1  UNL1        0.1401
     42 F           3.5444   -3.4357   18.6838 F       1  UNL1       -0.2042
     43 C           4.4644   -3.9221   21.0643 C.ar    1  UNL1        0.0293
     44 C           4.6777   -3.4961   22.4867 C.ar    1  UNL1       -0.0011
     45 C           7.3395   -6.0603   28.8296 C.3     1  UNL1        0.0328
     46 C           8.3122   -6.0288   31.2385 C.3     1  UNL1        0.0004
     47 C           7.1534   -5.8498   30.3030 C.3     1  UNL1        0.0049
@<TRIPOS>BOND
     1    46    47    1
     2    47    45    1
     3    45    29    1
     4    29    30   ar
     5    30    31   ar
     6    31    28    1
     7    28     1    1
     8     1     2    2
     9     1     3   am
    10     3    21    1
    11    21    22    1
    12    22    23    1
    13    23    24    1
    14    24    25    1
    15    23    26    1
    16    26    27    1
    17     3     4    1
    18     4     5    1
    19     5     6   ar
    20     6     7   ar
    21     7     8   ar
    22     8    11    1
    23    11    12   ar
    24    12    13   ar
    25    13    14   ar
    26    14    17    1
    27    17    18    1
    28    17    19    1
    29    17    20    1
    30    14    15   ar
    31    15    16   ar
    32     8     9   ar
    33     9    10   ar
    34    31    32   ar
    35    32    36    1
    36    36    37    1
    37    37    38    1
    38    38    39   ar
    39    39    40   ar
    40    40    41   ar
    41    41    42    1
    42    41    43   ar
    43    43    44   ar
    44    32    33   ar
    45    33    34   ar
    46    34    35    2
    47    34    29   ar
    48    10     5   ar
    49    44    38   ar
    50    16    11   ar
@<TRIPOS>MOLECULE
*****
 47 50 0 0 0
SMALL
GASTEIGER

@<TRIPOS>ATOM
      1 C           3.5397    0.4071   25.2908 C.2     1  UNL1        0.2491
      2 O           3.5534    1.4063   24.1722 O.2     1  UNL1       -0.2727
      3 N           3.0655    0.8142   26.6544 N.am    1  UNL1       -0.2724
      4 C           2.6049    2.2205   26.8994 C.3     1  UNL1        0.1202
      5 C           1.1917    2.6124   26.5845 C.ar    1  UNL1       -0.0023
      6 C           0.3677    1.7677   25.6585 C.ar    1  UNL1       -0.0026
      7 C          -1.0456    2.1597   25.3437 C.ar    1  UNL1       -0.0003
      8 C          -1.6347    3.3964   25.9547 C.ar    1  UNL1       -0.0000
      9 C          -0.8107    4.2411   26.8806 C.ar    1  UNL1       -0.0003
     10 C           0.6025    3.8492   27.1955 C.ar    1  UNL1       -0.0026
     11 C          -3.0479    3.7883   25.6398 C.ar    1  UNL1       -0.0000
     12 C          -3.8738    4.5055   26.6663 C.ar    1  UNL1       -0.0001
     13 C          -5.2871    4.8975   26.3513 C.ar    1  UNL1        0.0039
     14 C          -5.8744    4.5722   25.0099 C.ar    1  UNL1        0.0714
     15 C          -5.0485    3.8551   23.9835 C.ar    1  UNL1        0.0039
     16 C          -3.6353    3.4631   24.2984 C.ar    1  UNL1       -0.0001
     17 C          -7.2877    4.9642   24.6950 C.3     1  UNL1        0.4186
     18 F          -8.7009    5.3561   24.3800 F       1  UNL1       -0.1659
     19 F          -7.2552    4.0976   23.4711 F       1  UNL1       -0.1659
     20 F          -7.3202    5.8307   25.9189 F       1  UNL1       -0.1659
     21 C           3.0518   -0.1851   27.7730 C.3     1  UNL1        0.1111
     22 C           1.7542   -0.5686   28.4203 C.3     1  UNL1        0.0939
     23 N           1.1085    0.3546   29.4107 N.3     1  UNL1       -0.2712
     24 C          -0.3480    0.6903   29.2841 C.3     1  UNL1        0.0722
     25 C          -1.3115   -0.3350   28.7641 C.3     1  UNL1        0.0188
     26 C           1.9192    0.9422   30.5275 C.3     1  UNL1        0.0722
     27 C           2.1740    2.4197   30.5725 C.3     1  UNL1        0.0188
     28 C           4.0003   -0.9993   25.0458 C.3     1  UNL1        0.1934
     29 C           3.1928   -1.6147   21.2092 C.ar    1  UNL1        0.0529
     30 C           3.0975   -1.0903   22.6113 C.ar    1  UNL1        0.0782
     31 N           4.0956   -1.5238   23.6436 N.ar    1  UNL1       -0.2979
     32 C           5.1890   -2.4818   23.2740 C.ar    1  UNL1        0.1750
     33 N           5.2843   -3.0062   21.8719 N.ar    1  UNL1       -0.1847
     34 C           4.2862   -2.5727   20.8395 C.ar    1  UNL1        0.2783
     35 O           4.3815   -3.0972   19.4374 O.2     1  UNL1       -0.2654
     36 S           6.1871   -2.9153   24.3063 S.3     1  UNL1       -0.0724
     37 C           7.2768   -3.8781   23.9382 C.3     1  UNL1        0.0913
     38 C           7.4218   -5.1691   24.6881 C.ar    1  UNL1       -0.0108
     39 C           6.9257   -5.2764   26.0996 C.ar    1  UNL1       -0.0011
     40 C           7.0707   -6.5674   26.8495 C.ar    1  UNL1        0.0293
     41 C           7.7119   -7.7511   26.1878 C.ar    1  UNL1        0.1401
     42 F           7.8570   -9.0421   26.9377 F       1  UNL1       -0.2042
     43 C           8.2081   -7.6438   24.7763 C.ar    1  UNL1        0.0293
     44 C           8.0630   -6.3528   24.0265 C.ar    1  UNL1       -0.0011
     45 C           2.1946   -1.1812   20.1768 C.3     1  UNL1        0.0328
     46 C           1.1959    0.6691   18.6507 C.3     1  UNL1        0.0004
     47 C           2.1729    0.2429   19.7061 C.3     1  UNL1        0.0049
@<TRIPOS>BOND
     1    46    47    1
     2    47    45    1
     3    45    29    1
     4    29    30   ar
     5    30    31   ar
     6    31    28    1
     7    28     1    1
     8     1     2    2
     9     1     3   am
    10     3    21    1
    11    21    22    1
    12    22    23    1
    13    23    24    1
    14    24    25    1
    15    23    26    1
    16    26    27    1
    17     3     4    1
    18     4     5    1
    19     5     6   ar
    20     6     7   ar
    21     7     8   ar
    22     8    11    1
    23    11    12   ar
    24    12    13   ar
    25    13    14   ar
    26    14    17    1
    27    17    18    1
    28    17    19    1
    29    17    20    1
    30    14    15   ar
    31    15    16   ar
    32     8     9   ar
    33     9    10   ar
    34    31    32   ar
    35    32    36    1
    36    36    37    1
    37    37    38    1
    38    38    39   ar
    39    39    40   ar
    40    40    41   ar
    41    41    42    1
    42    41    43   ar
    43    43    44   ar
    44    32    33   ar
    45    33    34   ar
    46    34    35    2
    47    34    29   ar
    48    10     5   ar
    49    44    38   ar
    50    16    11   ar
@<TRIPOS>MOLECULE
*****
 47 50 0 0 0
SMALL
GASTEIGER

@<TRIPOS>ATOM
      1 C           2.8011    0.2395   30.2208 C.2     1  UNL1        0.2491
      2 O           1.5428   -0.5493   30.0102 O.2     1  UNL1       -0.2727
      3 N           3.2378    1.2430   29.1949 N.am    1  UNL1       -0.2724
      4 C           2.4161    1.4576   27.9585 C.3     1  UNL1        0.1202
      5 C           2.7137    0.6737   26.7148 C.ar    1  UNL1       -0.0023
      6 C           3.6414   -0.5035   26.7743 C.ar    1  UNL1       -0.0026
      7 C           3.9390   -1.2875   25.5305 C.ar    1  UNL1       -0.0003
      8 C           3.3090   -0.8941   24.2273 C.ar    1  UNL1       -0.0000
      9 C           2.3813    0.2831   24.1678 C.ar    1  UNL1       -0.0003
     10 C           2.0837    1.0670   25.4115 C.ar    1  UNL1       -0.0026
     11 C           3.6066   -1.6781   22.9836 C.ar    1  UNL1       -0.0000
     12 C           4.4202   -2.9356   23.0663 C.ar    1  UNL1       -0.0001
     13 C           4.7178   -3.7195   21.8225 C.ar    1  UNL1        0.0039
     14 C           4.2018   -3.2459   20.4961 C.ar    1  UNL1        0.0714
     15 C           3.3883   -1.9884   20.4134 C.ar    1  UNL1        0.0039
     16 C           3.0906   -1.2045   21.6571 C.ar    1  UNL1       -0.0001
     17 C           4.4994   -4.0299   19.2523 C.3     1  UNL1        0.4186
     18 F           4.7970   -4.8138   18.0086 F       1  UNL1       -0.1659
     19 F           3.1552   -4.6888   19.3460 F       1  UNL1       -0.1659
     20 F           5.8436   -3.3709   19.1586 F       1  UNL1       -0.1659
     21 C           4.4961    2.0318   29.4055 C.3     1  UNL1        0.1111
     22 C           4.4217    3.5068   29.6679 C.3     1  UNL1        0.0939
     23 N           3.5392    4.0302   30.7621 N.3     1  UNL1       -0.2712
     24 C           2.3135    4.8250   30.4216 C.3     1  UNL1        0.0722
     25 C           1.0556    4.1220   30.0051 C.3     1  UNL1        0.0188
     26 C           3.8825    3.7590   32.1969 C.3     1  UNL1        0.0722
     27 C           5.2918    3.9388   32.6778 C.3     1  UNL1        0.0188
     28 C           3.6228    0.0249   31.4572 C.3     1  UNL1        0.1934
     29 C           6.3987   -2.5355   30.2370 C.ar    1  UNL1        0.0529
     30 C           5.3483   -1.4650   30.2110 C.ar    1  UNL1        0.0782
     31 N           4.6732   -1.0457   31.4832 N.ar    1  UNL1       -0.2979
     32 C           5.0485   -1.6968   32.7813 C.ar    1  UNL1        0.1750
     33 N           6.0989   -2.7673   32.8072 N.ar    1  UNL1       -0.1847
     34 C           6.7740   -3.1867   31.5351 C.ar    1  UNL1        0.2783
     35 O           7.8244   -4.2572   31.5611 O.2     1  UNL1       -0.2654
     36 S           4.3734   -1.2775   34.0535 S.3     1  UNL1       -0.0724
     37 C           5.0965   -0.4010   35.0326 C.3     1  UNL1        0.0913
     38 C           4.3368    0.6145   35.8336 C.ar    1  UNL1       -0.0108
     39 C           3.5323    1.6709   35.1358 C.ar    1  UNL1       -0.0011
     40 C           2.7726    2.6864   35.9369 C.ar    1  UNL1        0.0293
     41 C           2.8173    2.6454   37.4357 C.ar    1  UNL1        0.1401
     42 F           2.0576    3.6608   38.2367 F       1  UNL1       -0.2042
     43 C           3.6217    1.5889   38.1334 C.ar    1  UNL1        0.0293
     44 C           4.3814    0.5735   37.3324 C.ar    1  UNL1       -0.0011
     45 C           7.0738   -2.9548   28.9648 C.3     1  UNL1        0.0328
     46 C           6.8127   -3.5486   26.4490 C.3     1  UNL1        0.0004
     47 C           6.2664   -3.5433   27.8460 C.3     1  UNL1        0.0049
@<TRIPOS>BOND
     1    46    47    1
     2    47    45    1
     3    45    29    1
     4    29    30   ar
     5    30    31   ar
     6    31    28    1
     7    28     1    1
     8     1     2    2
     9     1     3   am
    10     3    21    1
    11    21    22    1
    12    22    23    1
    13    23    24    1
    14    24    25    1
    15    23    26    1
    16    26    27    1
    17     3     4    1
    18     4     5    1
    19     5     6   ar
    20     6     7   ar
    21     7     8   ar
    22     8    11    1
    23    11    12   ar
    24    12    13   ar
    25    13    14   ar
    26    14    17    1
    27    17    18    1
    28    17    19    1
    29    17    20    1
    30    14    15   ar
    31    15    16   ar
    32     8     9   ar
    33     9    10   ar
    34    31    32   ar
    35    32    36    1
    36    36    37    1
    37    37    38    1
    38    38    39   ar
    39    39    40   ar
    40    40    41   ar
    41    41    42    1
    42    41    43   ar
    43    43    44   ar
    44    32    33   ar
    45    33    34   ar
    46    34    35    2
    47    34    29   ar
    48    10     5   ar
    49    44    38   ar
    50    16    11   ar
@<TRIPOS>MOLECULE
*****
 47 50 0 0 0
SMALL
GASTEIGER

@<TRIPOS>ATOM
      1 C          -0.1119    6.2875   21.5652 C.2     1  UNL1        0.2491
      2 O           1.3826    6.1604   21.5791 O.2     1  UNL1       -0.2727
      3 N          -0.8784    5.9888   20.3109 N.am    1  UNL1       -0.2724
      4 C          -0.1504    5.5629   19.0705 C.3     1  UNL1        0.1202
      5 C           0.5105    4.2176   19.0135 C.ar    1  UNL1       -0.0023
      6 C          -0.2239    3.0002   19.4914 C.ar    1  UNL1       -0.0026
      7 C           0.4371    1.6549   19.4344 C.ar    1  UNL1       -0.0003
      8 C           1.8326    1.5270   18.8993 C.ar    1  UNL1       -0.0000
      9 C           2.5670    2.7444   18.4213 C.ar    1  UNL1       -0.0003
     10 C           1.9061    4.0897   18.4784 C.ar    1  UNL1       -0.0026
     11 C           2.4935    0.1817   18.8422 C.ar    1  UNL1       -0.0000
     12 C           3.4312   -0.1461   17.7183 C.ar    1  UNL1       -0.0001
     13 C           4.0922   -1.4915   17.6613 C.ar    1  UNL1        0.0039
     14 C           3.8155   -2.5089   18.7281 C.ar    1  UNL1        0.0714
     15 C           2.8778   -2.1810   19.8521 C.ar    1  UNL1        0.0039
     16 C           2.2168   -0.8358   19.9091 C.ar    1  UNL1       -0.0001
     17 C           4.4764   -3.8543   18.6711 C.3     1  UNL1        0.4186
     18 F           5.1374   -5.1995   18.6141 F       1  UNL1       -0.1659
     19 F           5.7663   -3.2034   18.2681 F       1  UNL1       -0.1659
     20 F           3.1865   -4.5051   19.0741 F       1  UNL1       -0.1659
     21 C          -2.3730    6.1160   20.2971 C.3     1  UNL1        0.1111
     22 C          -3.1599    5.5872   19.1347 C.3     1  UNL1        0.0939
     23 N          -3.8007    4.2334   19.2165 N.3     1  UNL1       -0.2712
     24 C          -4.5997    3.7107   18.0597 C.3     1  UNL1        0.0722
     25 C          -3.9819    3.6345   16.6949 C.3     1  UNL1        0.0188
     26 C          -3.6424    3.4023   20.4551 C.3     1  UNL1        0.0722
     27 C          -4.8456    3.0411   21.2748 C.3     1  UNL1        0.0188
     28 C          -0.8399    6.7134   22.8056 C.3     1  UNL1        0.1934
     29 C          -4.3484    5.4454   24.1595 C.ar    1  UNL1        0.0529
     30 C          -3.2950    6.3331   23.5660 C.ar    1  UNL1        0.0782
     31 N          -1.8933    5.8256   23.3992 N.ar    1  UNL1       -0.2979
     32 C          -1.5450    4.4304   23.8259 C.ar    1  UNL1        0.1750
     33 N          -2.5984    3.5427   24.4194 N.ar    1  UNL1       -0.1847
     34 C          -4.0001    4.0502   24.5862 C.ar    1  UNL1        0.2783
     35 O          -5.0535    3.1624   25.1798 O.2     1  UNL1       -0.2654
     36 S          -0.1434    3.9230   23.6591 S.3     1  UNL1       -0.0724
     37 C           0.0959    2.4920   23.2782 C.3     1  UNL1        0.0913
     38 C           1.4869    2.0187   22.9767 C.ar    1  UNL1       -0.0108
     39 C           2.4451    2.9183   22.2538 C.ar    1  UNL1       -0.0011
     40 C           3.8362    2.4449   21.9523 C.ar    1  UNL1        0.0293
     41 C           4.2690    1.0719   22.3737 C.ar    1  UNL1        0.1401
     42 F           5.6600    0.5985   22.0722 F       1  UNL1       -0.2042
     43 C           3.3108    0.1723   23.0966 C.ar    1  UNL1        0.0293
     44 C           1.9198    0.6457   23.3981 C.ar    1  UNL1       -0.0011
     45 C          -5.7500    5.9529   24.3263 C.3     1  UNL1        0.0328
     46 C          -7.9271    4.6692   23.7243 C.3     1  UNL1        0.0004
     47 C          -6.8056    5.5826   23.3270 C.3     1  UNL1        0.0049
@<TRIPOS>BOND
     1    46    47    1
     2    47    45    1
     3    45    29    1
     4    29    30   ar
     5    30    31   ar
     6    31    28    1
     7    28     1    1
     8     1     2    2
     9     1     3   am
    10     3    21    1
    11    21    22    1
    12    22    23    1
    13    23    24    1
    14    24    25    1
    15    23    26    1
    16    26    27    1
    17     3     4    1
    18     4     5    1
    19     5     6   ar
    20     6     7   ar
    21     7     8   ar
    22     8    11    1
    23    11    12   ar
    24    12    13   ar
    25    13    14   ar
    26    14    17    1
    27    17    18    1
    28    17    19    1
    29    17    20    1
    30    14    15   ar
    31    15    16   ar
    32     8     9   ar
    33     9    10   ar
    34    31    32   ar
    35    32    36    1
    36    36    37    1
    37    37    38    1
    38    38    39   ar
    39    39    40   ar
    40    40    41   ar
    41    41    42    1
    42    41    43   ar
    43    43    44   ar
    44    32    33   ar
    45    33    34   ar
    46    34    35    2
    47    34    29   ar
    48    10     5   ar
    49    44    38   ar
    50    16    11   ar
