@<TRIPOS>MOLECULE
*****
 28 30 0 0 0
SMALL
GASTEIGER

@<TRIPOS>ATOM
      1 C          -7.9147  -18.8414   20.7693 C.ar    1  UNL1        0.0660
      2 C          -7.1830  -19.9780   20.1191 C.ar    1  UNL1        0.0190
      3 C          -5.7463  -20.2394   20.4624 C.ar    1  UNL1        0.0388
      4 C          -5.0414  -19.3641   21.4558 C.ar    1  UNL1        0.1454
      5 C          -5.7731  -18.2275   22.1060 C.ar    1  UNL1        0.0399
      6 C          -7.2097  -17.9661   21.7628 C.ar    1  UNL1        0.0316
      7 C          -7.9413  -16.8295   22.4130 C.2     1  UNL1        0.0742
      8 O          -8.2618  -15.5947   21.6239 O.co2   1  UNL1       -0.5445
      9 O          -8.3525  -16.9277   23.8521 O.co2   1  UNL1       -0.5445
     10 N          -9.3512  -18.5800   20.4260 N.pl3   1  UNL1       -0.2150
     11 H          -9.6144  -18.4319   19.4890 H       1  UNL1        0.1737
     12 S         -10.3869  -18.5443   21.5105 S.O2    1  UNL1        0.0736
     13 O          -9.7929  -19.7802   22.1184 O.2     1  UNL1       -0.1499
     14 O         -10.9809  -17.3084   20.9025 O.2     1  UNL1       -0.1499
     15 C         -14.5296  -18.4015   25.8484 C.3     1  UNL1        0.0310
     16 C         -13.4940  -18.4372   24.7640 C.ar    1  UNL1       -0.0218
     17 C         -13.7985  -17.8527   23.4165 C.ar    1  UNL1       -0.0029
     18 C         -12.7628  -17.8884   22.3320 C.ar    1  UNL1        0.0199
     19 C         -11.4226  -18.5086   22.5950 C.ar    1  UNL1        0.1251
     20 C         -11.1180  -19.0931   23.9424 C.ar    1  UNL1        0.0199
     21 C         -12.1537  -19.0574   25.0270 C.ar    1  UNL1       -0.0029
     22 O          -3.6048  -19.6255   21.7991 O.3     1  UNL1       -0.4535
     23 C          -2.5334  -18.7058   21.2928 C.ar    1  UNL1        0.1453
     24 C          -2.4304  -17.3081   21.8275 C.ar    1  UNL1        0.0375
     25 C          -1.3590  -16.3885   21.3212 C.ar    1  UNL1        0.0031
     26 C          -0.3907  -16.8665   20.2800 C.ar    1  UNL1        0.0002
     27 C          -0.4937  -18.2641   19.7453 C.ar    1  UNL1        0.0031
     28 C          -1.5651  -19.1838   20.2517 C.ar    1  UNL1        0.0375
@<TRIPOS>UNITY_ATOM_ATTR
8 1
charge -1
@<TRIPOS>BOND
     1    15    16    1
     2    16    17   ar
     3    17    18   ar
     4    18    19   ar
     5    19    12    1
     6    12    13    2
     7    12    14    2
     8    12    10    1
     9    10     1    1
    10     1     2   ar
    11     2     3   ar
    12     3     4   ar
    13     4    22    1
    14    22    23    1
    15    23    24   ar
    16    24    25   ar
    17    25    26   ar
    18    26    27   ar
    19    27    28   ar
    20     4     5   ar
    21     5     6   ar
    22     6     7    1
    23     7     8   ar
    24     7     9   ar
    25    19    20   ar
    26    20    21   ar
    27    21    16   ar
    28     6     1   ar
    29    28    23   ar
    30    10    11    1
@<TRIPOS>MOLECULE
*****
 28 30 0 0 0
SMALL
GASTEIGER

@<TRIPOS>ATOM
      1 C          -8.0471  -18.3585   21.2208 C.ar    1  UNL1        0.0660
      2 C          -7.4037  -17.6589   22.3812 C.ar    1  UNL1        0.0190
      3 C          -5.9748  -17.9493   22.7335 C.ar    1  UNL1        0.0388
      4 C          -5.1895  -18.9393   21.9255 C.ar    1  UNL1        0.1454
      5 C          -5.8329  -19.6390   20.7651 C.ar    1  UNL1        0.0399
      6 C          -7.2617  -19.3486   20.4127 C.ar    1  UNL1        0.0316
      7 C          -7.9051  -20.0482   19.2523 C.2     1  UNL1        0.0742
      8 O          -8.9332  -19.3365   18.4237 O.co2   1  UNL1       -0.5445
      9 O          -7.5205  -21.4596   18.9205 O.co2   1  UNL1       -0.5445
     10 N          -9.4759  -18.0682   20.8685 N.pl3   1  UNL1       -0.2150
     11 H          -9.7144  -17.8169   19.9469 H       1  UNL1        0.1737
     12 S         -10.5414  -18.1605   21.9202 S.O2    1  UNL1        0.0736
     13 O         -10.3831  -19.6518   21.9496 O.2     1  UNL1       -0.1499
     14 O         -10.6997  -16.6692   21.8909 O.2     1  UNL1       -0.1499
     15 C         -14.8032  -18.5303   26.1274 C.3     1  UNL1        0.0310
     16 C         -13.7378  -18.4379   25.0757 C.ar    1  UNL1       -0.0218
     17 C         -12.3522  -18.9340   25.3659 C.ar    1  UNL1       -0.0029
     18 C         -11.2868  -18.8415   24.3141 C.ar    1  UNL1        0.0199
     19 C         -11.6069  -18.2530   22.9720 C.ar    1  UNL1        0.1251
     20 C         -12.9923  -17.7569   22.6818 C.ar    1  UNL1        0.0199
     21 C         -14.0579  -17.8493   23.7336 C.ar    1  UNL1       -0.0029
     22 O          -3.7606  -19.2298   22.2778 O.3     1  UNL1       -0.4535
     23 C          -2.6533  -18.4800   21.5982 C.ar    1  UNL1        0.1453
     24 C          -1.8084  -19.1641   20.5647 C.ar    1  UNL1        0.0375
     25 C          -0.7011  -18.4144   19.8852 C.ar    1  UNL1        0.0031
     26 C          -0.4388  -16.9805   20.2391 C.ar    1  UNL1        0.0002
     27 C          -1.2837  -16.2964   21.2726 C.ar    1  UNL1        0.0031
     28 C          -2.3910  -17.0462   21.9521 C.ar    1  UNL1        0.0375
@<TRIPOS>UNITY_ATOM_ATTR
8 1
charge -1
@<TRIPOS>BOND
     1    15    16    1
     2    16    17   ar
     3    17    18   ar
     4    18    19   ar
     5    19    12    1
     6    12    13    2
     7    12    14    2
     8    12    10    1
     9    10     1    1
    10     1     2   ar
    11     2     3   ar
    12     3     4   ar
    13     4    22    1
    14    22    23    1
    15    23    24   ar
    16    24    25   ar
    17    25    26   ar
    18    26    27   ar
    19    27    28   ar
    20     4     5   ar
    21     5     6   ar
    22     6     7    1
    23     7     8   ar
    24     7     9   ar
    25    19    20   ar
    26    20    21   ar
    27    21    16   ar
    28     6     1   ar
    29    28    23   ar
    30    10    11    1
@<TRIPOS>MOLECULE
*****
 28 30 0 0 0
SMALL
GASTEIGER

@<TRIPOS>ATOM
      1 C          -6.8930  -17.1230   23.2093 C.ar    1  UNL1        0.0660
      2 C          -7.2563  -18.4511   22.6141 C.ar    1  UNL1        0.0190
      3 C          -6.1916  -19.3201   22.0129 C.ar    1  UNL1        0.0388
      4 C          -4.7636  -18.8610   22.0069 C.ar    1  UNL1        0.1454
      5 C          -4.4003  -17.5329   22.6021 C.ar    1  UNL1        0.0399
      6 C          -5.4649  -16.6639   23.2032 C.ar    1  UNL1        0.0316
      7 C          -5.1016  -15.3359   23.7984 C.2     1  UNL1        0.0742
      8 O          -4.3640  -14.3217   22.9753 O.co2   1  UNL1       -0.5445
      9 O          -5.4758  -15.0219   25.2166 O.co2   1  UNL1       -0.5445
     10 N          -7.9576  -16.2541   23.8105 N.pl3   1  UNL1       -0.2150
     11 H          -7.7198  -15.3804   24.1970 H       1  UNL1        0.1737
     12 S          -9.3846  -16.7163   23.8227 S.O2    1  UNL1        0.0736
     13 O          -9.1969  -17.2591   25.2083 O.2     1  UNL1       -0.1499
     14 O          -9.5722  -16.1735   22.4370 O.2     1  UNL1       -0.1499
     15 C         -15.0925  -18.5650   23.8717 C.3     1  UNL1        0.0310
     16 C         -13.6655  -18.1029   23.8595 C.ar    1  UNL1       -0.0218
     17 C         -13.2645  -16.9292   23.0158 C.ar    1  UNL1       -0.0029
     18 C         -11.8375  -16.4671   23.0035 C.ar    1  UNL1        0.0199
     19 C         -10.8116  -17.1785   23.8350 C.ar    1  UNL1        0.1251
     20 C         -11.2126  -18.3521   24.6787 C.ar    1  UNL1        0.0199
     21 C         -12.6396  -18.8143   24.6909 C.ar    1  UNL1       -0.0029
     22 O          -3.6989  -19.7299   21.4057 O.3     1  UNL1       -0.4535
     23 C          -2.6145  -19.1175   20.5696 C.ar    1  UNL1        0.1453
     24 C          -1.2272  -18.9807   21.1236 C.ar    1  UNL1        0.0375
     25 C          -0.1429  -18.3682   20.2875 C.ar    1  UNL1        0.0031
     26 C          -0.4458  -17.8925   18.8975 C.ar    1  UNL1        0.0002
     27 C          -1.8330  -18.0294   18.3436 C.ar    1  UNL1        0.0031
     28 C          -2.9174  -18.6418   19.1797 C.ar    1  UNL1        0.0375
@<TRIPOS>UNITY_ATOM_ATTR
8 1
charge -1
@<TRIPOS>BOND
     1    15    16    1
     2    16    17   ar
     3    17    18   ar
     4    18    19   ar
     5    19    12    1
     6    12    13    2
     7    12    14    2
     8    12    10    1
     9    10     1    1
    10     1     2   ar
    11     2     3   ar
    12     3     4   ar
    13     4    22    1
    14    22    23    1
    15    23    24   ar
    16    24    25   ar
    17    25    26   ar
    18    26    27   ar
    19    27    28   ar
    20     4     5   ar
    21     5     6   ar
    22     6     7    1
    23     7     8   ar
    24     7     9   ar
    25    19    20   ar
    26    20    21   ar
    27    21    16   ar
    28     6     1   ar
    29    28    23   ar
    30    10    11    1
@<TRIPOS>MOLECULE
*****
 28 30 0 0 0
SMALL
GASTEIGER

@<TRIPOS>ATOM
      1 C          -6.5566  -16.9803   23.5838 C.ar    1  UNL1        0.0660
      2 C          -6.8718  -17.8608   22.4110 C.ar    1  UNL1        0.0190
      3 C          -8.2880  -17.9988   21.9360 C.ar    1  UNL1        0.0388
      4 C          -9.3888  -17.2563   22.6338 C.ar    1  UNL1        0.1454
      5 C          -9.0736  -16.3759   23.8066 C.ar    1  UNL1        0.0399
      6 C          -7.6575  -16.2379   24.2816 C.ar    1  UNL1        0.0316
      7 C          -7.3423  -15.3574   25.4544 C.2     1  UNL1        0.0742
      8 O          -6.0421  -14.6110   25.5038 O.co2   1  UNL1       -0.5445
      9 O          -8.3272  -15.2233   26.5777 O.co2   1  UNL1       -0.5445
     10 N          -5.1405  -16.8423   24.0588 N.pl3   1  UNL1       -0.2150
     11 H          -4.9570  -16.5734   24.9879 H       1  UNL1        0.1737
     12 S          -4.0042  -17.1140   23.1183 S.O2    1  UNL1        0.0736
     13 O          -4.0599  -18.5706   23.4717 O.2     1  UNL1       -0.1499
     14 O          -3.9484  -15.6573   22.7648 O.2     1  UNL1       -0.1499
     15 C           0.5415  -18.2011   19.3559 C.3     1  UNL1        0.0310
     16 C          -0.5949  -17.9293   20.2964 C.ar    1  UNL1       -0.0218
     17 C          -1.4142  -19.0663   20.8312 C.ar    1  UNL1       -0.0029
     18 C          -2.5506  -18.7945   21.7717 C.ar    1  UNL1        0.0199
     19 C          -2.8677  -17.3857   22.1776 C.ar    1  UNL1        0.1251
     20 C          -2.0484  -16.2487   21.6430 C.ar    1  UNL1        0.0199
     21 C          -0.9119  -16.5205   20.7024 C.ar    1  UNL1       -0.0029
     22 O         -10.8050  -17.3944   22.1588 O.3     1  UNL1       -0.4535
     23 C         -11.8838  -17.7920   23.1222 C.ar    1  UNL1        0.1453
     24 C         -11.5351  -18.5562   24.3650 C.ar    1  UNL1        0.0375
     25 C         -12.6139  -18.9538   25.3283 C.ar    1  UNL1        0.0031
     26 C         -14.0413  -18.5872   25.0489 C.ar    1  UNL1        0.0002
     27 C         -14.3900  -17.8230   23.8062 C.ar    1  UNL1        0.0031
     28 C         -13.3112  -17.4254   22.8428 C.ar    1  UNL1        0.0375
@<TRIPOS>UNITY_ATOM_ATTR
8 1
charge -1
@<TRIPOS>BOND
     1    15    16    1
     2    16    17   ar
     3    17    18   ar
     4    18    19   ar
     5    19    12    1
     6    12    13    2
     7    12    14    2
     8    12    10    1
     9    10     1    1
    10     1     2   ar
    11     2     3   ar
    12     3     4   ar
    13     4    22    1
    14    22    23    1
    15    23    24   ar
    16    24    25   ar
    17    25    26   ar
    18    26    27   ar
    19    27    28   ar
    20     4     5   ar
    21     5     6   ar
    22     6     7    1
    23     7     8   ar
    24     7     9   ar
    25    19    20   ar
    26    20    21   ar
    27    21    16   ar
    28     6     1   ar
    29    28    23   ar
    30    10    11    1
@<TRIPOS>MOLECULE
*****
 28 30 0 0 0
SMALL
GASTEIGER

@<TRIPOS>ATOM
      1 C           5.4062   -2.5070   18.9712 C.ar    1  UNL1        0.0660
      2 C           6.4420   -1.4944   19.3606 C.ar    1  UNL1        0.0190
      3 C           7.5240   -1.8637   20.3317 C.ar    1  UNL1        0.0388
      4 C           7.5701   -3.2455   20.9133 C.ar    1  UNL1        0.1454
      5 C           6.5343   -4.2581   20.5239 C.ar    1  UNL1        0.0399
      6 C           5.4523   -3.8889   19.5529 C.ar    1  UNL1        0.0316
      7 C           4.4164   -4.9014   19.1635 C.2     1  UNL1        0.0742
      8 O           2.9899   -4.4792   18.9713 O.co2   1  UNL1       -0.5445
      9 O           4.8070   -6.3362   18.9664 O.co2   1  UNL1       -0.5445
     10 N           4.3242   -2.1377   18.0002 N.pl3   1  UNL1       -0.2150
     11 H           4.0709   -2.7639   17.2839 H       1  UNL1        0.1737
     12 S           3.6282   -0.8145   18.1204 S.O2    1  UNL1        0.0736
     13 O           3.0392   -1.2434   19.4315 O.2     1  UNL1       -0.1499
     14 O           4.2171   -0.3855   16.8093 O.2     1  UNL1       -0.1499
     15 C           0.8438    4.4786   18.6016 C.3     1  UNL1        0.0310
     16 C           1.5399    3.1554   18.4813 C.ar    1  UNL1       -0.0218
     17 C           0.7376    1.8906   18.3990 C.ar    1  UNL1       -0.0029
     18 C           1.4337    0.5674   18.2787 C.ar    1  UNL1        0.0199
     19 C           2.9321    0.5088   18.2407 C.ar    1  UNL1        0.1251
     20 C           3.7344    1.7735   18.3230 C.ar    1  UNL1        0.0199
     21 C           3.0383    3.0969   18.4433 C.ar    1  UNL1       -0.0029
     22 O           8.6521   -3.6148   21.8844 O.3     1  UNL1       -0.4535
     23 C           8.4782   -4.8013   22.7856 C.ar    1  UNL1        0.1453
     24 C           9.0641   -6.1275   22.4010 C.ar    1  UNL1        0.0375
     25 C           8.8901   -7.3140   23.3021 C.ar    1  UNL1        0.0031
     26 C           8.1302   -7.1741   24.5879 C.ar    1  UNL1        0.0002
     27 C           7.5443   -5.8479   24.9724 C.ar    1  UNL1        0.0031
     28 C           7.7183   -4.6615   24.0713 C.ar    1  UNL1        0.0375
@<TRIPOS>UNITY_ATOM_ATTR
8 1
charge -1
@<TRIPOS>BOND
     1    15    16    1
     2    16    17   ar
     3    17    18   ar
     4    18    19   ar
     5    19    12    1
     6    12    13    2
     7    12    14    2
     8    12    10    1
     9    10     1    1
    10     1     2   ar
    11     2     3   ar
    12     3     4   ar
    13     4    22    1
    14    22    23    1
    15    23    24   ar
    16    24    25   ar
    17    25    26   ar
    18    26    27   ar
    19    27    28   ar
    20     4     5   ar
    21     5     6   ar
    22     6     7    1
    23     7     8   ar
    24     7     9   ar
    25    19    20   ar
    26    20    21   ar
    27    21    16   ar
    28     6     1   ar
    29    28    23   ar
    30    10    11    1
@<TRIPOS>MOLECULE
*****
 28 30 0 0 0
SMALL
GASTEIGER

@<TRIPOS>ATOM
      1 C           4.4123    0.3024   33.0294 C.ar    1  UNL1        0.0660
      2 C           4.2735    1.7134   33.5191 C.ar    1  UNL1        0.0190
      3 C           4.2355    1.9958   34.9919 C.ar    1  UNL1        0.0388
      4 C           4.3362    0.8672   35.9748 C.ar    1  UNL1        0.1454
      5 C           4.4750   -0.5438   35.4850 C.ar    1  UNL1        0.0399
      6 C           4.5130   -0.8262   34.0124 C.ar    1  UNL1        0.0316
      7 C           4.6517   -2.2372   33.5226 C.2     1  UNL1        0.0742
      8 O           5.8502   -2.6357   32.7133 O.co2   1  UNL1       -0.5445
      9 O           3.5921   -3.2496   33.8421 O.co2   1  UNL1       -0.5445
     10 N           4.4503    0.0200   31.5567 N.pl3   1  UNL1       -0.2150
     11 H           5.2216   -0.4503   31.1654 H       1  UNL1        0.1737
     12 S           3.3131    0.4543   30.6802 S.O2    1  UNL1        0.0736
     13 O           2.4351   -0.5913   31.3014 O.2     1  UNL1       -0.1499
     14 O           4.1911    1.4998   30.0591 O.2     1  UNL1       -0.1499
     15 C          -1.2357    2.1910   27.1743 C.3     1  UNL1        0.0310
     16 C          -0.0986    1.7569   28.0507 C.ar    1  UNL1       -0.0218
     17 C           0.1117    0.3000   28.3399 C.ar    1  UNL1       -0.0029
     18 C           1.2489   -0.1341   29.2164 C.ar    1  UNL1        0.0199
     19 C           2.1759    0.8885   29.8037 C.ar    1  UNL1        0.1251
     20 C           1.9657    2.3452   29.5146 C.ar    1  UNL1        0.0199
     21 C           0.8285    2.7795   28.6380 C.ar    1  UNL1       -0.0029
     22 O           4.2982    1.1496   37.4475 O.3     1  UNL1       -0.4535
     23 C           2.9895    1.4341   38.1231 C.ar    1  UNL1        0.1453
     24 C           2.3276    0.3740   38.9526 C.ar    1  UNL1        0.0375
     25 C           1.0190    0.6585   39.6282 C.ar    1  UNL1        0.0031
     26 C           0.3722    2.0031   39.4742 C.ar    1  UNL1        0.0002
     27 C           1.0341    3.0632   38.6447 C.ar    1  UNL1        0.0031
     28 C           2.3427    2.7787   37.9691 C.ar    1  UNL1        0.0375
@<TRIPOS>UNITY_ATOM_ATTR
8 1
charge -1
@<TRIPOS>BOND
     1    15    16    1
     2    16    17   ar
     3    17    18   ar
     4    18    19   ar
     5    19    12    1
     6    12    13    2
     7    12    14    2
     8    12    10    1
     9    10     1    1
    10     1     2   ar
    11     2     3   ar
    12     3     4   ar
    13     4    22    1
    14    22    23    1
    15    23    24   ar
    16    24    25   ar
    17    25    26   ar
    18    26    27   ar
    19    27    28   ar
    20     4     5   ar
    21     5     6   ar
    22     6     7    1
    23     7     8   ar
    24     7     9   ar
    25    19    20   ar
    26    20    21   ar
    27    21    16   ar
    28     6     1   ar
    29    28    23   ar
    30    10    11    1
@<TRIPOS>MOLECULE
*****
 28 30 0 0 0
SMALL
GASTEIGER

@<TRIPOS>ATOM
      1 C           5.7001   -2.9260   20.1821 C.ar    1  UNL1        0.0660
      2 C           5.0948   -3.5619   21.3983 C.ar    1  UNL1        0.0190
      3 C           5.9651   -3.9335   22.5622 C.ar    1  UNL1        0.0388
      4 C           7.4406   -3.6692   22.5098 C.ar    1  UNL1        0.1454
      5 C           8.0460   -3.0333   21.2936 C.ar    1  UNL1        0.0399
      6 C           7.1758   -2.6617   20.1298 C.ar    1  UNL1        0.0316
      7 C           7.7811   -2.0258   18.9135 C.2     1  UNL1        0.0742
      8 O           7.1917   -2.2863   17.5590 O.co2   1  UNL1       -0.5445
      9 O           8.9759   -1.1295   19.0519 O.co2   1  UNL1       -0.5445
     10 N           4.8299   -2.5545   19.0182 N.pl3   1  UNL1       -0.2150
     11 H           4.9768   -2.9743   18.1399 H       1  UNL1        0.1737
     12 S           3.7359   -1.5432   19.1925 S.O2    1  UNL1        0.0736
     13 O           4.7331   -0.4354   19.0245 O.2     1  UNL1       -0.1499
     14 O           2.7387   -2.6510   19.3606 O.2     1  UNL1       -0.1499
     15 C          -0.6401    2.5022   19.8897 C.3     1  UNL1        0.0310
     16 C           0.4539    1.4908   19.7155 C.ar    1  UNL1       -0.0218
     17 C           1.5312    1.7193   18.6970 C.ar    1  UNL1       -0.0029
     18 C           2.6252    0.7080   18.5227 C.ar    1  UNL1        0.0199
     19 C           2.6419   -0.5318   19.3669 C.ar    1  UNL1        0.1251
     20 C           1.5646   -0.7603   20.3853 C.ar    1  UNL1        0.0199
     21 C           0.4705    0.2510   20.5596 C.ar    1  UNL1       -0.0029
     22 O           8.3109   -4.0408   23.6737 O.3     1  UNL1       -0.4535
     23 C           7.9527   -5.2173   24.5326 C.ar    1  UNL1        0.1453
     24 C           7.1563   -5.0149   25.7875 C.ar    1  UNL1        0.0375
     25 C           6.7981   -6.1913   26.6463 C.ar    1  UNL1        0.0031
     26 C           7.2363   -7.5702   26.2502 C.ar    1  UNL1        0.0002
     27 C           8.0327   -7.7725   24.9953 C.ar    1  UNL1        0.0031
     28 C           8.3909   -6.5960   24.1365 C.ar    1  UNL1        0.0375
@<TRIPOS>UNITY_ATOM_ATTR
8 1
charge -1
@<TRIPOS>BOND
     1    15    16    1
     2    16    17   ar
     3    17    18   ar
     4    18    19   ar
     5    19    12    1
     6    12    13    2
     7    12    14    2
     8    12    10    1
     9    10     1    1
    10     1     2   ar
    11     2     3   ar
    12     3     4   ar
    13     4    22    1
    14    22    23    1
    15    23    24   ar
    16    24    25   ar
    17    25    26   ar
    18    26    27   ar
    19    27    28   ar
    20     4     5   ar
    21     5     6   ar
    22     6     7    1
    23     7     8   ar
    24     7     9   ar
    25    19    20   ar
    26    20    21   ar
    27    21    16   ar
    28     6     1   ar
    29    28    23   ar
    30    10    11    1
@<TRIPOS>MOLECULE
*****
 28 30 0 0 0
SMALL
GASTEIGER

@<TRIPOS>ATOM
      1 C           5.8495   -2.2850   21.2708 C.ar    1  UNL1        0.0660
      2 C           4.6544   -2.2859   22.1774 C.ar    1  UNL1        0.0190
      3 C           3.2913   -1.9978   21.6216 C.ar    1  UNL1        0.0388
      4 C           3.1232   -1.7087   20.1594 C.ar    1  UNL1        0.1454
      5 C           4.3182   -1.7077   19.2529 C.ar    1  UNL1        0.0399
      6 C           5.6814   -1.9959   19.8085 C.ar    1  UNL1        0.0316
      7 C           6.8764   -1.9949   18.9020 C.2     1  UNL1        0.0742
      8 O           8.2263   -1.6239   19.4408 O.co2   1  UNL1       -0.5445
      9 O           6.7217   -2.3650   17.4566 O.co2   1  UNL1       -0.5445
     10 N           7.2126   -2.5731   21.8265 N.pl3   1  UNL1       -0.2150
     11 H           7.9773   -2.0074   21.5728 H       1  UNL1        0.1737
     12 S           7.4106   -3.7233   22.7687 S.O2    1  UNL1        0.0736
     13 O           7.1982   -4.6860   21.6382 O.2     1  UNL1       -0.1499
     14 O           7.6230   -2.7606   23.8992 O.2     1  UNL1       -0.1499
     15 C           8.2027   -8.3242   26.5377 C.3     1  UNL1        0.0310
     16 C           8.0047   -7.1740   25.5954 C.ar    1  UNL1       -0.0218
     17 C           7.2674   -5.9497   26.0509 C.ar    1  UNL1       -0.0029
     18 C           7.0694   -4.7995   25.1087 C.ar    1  UNL1        0.0199
     19 C           7.6087   -4.8736   23.7110 C.ar    1  UNL1        0.1251
     20 C           8.3459   -6.0979   23.2554 C.ar    1  UNL1        0.0199
     21 C           8.5439   -7.2481   24.1977 C.ar    1  UNL1       -0.0029
     22 O           1.7600   -1.4205   19.6037 O.3     1  UNL1       -0.4535
     23 C           1.2112   -0.0253   19.6490 C.ar    1  UNL1        0.1453
     24 C           1.3313    0.8672   18.4493 C.ar    1  UNL1        0.0375
     25 C           0.7825    2.2625   18.4946 C.ar    1  UNL1        0.0031
     26 C           0.1136    2.7653   19.7396 C.ar    1  UNL1        0.0002
     27 C          -0.0064    1.8728   20.9392 C.ar    1  UNL1        0.0031
     28 C           0.5424    0.4776   20.8939 C.ar    1  UNL1        0.0375
@<TRIPOS>UNITY_ATOM_ATTR
8 1
charge -1
@<TRIPOS>BOND
     1    15    16    1
     2    16    17   ar
     3    17    18   ar
     4    18    19   ar
     5    19    12    1
     6    12    13    2
     7    12    14    2
     8    12    10    1
     9    10     1    1
    10     1     2   ar
    11     2     3   ar
    12     3     4   ar
    13     4    22    1
    14    22    23    1
    15    23    24   ar
    16    24    25   ar
    17    25    26   ar
    18    26    27   ar
    19    27    28   ar
    20     4     5   ar
    21     5     6   ar
    22     6     7    1
    23     7     8   ar
    24     7     9   ar
    25    19    20   ar
    26    20    21   ar
    27    21    16   ar
    28     6     1   ar
    29    28    23   ar
    30    10    11    1
@<TRIPOS>MOLECULE
*****
 28 30 0 0 0
SMALL
GASTEIGER

@<TRIPOS>ATOM
      1 C          -0.4683    2.5109   22.2280 C.ar    1  UNL1        0.0660
      2 C           0.5635    1.9708   23.1733 C.ar    1  UNL1        0.0190
      3 C           0.4065    2.1746   24.6512 C.ar    1  UNL1        0.0388
      4 C          -0.7822    2.9184   25.1836 C.ar    1  UNL1        0.1454
      5 C          -1.8140    3.4586   24.2383 C.ar    1  UNL1        0.0399
      6 C          -1.6571    3.2549   22.7605 C.ar    1  UNL1        0.0316
      7 C          -2.6889    3.7950   21.8152 C.2     1  UNL1        0.0742
      8 O          -3.2867    2.9029   20.7678 O.co2   1  UNL1       -0.5445
      9 O          -3.1230    5.2272   21.9172 O.co2   1  UNL1       -0.5445
     10 N          -0.3114    2.3072   20.7503 N.pl3   1  UNL1       -0.2150
     11 H          -0.8791    2.8085   20.1212 H       1  UNL1        0.1737
     12 S           0.7104    1.3397   20.2309 S.O2    1  UNL1        0.0736
     13 O           1.6324    2.4809   19.9189 O.2     1  UNL1       -0.1499
     14 O          -0.2117    0.1985   20.5429 O.2     1  UNL1       -0.1499
     15 C           4.7977   -2.5306   18.1536 C.3     1  UNL1        0.0310
     16 C           3.7759   -1.5630   18.6729 C.ar    1  UNL1       -0.0218
     17 C           3.1017   -1.8183   19.9884 C.ar    1  UNL1       -0.0029
     18 C           2.0799   -0.8507   20.5077 C.ar    1  UNL1        0.0199
     19 C           1.7322    0.3721   19.7116 C.ar    1  UNL1        0.1251
     20 C           2.4063    0.6274   18.3961 C.ar    1  UNL1        0.0199
     21 C           3.4282   -0.3402   17.8768 C.ar    1  UNL1       -0.0029
     22 O          -0.9392    3.1222   26.6615 O.3     1  UNL1       -0.4535
     23 C          -0.2728    2.1834   27.6229 C.ar    1  UNL1        0.1453
     24 C           0.9973    2.5901   28.3098 C.ar    1  UNL1        0.0375
     25 C           1.6637    1.6512   29.2712 C.ar    1  UNL1        0.0031
     26 C           1.0602    0.3057   29.5459 C.ar    1  UNL1        0.0002
     27 C          -0.2098   -0.1009   28.8591 C.ar    1  UNL1        0.0031
     28 C          -0.8763    0.8379   27.8976 C.ar    1  UNL1        0.0375
@<TRIPOS>UNITY_ATOM_ATTR
8 1
charge -1
@<TRIPOS>BOND
     1    15    16    1
     2    16    17   ar
     3    17    18   ar
     4    18    19   ar
     5    19    12    1
     6    12    13    2
     7    12    14    2
     8    12    10    1
     9    10     1    1
    10     1     2   ar
    11     2     3   ar
    12     3     4   ar
    13     4    22    1
    14    22    23    1
    15    23    24   ar
    16    24    25   ar
    17    25    26   ar
    18    26    27   ar
    19    27    28   ar
    20     4     5   ar
    21     5     6   ar
    22     6     7    1
    23     7     8   ar
    24     7     9   ar
    25    19    20   ar
    26    20    21   ar
    27    21    16   ar
    28     6     1   ar
    29    28    23   ar
    30    10    11    1
