@<TRIPOS>MOLECULE
*****
 33 35 0 0 0
SMALL
GASTEIGER

@<TRIPOS>ATOM
      1 C          -8.1329  -18.7252   21.5026 C.3     1  UNL1        0.1532
      2 C          -7.3785  -16.6117   22.8118 C.2     1  UNL1        0.2673
      3 O          -7.7524  -15.7526   21.6405 O.2     1  UNL1       -0.2684
      4 N          -7.5687  -18.0980   22.7429 N.am    1  UNL1       -0.2932
      5 H          -7.3233  -18.6619   23.5117 H       1  UNL1        0.1502
      6 C          -6.8467  -14.9054   27.7804 C.3     1  UNL1        0.1777
      7 N          -6.5698  -15.2002   26.3359 N.ar    1  UNL1       -0.1680
      8 N          -5.3223  -14.8386   25.5856 N.ar    1  UNL1       -0.1489
      9 C          -5.4734  -15.3233   24.1742 C.ar    1  UNL1        0.1472
     10 C          -6.8143  -15.9845   24.0521 C.ar    1  UNL1        0.1763
     11 N          -7.4920  -15.9084   25.3882 N.ar    1  UNL1       -0.1460
     12 C          -9.5928  -18.5839   21.1882 C.2     1  UNL1        0.2413
     13 O         -10.2617  -19.5672   20.2740 O.2     1  UNL1       -0.2733
     14 N         -10.3838  -17.4594   21.7880 N.am    1  UNL1       -0.2945
     15 H          -9.9448  -16.8140   22.3880 H       1  UNL1        0.1503
     16 C         -11.8436  -17.3181   21.4736 C.3     1  UNL1        0.1365
     17 C         -13.3297  -17.4993   21.5676 C.3     1  UNL1        0.0353
     18 C         -12.4260  -18.1973   22.5404 C.3     1  UNL1        0.0353
     19 C         -11.7682  -16.3900   20.2977 C.1     1  UNL1        0.0896
     20 N         -11.6929  -15.4618   19.1217 N.1     1  UNL1       -0.1943
     21 C          -7.2373  -19.4935   20.5767 C.3     1  UNL1        0.0553
     22 C          -5.7476  -19.3623   20.6937 C.ar    1  UNL1       -0.0190
     23 C          -5.0698  -19.6482   22.0009 C.ar    1  UNL1       -0.0010
     24 C          -3.5802  -19.5169   22.1179 C.ar    1  UNL1        0.0377
     25 C          -2.7683  -19.0997   20.9276 C.ar    1  UNL1        0.1572
     26 C          -3.4460  -18.8138   19.6203 C.ar    1  UNL1        0.0915
     27 CL         -2.6341  -18.3966   18.4301 Cl      1  UNL1       -0.0791
     28 C          -4.9356  -18.9451   19.5034 C.ar    1  UNL1        0.0103
     29 O          -1.2786  -18.9684   21.0446 O.3     1  UNL1       -0.4036
     30 C          -0.5958  -17.7212   20.5669 C.3     1  UNL1        0.5753
     31 F           0.0870  -16.4740   20.0891 F       1  UNL1       -0.1328
     32 F          -1.5218  -16.8925   21.4068 F       1  UNL1       -0.1328
     33 F           0.3302  -18.5500   19.7269 F       1  UNL1       -0.1328
@<TRIPOS>BOND
     1     6     7    1
     2     7     8   ar
     3     8     9   ar
     4     9    10   ar
     5    10     2    1
     6     2     3    2
     7     2     4   am
     8     4     1    1
     9     1    21    1
    10    21    22    1
    11    22    23   ar
    12    23    24   ar
    13    24    25   ar
    14    25    29    1
    15    29    30    1
    16    30    31    1
    17    30    32    1
    18    30    33    1
    19    25    26   ar
    20    26    27    1
    21    26    28   ar
    22     1    12    1
    23    12    13    2
    24    12    14   am
    25    14    16    1
    26    16    19    1
    27    19    20    3
    28    16    17    1
    29    17    18    1
    30    10    11   ar
    31    11     7   ar
    32    28    22   ar
    33    18    16    1
    34     4     5    1
    35    14    15    1
@<TRIPOS>MOLECULE
*****
 33 35 0 0 0
SMALL
GASTEIGER

@<TRIPOS>ATOM
      1 C          -7.3422  -18.1980   21.4048 C.3     1  UNL1        0.1532
      2 C          -4.7812  -18.3907   21.7980 C.2     1  UNL1        0.2673
      3 O          -4.9804  -18.0738   23.2506 O.2     1  UNL1       -0.2684
      4 N          -5.9621  -18.4527   20.8751 N.am    1  UNL1       -0.2932
      5 H          -5.8314  -18.6607   19.9217 H       1  UNL1        0.1502
      6 C           0.0699  -17.6374   19.8538 C.3     1  UNL1        0.1777
      7 N          -1.1714  -18.2992   20.3746 N.ar    1  UNL1       -0.1680
      8 N          -1.3837  -19.7758   20.5317 N.ar    1  UNL1       -0.1489
      9 C          -2.7618  -19.9897   21.0840 C.ar    1  UNL1        0.1472
     10 C          -3.4012  -18.6454   21.2683 C.ar    1  UNL1        0.1763
     11 N          -2.4183  -17.6005   20.8299 N.ar    1  UNL1       -0.1460
     12 C          -7.6003  -17.0113   22.2854 C.2     1  UNL1        0.2413
     13 O          -7.7860  -15.6526   21.6776 O.2     1  UNL1       -0.2733
     14 N          -7.6727  -17.1835   23.7737 N.am    1  UNL1       -0.2945
     15 H          -7.5508  -18.0752   24.1726 H       1  UNL1        0.1503
     16 C          -7.9308  -15.9969   24.6542 C.3     1  UNL1        0.1365
     17 C          -8.6736  -14.9954   25.4880 C.3     1  UNL1        0.0353
     18 C          -9.4162  -16.1178   24.8255 C.3     1  UNL1        0.0353
     19 C          -6.5353  -15.4638   24.7888 C.1     1  UNL1        0.0896
     20 N          -5.1396  -14.9308   24.9233 N.1     1  UNL1       -0.1943
     21 C          -8.4641  -19.1297   21.0540 C.3     1  UNL1        0.0553
     22 C          -9.8362  -18.8957   21.6132 C.ar    1  UNL1       -0.0190
     23 C         -10.3229  -19.7130   22.7729 C.ar    1  UNL1       -0.0010
     24 C         -11.6949  -19.4789   23.3320 C.ar    1  UNL1        0.0377
     25 C         -12.5802  -18.4274   22.7314 C.ar    1  UNL1        0.1572
     26 C         -12.0935  -17.6101   21.5717 C.ar    1  UNL1        0.0915
     27 CL        -12.9788  -16.5586   20.9712 Cl      1  UNL1       -0.0791
     28 C         -10.7215  -17.8442   21.0126 C.ar    1  UNL1        0.0103
     29 O         -13.9523  -18.1934   23.2906 O.3     1  UNL1       -0.4036
     30 C         -14.2263  -18.4585   24.7413 C.3     1  UNL1        0.5753
     31 F         -14.5003  -18.7237   26.1921 F       1  UNL1       -0.1328
     32 F         -15.6400  -18.8313   24.4062 F       1  UNL1       -0.1328
     33 F         -12.8125  -18.0857   25.0764 F       1  UNL1       -0.1328
@<TRIPOS>BOND
     1     6     7    1
     2     7     8   ar
     3     8     9   ar
     4     9    10   ar
     5    10     2    1
     6     2     3    2
     7     2     4   am
     8     4     1    1
     9     1    21    1
    10    21    22    1
    11    22    23   ar
    12    23    24   ar
    13    24    25   ar
    14    25    29    1
    15    29    30    1
    16    30    31    1
    17    30    32    1
    18    30    33    1
    19    25    26   ar
    20    26    27    1
    21    26    28   ar
    22     1    12    1
    23    12    13    2
    24    12    14   am
    25    14    16    1
    26    16    19    1
    27    19    20    3
    28    16    17    1
    29    17    18    1
    30    10    11   ar
    31    11     7   ar
    32    28    22   ar
    33    18    16    1
    34     4     5    1
    35    14    15    1
@<TRIPOS>MOLECULE
*****
 33 35 0 0 0
SMALL
GASTEIGER

@<TRIPOS>ATOM
      1 C          -6.9378  -18.9619   21.3194 C.3     1  UNL1        0.1532
      2 C          -7.4874  -16.9086   22.8134 C.2     1  UNL1        0.2673
      3 O          -7.7123  -16.0759   21.5862 O.2     1  UNL1       -0.2684
      4 N          -7.1001  -18.3516   22.6800 N.am    1  UNL1       -0.2932
      5 H          -6.9524  -18.8981   23.4855 H       1  UNL1        0.1502
      6 C          -6.4094  -14.7446   27.5076 C.3     1  UNL1        0.1777
      7 N          -7.1541  -15.3036   26.3317 N.ar    1  UNL1       -0.1680
      8 N          -8.6445  -15.4145   26.2037 N.ar    1  UNL1       -0.1489
      9 C          -8.9508  -16.0293   24.8702 C.ar    1  UNL1        0.1472
     10 C          -7.6496  -16.2982   24.1739 C.ar    1  UNL1        0.1763
     11 N          -6.5392  -15.8497   25.0772 N.ar    1  UNL1       -0.1460
     12 C          -5.5666  -19.2643   20.7918 C.2     1  UNL1        0.2413
     13 O          -5.3473  -20.4622   19.9160 O.2     1  UNL1       -0.2733
     14 N          -4.4147  -18.3688   21.1398 N.am    1  UNL1       -0.2945
     15 H          -4.5586  -17.5825   21.7146 H       1  UNL1        0.1503
     16 C          -3.0436  -18.6711   20.6121 C.3     1  UNL1        0.1365
     17 C          -1.6799  -19.2860   20.5012 C.3     1  UNL1        0.0353
     18 C          -2.5889  -19.6759   21.6289 C.3     1  UNL1        0.0353
     19 C          -3.0220  -17.7714   19.4122 C.1     1  UNL1        0.0896
     20 N          -3.0004  -16.8717   18.2121 N.1     1  UNL1       -0.1943
     21 C          -8.1467  -19.2699   20.4866 C.3     1  UNL1        0.0553
     22 C          -9.5196  -19.0115   21.0329 C.ar    1  UNL1       -0.0190
     23 C         -10.1006  -19.9302   22.0666 C.ar    1  UNL1       -0.0010
     24 C         -11.4734  -19.6717   22.6129 C.ar    1  UNL1        0.0377
     25 C         -12.2653  -18.4947   22.1255 C.ar    1  UNL1        0.1572
     26 C         -11.6843  -17.5761   21.0919 C.ar    1  UNL1        0.0915
     27 CL        -12.4761  -16.3990   20.6045 Cl      1  UNL1       -0.0791
     28 C         -10.3114  -17.8345   20.5456 C.ar    1  UNL1        0.0103
     29 O         -13.6382  -18.2363   22.6719 O.3     1  UNL1       -0.4036
     30 C         -13.8717  -18.2557   24.1534 C.3     1  UNL1        0.5753
     31 F         -14.1052  -18.2752   25.6351 F       1  UNL1       -0.1328
     32 F         -15.2977  -18.6602   23.9234 F       1  UNL1       -0.1328
     33 F         -12.4457  -17.8513   24.3835 F       1  UNL1       -0.1328
@<TRIPOS>BOND
     1     6     7    1
     2     7     8   ar
     3     8     9   ar
     4     9    10   ar
     5    10     2    1
     6     2     3    2
     7     2     4   am
     8     4     1    1
     9     1    21    1
    10    21    22    1
    11    22    23   ar
    12    23    24   ar
    13    24    25   ar
    14    25    29    1
    15    29    30    1
    16    30    31    1
    17    30    32    1
    18    30    33    1
    19    25    26   ar
    20    26    27    1
    21    26    28   ar
    22     1    12    1
    23    12    13    2
    24    12    14   am
    25    14    16    1
    26    16    19    1
    27    19    20    3
    28    16    17    1
    29    17    18    1
    30    10    11   ar
    31    11     7   ar
    32    28    22   ar
    33    18    16    1
    34     4     5    1
    35    14    15    1
@<TRIPOS>MOLECULE
*****
 33 35 0 0 0
SMALL
GASTEIGER

@<TRIPOS>ATOM
      1 C          -4.9637  -18.7205   21.4263 C.3     1  UNL1        0.1532
      2 C          -4.9439  -16.8557   23.2353 C.2     1  UNL1        0.2673
      3 O          -3.7558  -16.2247   22.5719 O.2     1  UNL1       -0.2684
      4 N          -5.5479  -18.1036   22.6625 N.am    1  UNL1       -0.2932
      5 H          -6.3278  -18.5178   23.0980 H       1  UNL1        0.1502
      6 C          -8.3781  -15.3324   26.9456 C.3     1  UNL1        0.1777
      7 N          -7.1067  -15.5386   26.1770 N.ar    1  UNL1       -0.1680
      8 N          -5.7477  -15.0404   26.5706 N.ar    1  UNL1       -0.1489
      9 C          -4.7721  -15.4732   25.5166 C.ar    1  UNL1        0.1472
     10 C          -5.5282  -16.2388   24.4715 C.ar    1  UNL1        0.1763
     11 N          -6.9711  -16.2793   24.8796 N.ar    1  UNL1       -0.1460
     12 C          -3.4955  -18.5932   21.1466 C.2     1  UNL1        0.2413
     13 O          -2.5230  -19.5269   21.8042 O.2     1  UNL1       -0.2733
     14 N          -2.9998  -17.5322   20.2093 N.am    1  UNL1       -0.2945
     15 H          -3.6381  -16.9194   19.7777 H       1  UNL1        0.1503
     16 C          -1.5316  -17.4050   19.9297 C.3     1  UNL1        0.1365
     17 C          -0.0678  -17.1727   20.1602 C.3     1  UNL1        0.0353
     18 C          -1.0342  -17.0585   21.3018 C.3     1  UNL1        0.0353
     19 C          -1.5191  -17.7072   18.4605 C.1     1  UNL1        0.0896
     20 N          -1.5067  -18.0094   16.9913 N.1     1  UNL1       -0.1943
     21 C          -5.8477  -19.4647   20.4699 C.3     1  UNL1        0.0553
     22 C          -7.3380  -19.3174   20.5564 C.ar    1  UNL1       -0.0190
     23 C          -8.1920  -19.6179   19.3604 C.ar    1  UNL1       -0.0010
     24 C          -9.6822  -19.4707   19.4470 C.ar    1  UNL1        0.0377
     25 C         -10.3184  -19.0229   20.7294 C.ar    1  UNL1        0.1572
     26 C          -9.4644  -18.7224   21.9254 C.ar    1  UNL1        0.0915
     27 CL        -10.1006  -18.2746   23.2078 Cl      1  UNL1       -0.0791
     28 C          -7.9742  -18.8696   21.8388 C.ar    1  UNL1        0.0103
     29 O         -11.8087  -18.8756   20.8159 O.3     1  UNL1       -0.4036
     30 C         -12.4191  -17.5169   20.9921 C.3     1  UNL1        0.5753
     31 F         -13.0295  -16.1580   21.1683 F       1  UNL1       -0.1328
     32 F         -11.6619  -17.0215   19.7958 F       1  UNL1       -0.1328
     33 F         -13.1763  -18.0122   22.1885 F       1  UNL1       -0.1328
@<TRIPOS>BOND
     1     6     7    1
     2     7     8   ar
     3     8     9   ar
     4     9    10   ar
     5    10     2    1
     6     2     3    2
     7     2     4   am
     8     4     1    1
     9     1    21    1
    10    21    22    1
    11    22    23   ar
    12    23    24   ar
    13    24    25   ar
    14    25    29    1
    15    29    30    1
    16    30    31    1
    17    30    32    1
    18    30    33    1
    19    25    26   ar
    20    26    27    1
    21    26    28   ar
    22     1    12    1
    23    12    13    2
    24    12    14   am
    25    14    16    1
    26    16    19    1
    27    19    20    3
    28    16    17    1
    29    17    18    1
    30    10    11   ar
    31    11     7   ar
    32    28    22   ar
    33    18    16    1
    34     4     5    1
    35    14    15    1
@<TRIPOS>MOLECULE
*****
 33 35 0 0 0
SMALL
GASTEIGER

@<TRIPOS>ATOM
      1 C           5.6073   -2.2757   26.2444 C.3     1  UNL1        0.1532
      2 C           4.2240   -0.8635   27.9303 C.2     1  UNL1        0.2673
      3 O           5.4709   -0.1431   28.3500 O.2     1  UNL1       -0.2684
      4 N           4.2921   -1.9298   26.8774 N.am    1  UNL1       -0.2932
      5 H           3.4737   -2.4026   26.6019 H       1  UNL1        0.1502
      6 C          -0.8086    0.5989   28.5753 C.3     1  UNL1        0.1777
      7 N           0.5956    0.1546   28.8598 N.ar    1  UNL1       -0.1680
      8 N           1.1743   -0.1252   30.2151 N.ar    1  UNL1       -0.1489
      9 C           2.6040   -0.5406   30.0318 C.ar    1  UNL1        0.1472
     10 C           2.9088   -0.5176   28.5633 C.ar    1  UNL1        0.1763
     11 N           1.6675   -0.0879   27.8389 N.ar    1  UNL1       -0.1460
     12 C           6.5097   -3.2835   26.8927 C.2     1  UNL1        0.2413
     13 O           7.9957   -3.0800   26.8760 O.2     1  UNL1       -0.2733
     14 N           5.9260   -4.4948   27.5576 N.am    1  UNL1       -0.2945
     15 H           4.9507   -4.6284   27.5685 H       1  UNL1        0.1503
     16 C           6.8284   -5.5025   28.2058 C.3     1  UNL1        0.1365
     17 C           7.6445   -6.1929   29.2580 C.3     1  UNL1        0.0353
     18 C           6.8933   -4.9388   29.5943 C.3     1  UNL1        0.0353
     19 C           7.0768   -6.4161   27.0424 C.1     1  UNL1        0.0896
     20 N           7.3252   -7.3298   25.8789 N.1     1  UNL1       -0.1943
     21 C           6.0201   -1.6139   24.9632 C.3     1  UNL1        0.0553
     22 C           5.4176   -2.0560   23.6626 C.ar    1  UNL1       -0.0190
     23 C           5.9545   -3.2681   22.9609 C.ar    1  UNL1       -0.0010
     24 C           5.3520   -3.7102   21.6603 C.ar    1  UNL1        0.0377
     25 C           4.2125   -2.9402   21.0615 C.ar    1  UNL1        0.1572
     26 C           3.6755   -1.7281   21.7632 C.ar    1  UNL1        0.0915
     27 CL          2.5361   -0.9580   21.1643 Cl      1  UNL1       -0.0791
     28 C           4.2781   -1.2860   23.0637 C.ar    1  UNL1        0.0103
     29 O           3.6099   -3.3823   19.7608 O.3     1  UNL1       -0.4036
     30 C           4.2010   -4.5427   19.0165 C.3     1  UNL1        0.5753
     31 F           4.7921   -5.7032   18.2721 F       1  UNL1       -0.1328
     32 F           5.0894   -3.6029   18.2567 F       1  UNL1       -0.1328
     33 F           3.3126   -5.4826   19.7764 F       1  UNL1       -0.1328
@<TRIPOS>BOND
     1     6     7    1
     2     7     8   ar
     3     8     9   ar
     4     9    10   ar
     5    10     2    1
     6     2     3    2
     7     2     4   am
     8     4     1    1
     9     1    21    1
    10    21    22    1
    11    22    23   ar
    12    23    24   ar
    13    24    25   ar
    14    25    29    1
    15    29    30    1
    16    30    31    1
    17    30    32    1
    18    30    33    1
    19    25    26   ar
    20    26    27    1
    21    26    28   ar
    22     1    12    1
    23    12    13    2
    24    12    14   am
    25    14    16    1
    26    16    19    1
    27    19    20    3
    28    16    17    1
    29    17    18    1
    30    10    11   ar
    31    11     7   ar
    32    28    22   ar
    33    18    16    1
    34     4     5    1
    35    14    15    1
@<TRIPOS>MOLECULE
*****
 33 35 0 0 0
SMALL
GASTEIGER

@<TRIPOS>ATOM
      1 C           5.8025   -2.1922   26.2730 C.3     1  UNL1        0.1532
      2 C           4.4523   -1.2549   28.2851 C.2     1  UNL1        0.2673
      3 O           5.7034   -1.2279   29.1121 O.2     1  UNL1       -0.2684
      4 N           4.5018   -1.7371   26.8655 N.am    1  UNL1       -0.2932
      5 H           3.6807   -1.7549   26.3227 H       1  UNL1        0.1502
      6 C          -0.6132    0.1417   28.8056 C.3     1  UNL1        0.1777
      7 N           0.8232   -0.1579   29.1169 N.ar    1  UNL1       -0.1680
      8 N           1.4768   -0.0411   30.4620 N.ar    1  UNL1       -0.1489
      9 C           2.9158   -0.4379   30.3141 C.ar    1  UNL1        0.1472
     10 C           3.1516   -0.7998   28.8776 C.ar    1  UNL1        0.1763
     11 N           1.8583   -0.6268   28.1376 N.ar    1  UNL1       -0.1460
     12 C           6.6495   -3.1927   27.0022 C.2     1  UNL1        0.2413
     13 O           8.1399   -3.0276   27.0404 O.2     1  UNL1       -0.2733
     14 N           6.0061   -4.3583   27.6931 N.am    1  UNL1       -0.2945
     15 H           5.0279   -4.4667   27.6680 H       1  UNL1        0.1503
     16 C           6.8531   -5.3588   28.4222 C.3     1  UNL1        0.1365
     17 C           7.7201   -6.5575   28.6700 C.3     1  UNL1        0.0353
     18 C           7.2046   -6.2772   27.2895 C.3     1  UNL1        0.0353
     19 C           6.7958   -4.7879   29.8080 C.1     1  UNL1        0.0896
     20 N           6.7386   -4.2169   31.1940 N.1     1  UNL1       -0.1943
     21 C           6.2562   -1.6469   24.9514 C.3     1  UNL1        0.0553
     22 C           5.9767   -2.4087   23.6898 C.ar    1  UNL1       -0.0190
     23 C           4.5671   -2.5537   23.1980 C.ar    1  UNL1       -0.0010
     24 C           4.2876   -3.3155   21.9364 C.ar    1  UNL1        0.0377
     25 C           5.4177   -3.9323   21.1667 C.ar    1  UNL1        0.1572
     26 C           6.8273   -3.7873   21.6586 C.ar    1  UNL1        0.0915
     27 CL          7.9575   -4.4040   20.8889 Cl      1  UNL1       -0.0791
     28 C           7.1068   -3.0255   22.9201 C.ar    1  UNL1        0.0103
     29 O           5.1382   -4.6941   19.9052 O.3     1  UNL1       -0.4036
     30 C           3.7654   -4.6671   19.3013 C.3     1  UNL1        0.5753
     31 F           2.3926   -4.6401   18.6973 F       1  UNL1       -0.1328
     32 F           4.1199   -3.4174   18.5513 F       1  UNL1       -0.1328
     33 F           3.4110   -5.9168   20.0512 F       1  UNL1       -0.1328
@<TRIPOS>BOND
     1     6     7    1
     2     7     8   ar
     3     8     9   ar
     4     9    10   ar
     5    10     2    1
     6     2     3    2
     7     2     4   am
     8     4     1    1
     9     1    21    1
    10    21    22    1
    11    22    23   ar
    12    23    24   ar
    13    24    25   ar
    14    25    29    1
    15    29    30    1
    16    30    31    1
    17    30    32    1
    18    30    33    1
    19    25    26   ar
    20    26    27    1
    21    26    28   ar
    22     1    12    1
    23    12    13    2
    24    12    14   am
    25    14    16    1
    26    16    19    1
    27    19    20    3
    28    16    17    1
    29    17    18    1
    30    10    11   ar
    31    11     7   ar
    32    28    22   ar
    33    18    16    1
    34     4     5    1
    35    14    15    1
@<TRIPOS>MOLECULE
*****
 33 35 0 0 0
SMALL
GASTEIGER

@<TRIPOS>ATOM
      1 C           3.9548   -0.8631   26.5420 C.3     1  UNL1        0.1532
      2 C           5.7429   -2.2134   27.8571 C.2     1  UNL1        0.2673
      3 O           6.6014   -0.9869   27.9492 O.2     1  UNL1       -0.2684
      4 N           4.4196   -2.1515   27.1535 N.am    1  UNL1       -0.2932
      5 H           3.8560   -2.9565   27.0930 H       1  UNL1        0.1502
      6 C           7.2498   -5.8422   31.3845 C.3     1  UNL1        0.1777
      7 N           6.9003   -5.1699   30.0899 N.ar    1  UNL1       -0.1680
      8 N           6.9452   -5.7994   28.7292 N.ar    1  UNL1       -0.1489
      9 C           6.5172   -4.7686   27.7272 C.ar    1  UNL1        0.1472
     10 C           6.2076   -3.5019   28.4686 C.ar    1  UNL1        0.1763
     11 N           6.4444   -3.7499   29.9289 N.ar    1  UNL1       -0.1460
     12 C           2.9712    0.0022   27.2728 C.2     1  UNL1        0.2413
     13 O           3.0839    1.4959   27.1954 O.2     1  UNL1       -0.2733
     14 N           1.8750   -0.6264   28.0810 N.am    1  UNL1       -0.2945
     15 H           1.8011   -1.6068   28.1318 H       1  UNL1        0.1503
     16 C           0.8915    0.2388   28.8118 C.3     1  UNL1        0.1365
     17 C          -0.3360    1.0566   29.0847 C.3     1  UNL1        0.0353
     18 C          -0.1525    0.4026   27.7473 C.3     1  UNL1        0.0353
     19 C           1.5939    0.3755   30.1300 C.1     1  UNL1        0.0896
     20 N           2.2964    0.5121   31.4484 N.1     1  UNL1       -0.1943
     21 C           4.4737   -0.4398   25.1998 C.3     1  UNL1        0.0553
     22 C           4.5994   -1.4448   24.0933 C.ar    1  UNL1       -0.0190
     23 C           3.6444   -1.4108   22.9371 C.ar    1  UNL1       -0.0010
     24 C           3.7702   -2.4157   21.8307 C.ar    1  UNL1        0.0377
     25 C           4.8510   -3.4547   21.8805 C.ar    1  UNL1        0.1572
     26 C           5.8060   -3.4887   23.0366 C.ar    1  UNL1        0.0915
     27 CL          6.8868   -4.5276   23.0864 Cl      1  UNL1       -0.0791
     28 C           5.6802   -2.4837   24.1430 C.ar    1  UNL1        0.0103
     29 O           4.9768   -4.4597   20.7740 O.3     1  UNL1       -0.4036
     30 C           3.8934   -4.5803   19.7436 C.3     1  UNL1        0.5753
     31 F           2.8100   -4.7008   18.7132 F       1  UNL1       -0.1328
     32 F           4.5754   -3.5405   18.9048 F       1  UNL1       -0.1328
     33 F           3.2113   -5.6200   20.5824 F       1  UNL1       -0.1328
@<TRIPOS>BOND
     1     6     7    1
     2     7     8   ar
     3     8     9   ar
     4     9    10   ar
     5    10     2    1
     6     2     3    2
     7     2     4   am
     8     4     1    1
     9     1    21    1
    10    21    22    1
    11    22    23   ar
    12    23    24   ar
    13    24    25   ar
    14    25    29    1
    15    29    30    1
    16    30    31    1
    17    30    32    1
    18    30    33    1
    19    25    26   ar
    20    26    27    1
    21    26    28   ar
    22     1    12    1
    23    12    13    2
    24    12    14   am
    25    14    16    1
    26    16    19    1
    27    19    20    3
    28    16    17    1
    29    17    18    1
    30    10    11   ar
    31    11     7   ar
    32    28    22   ar
    33    18    16    1
    34     4     5    1
    35    14    15    1
@<TRIPOS>MOLECULE
*****
 33 35 0 0 0
SMALL
GASTEIGER

@<TRIPOS>ATOM
      1 C           7.6482   -3.1542   23.5294 C.3     1  UNL1        0.1532
      2 C           5.1723   -2.4352   23.8505 C.2     1  UNL1        0.2673
      3 O           4.7177   -3.7511   23.2922 O.2     1  UNL1       -0.2684
      4 N           6.6375   -2.1367   23.9691 N.am    1  UNL1       -0.2932
      5 H           6.9359   -1.2730   24.3355 H       1  UNL1        0.1502
      6 C           2.3464    0.8639   26.8523 C.3     1  UNL1        0.1777
      7 N           2.8627    0.0988   25.6699 N.ar    1  UNL1       -0.1680
      8 N           2.3502    0.1974   24.2637 N.ar    1  UNL1       -0.1489
      9 C           3.1530   -0.7398   23.4110 C.ar    1  UNL1        0.1472
     10 C           4.1616   -1.4177   24.2902 C.ar    1  UNL1        0.1763
     11 N           3.9823   -0.8994   25.6864 N.ar    1  UNL1       -0.1460
     12 C           8.0294   -4.2779   24.4472 C.2     1  UNL1        0.2413
     13 O           9.3383   -4.2375   25.1786 O.2     1  UNL1       -0.2733
     14 N           7.1017   -5.4417   24.6334 N.am    1  UNL1       -0.2945
     15 H           6.2426   -5.4682   24.1533 H       1  UNL1        0.1503
     16 C           7.4829   -6.5652   25.5511 C.3     1  UNL1        0.1365
     17 C           8.0653   -7.8650   26.0218 C.3     1  UNL1        0.0353
     18 C           8.1945   -7.4627   24.5825 C.3     1  UNL1        0.0353
     19 C           6.9038   -6.0580   26.8385 C.1     1  UNL1        0.0896
     20 N           6.3246   -5.5508   28.1259 N.1     1  UNL1       -0.1943
     21 C           8.2776   -3.0481   22.1720 C.3     1  UNL1        0.0553
     22 C           7.4226   -2.7897   20.9669 C.ar    1  UNL1       -0.0190
     23 C           7.5021   -1.4691   20.2601 C.ar    1  UNL1       -0.0010
     24 C           6.6471   -1.2107   19.0551 C.ar    1  UNL1        0.0377
     25 C           5.7125   -2.2730   18.5568 C.ar    1  UNL1        0.1572
     26 C           5.6330   -3.5936   19.2636 C.ar    1  UNL1        0.0915
     27 CL          4.6985   -4.6558   18.7654 Cl      1  UNL1       -0.0791
     28 C           6.4880   -3.8519   20.4686 C.ar    1  UNL1        0.0103
     29 O           4.8575   -2.0145   17.3517 O.3     1  UNL1       -0.4036
     30 C           3.8154   -0.9363   17.3888 C.3     1  UNL1        0.5753
     31 F           2.7733    0.1420   17.4259 F       1  UNL1       -0.1328
     32 F           3.2029   -1.5699   18.6025 F       1  UNL1       -0.1328
     33 F           4.4279   -0.3026   16.1750 F       1  UNL1       -0.1328
@<TRIPOS>BOND
     1     6     7    1
     2     7     8   ar
     3     8     9   ar
     4     9    10   ar
     5    10     2    1
     6     2     3    2
     7     2     4   am
     8     4     1    1
     9     1    21    1
    10    21    22    1
    11    22    23   ar
    12    23    24   ar
    13    24    25   ar
    14    25    29    1
    15    29    30    1
    16    30    31    1
    17    30    32    1
    18    30    33    1
    19    25    26   ar
    20    26    27    1
    21    26    28   ar
    22     1    12    1
    23    12    13    2
    24    12    14   am
    25    14    16    1
    26    16    19    1
    27    19    20    3
    28    16    17    1
    29    17    18    1
    30    10    11   ar
    31    11     7   ar
    32    28    22   ar
    33    18    16    1
    34     4     5    1
    35    14    15    1
@<TRIPOS>MOLECULE
*****
 33 35 0 0 0
SMALL
GASTEIGER

@<TRIPOS>ATOM
      1 C           0.5588    2.1202   21.3487 C.3     1  UNL1        0.1532
      2 C          -1.6498    3.4492   21.0235 C.2     1  UNL1        0.2673
      3 O          -0.8896    4.7380   21.1274 O.2     1  UNL1       -0.2684
      4 N          -0.9256    2.1402   21.1341 N.am    1  UNL1       -0.2932
      5 H          -1.4246    1.2943   21.0659 H       1  UNL1        0.1502
      6 C          -6.3859    3.5375   18.6905 C.3     1  UNL1        0.1777
      7 N          -5.3112    3.5098   19.7366 N.ar    1  UNL1       -0.1680
      8 N          -5.5260    3.4902   21.2210 N.ar    1  UNL1       -0.1489
      9 C          -4.1806    3.4651   21.8837 C.ar    1  UNL1        0.1472
     10 C          -3.1343    3.4692   20.8089 C.ar    1  UNL1        0.1763
     11 N          -3.8331    3.4968   19.4819 N.ar    1  UNL1       -0.1460
     12 C           1.1160    2.1580   22.7409 C.2     1  UNL1        0.2413
     13 O           2.0924    3.2285   23.1291 O.2     1  UNL1       -0.2733
     14 N           0.6968    1.1253   23.7448 N.am    1  UNL1       -0.2945
     15 H           0.0559    0.4227   23.4900 H       1  UNL1        0.1503
     16 C           1.2539    1.1632   25.1369 C.3     1  UNL1        0.1365
     17 C           1.3675    1.4641   26.6020 C.3     1  UNL1        0.0353
     18 C           0.1700    1.9341   25.8304 C.3     1  UNL1        0.0353
     19 C           2.5313    0.4054   24.9270 C.1     1  UNL1        0.0896
     20 N           3.8087   -0.3524   24.7170 N.1     1  UNL1       -0.1943
     21 C           1.4861    2.0624   20.1711 C.3     1  UNL1        0.0553
     22 C           2.1563    0.7708   19.8069 C.ar    1  UNL1       -0.0190
     23 C           2.2898   -0.3192   20.8287 C.ar    1  UNL1       -0.0010
     24 C           2.9600   -1.6107   20.4645 C.ar    1  UNL1        0.0377
     25 C           3.4968   -1.8123   19.0784 C.ar    1  UNL1        0.1572
     26 C           3.3634   -0.7224   18.0566 C.ar    1  UNL1        0.0915
     27 CL          3.9002   -0.9240   16.6705 Cl      1  UNL1       -0.0791
     28 C           2.6931    0.5691   18.4208 C.ar    1  UNL1        0.0103
     29 O           4.1670   -3.1039   18.7142 O.3     1  UNL1       -0.4036
     30 C           3.7950   -4.3694   19.4285 C.3     1  UNL1        0.5753
     31 F           3.4229   -5.6349   20.1427 F       1  UNL1       -0.1328
     32 F           2.5131   -4.4308   18.6520 F       1  UNL1       -0.1328
     33 F           5.0769   -4.3080   20.2049 F       1  UNL1       -0.1328
@<TRIPOS>BOND
     1     6     7    1
     2     7     8   ar
     3     8     9   ar
     4     9    10   ar
     5    10     2    1
     6     2     3    2
     7     2     4   am
     8     4     1    1
     9     1    21    1
    10    21    22    1
    11    22    23   ar
    12    23    24   ar
    13    24    25   ar
    14    25    29    1
    15    29    30    1
    16    30    31    1
    17    30    32    1
    18    30    33    1
    19    25    26   ar
    20    26    27    1
    21    26    28   ar
    22     1    12    1
    23    12    13    2
    24    12    14   am
    25    14    16    1
    26    16    19    1
    27    19    20    3
    28    16    17    1
    29    17    18    1
    30    10    11   ar
    31    11     7   ar
    32    28    22   ar
    33    18    16    1
    34     4     5    1
    35    14    15    1
