@<TRIPOS>MOLECULE
*****
 34 37 0 0 0
SMALL
GASTEIGER

@<TRIPOS>ATOM
      1 N           3.3950    0.3841   22.0785 N.am    1  UNL1       -0.2533
      2 C           2.0453    0.8881   22.4955 C.2     1  UNL1        0.3092
      3 O           0.8197    0.4603   21.7438 O.2     1  UNL1       -0.2521
      4 N           1.9209    1.8199   23.6644 N.am    1  UNL1       -0.2680
      5 H           4.1993    0.6649   22.5719 H       1  UNL1        0.1578
      6 H           2.7252    2.1007   24.1578 H       1  UNL1        0.1564
      7 C           0.5710    2.3239   24.0815 C.ar    1  UNL1        0.0517
      8 C          -0.1766    3.2817   23.2019 C.ar    1  UNL1        0.0162
      9 C          -1.5264    3.7857   23.6189 C.ar    1  UNL1        0.0188
     10 C          -2.1287    3.3319   24.9155 C.ar    1  UNL1        0.0656
     11 C          -1.3811    2.3741   25.7951 C.ar    1  UNL1        0.0188
     12 C          -0.0313    1.8701   25.3781 C.ar    1  UNL1        0.0162
     13 N          -3.4785    3.8358   25.3326 N.ar    1  UNL1       -0.2868
     14 C          -3.9465    4.0395   26.7431 C.ar    1  UNL1        0.1825
     15 N          -5.3545    4.5542   26.6946 N.ar    1  UNL1       -0.2280
     16 C          -5.7569    4.6686   25.2542 C.ar    1  UNL1        0.0786
     17 C          -7.0854    5.1436   24.7448 C.3     1  UNL1        0.0538
     18 C          -4.5974    4.2247   24.4123 C.ar    1  UNL1        0.0962
     19 N           3.1697   -0.2284   19.4863 N.ar    1  UNL1       -0.2162
     20 N           3.4495   -1.4458   18.6559 N.ar    1  UNL1       -0.1683
     21 C           3.9722   -2.5176   19.5660 C.ar    1  UNL1        0.0810
     22 C           4.0153   -1.9626   20.9588 C.ar    1  UNL1        0.0509
     23 C           3.5194   -0.5478   20.9096 C.ar    1  UNL1        0.1380
     24 C           1.0278    5.0006   17.4690 C.3     1  UNL1        0.0310
     25 C           1.5633    3.6934   17.9733 C.ar    1  UNL1       -0.0218
     26 C           0.6418    2.5227   18.1480 C.ar    1  UNL1       -0.0027
     27 C           1.1773    1.2155   18.6524 C.ar    1  UNL1        0.0189
     28 C           2.6342    1.0789   18.9820 C.ar    1  UNL1        0.0842
     29 C           3.5556    2.2495   18.8073 C.ar    1  UNL1        0.0189
     30 C           3.0202    3.5567   18.3029 C.ar    1  UNL1       -0.0027
     31 C           4.3800   -3.9014   19.1553 C.3     1  UNL1        0.0372
     32 C           5.8234   -3.5081   19.2635 C.3     1  UNL1        0.0060
     33 C           2.9365   -4.2947   19.0470 C.3     1  UNL1        0.0060
     34 C           4.7878   -5.2852   18.7445 C.3     1  UNL1        0.0060
@<TRIPOS>BOND
     1    24    25    1
     2    25    26   ar
     3    26    27   ar
     4    27    28   ar
     5    28    19    1
     6    19    20   ar
     7    20    21   ar
     8    21    31    1
     9    31    32    1
    10    31    33    1
    11    31    34    1
    12    21    22   ar
    13    22    23   ar
    14    23     1    1
    15     1     2   am
    16     2     3    2
    17     2     4   am
    18     4     7    1
    19     7     8   ar
    20     8     9   ar
    21     9    10   ar
    22    10    13    1
    23    13    14   ar
    24    14    15   ar
    25    15    16   ar
    26    16    17    1
    27    16    18   ar
    28    10    11   ar
    29    11    12   ar
    30    28    29   ar
    31    29    30   ar
    32    30    25   ar
    33    23    19   ar
    34    12     7   ar
    35    18    13   ar
    36     1     5    1
    37     4     6    1
@<TRIPOS>MOLECULE
*****
 34 37 0 0 0
SMALL
GASTEIGER

@<TRIPOS>ATOM
      1 N          -0.8003    4.3428   22.7386 N.am    1  UNL1       -0.2533
      2 C          -0.0965    3.1574   22.1475 C.2     1  UNL1        0.3092
      3 O          -0.7481    1.8066   22.1772 O.2     1  UNL1       -0.2521
      4 N           1.2590    3.3227   21.5268 N.am    1  UNL1       -0.2680
      5 H          -0.3726    5.2293   22.7192 H       1  UNL1        0.1578
      6 H           1.6867    4.2092   21.5073 H       1  UNL1        0.1564
      7 C           1.9628    2.1373   20.9356 C.ar    1  UNL1        0.0517
      8 C           2.6883    1.1741   21.8278 C.ar    1  UNL1        0.0162
      9 C           3.3921   -0.0113   21.2367 C.ar    1  UNL1        0.0188
     10 C           3.3705   -0.2336   19.7535 C.ar    1  UNL1        0.0656
     11 C           2.6449    0.7295   18.8613 C.ar    1  UNL1        0.0188
     12 C           1.9411    1.9149   19.4524 C.ar    1  UNL1        0.0162
     13 N           4.0743   -1.4190   19.1623 N.ar    1  UNL1       -0.2868
     14 C           5.1852   -1.3731   18.1555 C.ar    1  UNL1        0.1825
     15 N           5.5882   -2.7842   17.8452 N.ar    1  UNL1       -0.2280
     16 C           4.7264   -3.7023   18.6602 C.ar    1  UNL1        0.0786
     17 C           4.7892   -5.2010   18.6611 C.3     1  UNL1        0.0538
     18 C           3.7907   -2.8586   19.4743 C.ar    1  UNL1        0.0962
     19 N          -2.4346    3.7027   24.7547 N.ar    1  UNL1       -0.2162
     20 N          -3.9215    3.6898   24.9515 N.ar    1  UNL1       -0.1683
     21 C          -4.5618    4.1566   23.6778 C.ar    1  UNL1        0.0810
     22 C          -3.4705    4.4580   22.6938 C.ar    1  UNL1        0.0509
     23 C          -2.1558    4.1775   23.3594 C.ar    1  UNL1        0.1380
     24 C           1.6764    2.1312   28.8328 C.3     1  UNL1        0.0310
     25 C           0.6486    2.5241   27.8133 C.ar    1  UNL1       -0.0218
     26 C           0.2843    1.5742   26.7111 C.ar    1  UNL1       -0.0027
     27 C          -0.7435    1.9671   25.6915 C.ar    1  UNL1        0.0189
     28 C          -1.4068    3.3098   25.7742 C.ar    1  UNL1        0.0842
     29 C          -1.0425    4.2597   26.8764 C.ar    1  UNL1        0.0189
     30 C          -0.0147    3.8668   27.8959 C.ar    1  UNL1       -0.0027
     31 C          -6.0347    4.2972   23.4314 C.3     1  UNL1        0.0372
     32 C          -6.2398    4.6695   24.8699 C.3     1  UNL1        0.0060
     33 C          -5.8296    3.9249   21.9929 C.3     1  UNL1        0.0060
     34 C          -7.5076    4.4379   23.1850 C.3     1  UNL1        0.0060
@<TRIPOS>BOND
     1    24    25    1
     2    25    26   ar
     3    26    27   ar
     4    27    28   ar
     5    28    19    1
     6    19    20   ar
     7    20    21   ar
     8    21    31    1
     9    31    32    1
    10    31    33    1
    11    31    34    1
    12    21    22   ar
    13    22    23   ar
    14    23     1    1
    15     1     2   am
    16     2     3    2
    17     2     4   am
    18     4     7    1
    19     7     8   ar
    20     8     9   ar
    21     9    10   ar
    22    10    13    1
    23    13    14   ar
    24    14    15   ar
    25    15    16   ar
    26    16    17    1
    27    16    18   ar
    28    10    11   ar
    29    11    12   ar
    30    28    29   ar
    31    29    30   ar
    32    30    25   ar
    33    23    19   ar
    34    12     7   ar
    35    18    13   ar
    36     1     5    1
    37     4     6    1
@<TRIPOS>MOLECULE
*****
 34 37 0 0 0
SMALL
GASTEIGER

@<TRIPOS>ATOM
      1 N           0.3687    3.7591   24.8732 N.am    1  UNL1       -0.2533
      2 C           0.8548    2.6707   23.9628 C.2     1  UNL1        0.3092
      3 O          -0.0514    1.5292   23.6078 O.2     1  UNL1       -0.2521
      4 N           2.2471    2.7236   23.4072 N.am    1  UNL1       -0.2680
      5 H           0.9635    4.5083   25.1061 H       1  UNL1        0.1578
      6 H           2.8419    3.4728   23.6401 H       1  UNL1        0.1564
      7 C           2.7332    1.6351   22.4967 C.ar    1  UNL1        0.0517
      8 C           3.1682    0.3181   23.0679 C.ar    1  UNL1        0.0162
      9 C           3.6543   -0.7704   22.1574 C.ar    1  UNL1        0.0188
     10 C           3.7054   -0.5419   20.6759 C.ar    1  UNL1        0.0656
     11 C           3.2704    0.7751   20.1047 C.ar    1  UNL1        0.0188
     12 C           2.7843    1.8636   21.0151 C.ar    1  UNL1        0.0162
     13 N           4.1914   -1.6304   19.7654 N.ar    1  UNL1       -0.2868
     14 C           4.9768   -1.4380   18.5020 C.ar    1  UNL1        0.1825
     15 N           5.2482   -2.7911   17.9143 N.ar    1  UNL1       -0.2280
     16 C           4.6306   -3.8198   18.8145 C.ar    1  UNL1        0.0786
     17 C           4.6608   -5.3051   18.6070 C.3     1  UNL1        0.0538
     18 C           3.9775   -3.1025   19.9586 C.ar    1  UNL1        0.0962
     19 N          -1.4460    3.0009   26.6833 N.ar    1  UNL1       -0.2162
     20 N          -2.9214    3.2081   26.8572 N.ar    1  UNL1       -0.1683
     21 C          -3.4108    4.0416   25.7101 C.ar    1  UNL1        0.0810
     22 C          -2.2379    4.3495   24.8273 C.ar    1  UNL1        0.0509
     23 C          -1.0236    3.7062   25.4288 C.ar    1  UNL1        0.1380
     24 C           2.1367   -0.1046   30.3604 C.3     1  UNL1        0.0310
     25 C           1.2410    0.6718   29.4411 C.ar    1  UNL1       -0.0218
     26 C           1.4722    2.1389   29.2310 C.ar    1  UNL1       -0.0027
     27 C           0.5765    2.9152   28.3117 C.ar    1  UNL1        0.0189
     28 C          -0.5504    2.2245   27.6026 C.ar    1  UNL1        0.0842
     29 C          -0.7816    0.7574   27.8127 C.ar    1  UNL1        0.0189
     30 C           0.1141   -0.0189   28.7320 C.ar    1  UNL1       -0.0027
     31 C          -4.8249    4.4887   25.4854 C.3     1  UNL1        0.0372
     32 C          -4.8168    3.8356   24.1351 C.3     1  UNL1        0.0060
     33 C          -4.8330    5.1419   26.8357 C.3     1  UNL1        0.0060
     34 C          -6.2389    4.9359   25.2606 C.3     1  UNL1        0.0060
@<TRIPOS>BOND
     1    24    25    1
     2    25    26   ar
     3    26    27   ar
     4    27    28   ar
     5    28    19    1
     6    19    20   ar
     7    20    21   ar
     8    21    31    1
     9    31    32    1
    10    31    33    1
    11    31    34    1
    12    21    22   ar
    13    22    23   ar
    14    23     1    1
    15     1     2   am
    16     2     3    2
    17     2     4   am
    18     4     7    1
    19     7     8   ar
    20     8     9   ar
    21     9    10   ar
    22    10    13    1
    23    13    14   ar
    24    14    15   ar
    25    15    16   ar
    26    16    17    1
    27    16    18   ar
    28    10    11   ar
    29    11    12   ar
    30    28    29   ar
    31    29    30   ar
    32    30    25   ar
    33    23    19   ar
    34    12     7   ar
    35    18    13   ar
    36     1     5    1
    37     4     6    1
@<TRIPOS>MOLECULE
*****
 34 37 0 0 0
SMALL
GASTEIGER

@<TRIPOS>ATOM
      1 N           4.5804    1.2481   28.4826 N.am    1  UNL1       -0.2533
      2 C           4.3725    0.4172   27.2513 C.2     1  UNL1        0.3092
      3 O           3.5764   -0.8518   27.3284 O.2     1  UNL1       -0.2521
      4 N           4.9605    0.8553   25.9427 N.am    1  UNL1       -0.2680
      5 H           5.1029    2.0809   28.4320 H       1  UNL1        0.1578
      6 H           5.4830    1.6882   25.8921 H       1  UNL1        0.1564
      7 C           4.7525    0.0244   24.7113 C.ar    1  UNL1        0.0517
      8 C           5.8667   -0.8326   24.1878 C.ar    1  UNL1        0.0162
      9 C           5.6587   -1.6635   22.9564 C.ar    1  UNL1        0.0188
     10 C           4.3365   -1.6375   22.2485 C.ar    1  UNL1        0.0656
     11 C           3.2223   -0.7805   22.7721 C.ar    1  UNL1        0.0188
     12 C           3.4303    0.0504   24.0035 C.ar    1  UNL1        0.0162
     13 N           4.1285   -2.4684   21.0172 N.ar    1  UNL1       -0.2868
     14 C           3.2252   -2.1310   19.8681 C.ar    1  UNL1        0.1825
     15 N           3.3257   -3.2367   18.8594 N.ar    1  UNL1       -0.2280
     16 C           4.2910   -4.2574   19.3851 C.ar    1  UNL1        0.0786
     17 C           4.6902   -5.5295   18.6978 C.3     1  UNL1        0.0538
     18 C           4.7872   -3.7825   20.7187 C.ar    1  UNL1        0.0962
     19 N           2.5408    0.8591   30.1660 N.ar    1  UNL1       -0.2162
     20 N           2.4041    0.3253   31.5611 N.ar    1  UNL1       -0.1683
     21 C           3.7711   -0.0536   32.0486 C.ar    1  UNL1        0.0810
     22 C           4.7528    0.2459   30.9547 C.ar    1  UNL1        0.0509
     23 C           3.9924    0.8100   29.7912 C.ar    1  UNL1        0.1380
     24 C          -1.9329    2.8423   26.6943 C.3     1  UNL1        0.0310
     25 C          -0.8145    2.3465   27.5623 C.ar    1  UNL1       -0.0218
     26 C           0.2006    3.3105   28.1010 C.ar    1  UNL1       -0.0027
     27 C           1.3191    2.8146   28.9689 C.ar    1  UNL1        0.0189
     28 C           1.4224    1.3549   29.2981 C.ar    1  UNL1        0.0842
     29 C           0.4072    0.3910   28.7594 C.ar    1  UNL1        0.0189
     30 C          -0.7112    0.8868   27.8915 C.ar    1  UNL1       -0.0027
     31 C           4.0989   -0.6308   33.3937 C.3     1  UNL1        0.0372
     32 C           3.8960    0.7164   34.0212 C.3     1  UNL1        0.0060
     33 C           4.3018   -1.9780   32.7662 C.3     1  UNL1        0.0060
     34 C           4.4267   -1.2080   34.7389 C.3     1  UNL1        0.0060
@<TRIPOS>BOND
     1    24    25    1
     2    25    26   ar
     3    26    27   ar
     4    27    28   ar
     5    28    19    1
     6    19    20   ar
     7    20    21   ar
     8    21    31    1
     9    31    32    1
    10    31    33    1
    11    31    34    1
    12    21    22   ar
    13    22    23   ar
    14    23     1    1
    15     1     2   am
    16     2     3    2
    17     2     4   am
    18     4     7    1
    19     7     8   ar
    20     8     9   ar
    21     9    10   ar
    22    10    13    1
    23    13    14   ar
    24    14    15   ar
    25    15    16   ar
    26    16    17    1
    27    16    18   ar
    28    10    11   ar
    29    11    12   ar
    30    28    29   ar
    31    29    30   ar
    32    30    25   ar
    33    23    19   ar
    34    12     7   ar
    35    18    13   ar
    36     1     5    1
    37     4     6    1
@<TRIPOS>MOLECULE
*****
 34 37 0 0 0
SMALL
GASTEIGER

@<TRIPOS>ATOM
      1 N           2.2849    1.8756   22.3515 N.am    1  UNL1       -0.2533
      2 C           0.8193    2.1857   22.4262 C.2     1  UNL1        0.3092
      3 O          -0.1546    1.4121   21.5876 O.2     1  UNL1       -0.2521
      4 N           0.3274    3.2692   23.3395 N.am    1  UNL1       -0.2680
      5 H           2.9241    2.3833   22.9019 H       1  UNL1        0.1578
      6 H           0.9665    3.7769   23.8899 H       1  UNL1        0.1564
      7 C          -1.1383    3.5792   23.4141 C.ar    1  UNL1        0.0517
      8 C          -1.8212    4.2568   22.2632 C.ar    1  UNL1        0.0162
      9 C          -3.2869    4.5667   22.3378 C.ar    1  UNL1        0.0188
     10 C          -4.0698    4.1992   23.5633 C.ar    1  UNL1        0.0656
     11 C          -3.3870    3.5216   24.7142 C.ar    1  UNL1        0.0188
     12 C          -1.9213    3.2116   24.6396 C.ar    1  UNL1        0.0162
     13 N          -5.5355    4.5091   23.6379 N.ar    1  UNL1       -0.2868
     14 C          -6.5794    4.0775   22.6509 C.ar    1  UNL1        0.1825
     15 N          -7.9037    4.6068   23.1156 N.ar    1  UNL1       -0.2280
     16 C          -7.6784    5.3655   24.3898 C.ar    1  UNL1        0.0786
     17 C          -8.7317    6.0623   25.1991 C.3     1  UNL1        0.0538
     18 C          -6.2147    5.3052   24.7126 C.ar    1  UNL1        0.0962
     19 N           3.0750    0.9397   19.9757 N.ar    1  UNL1       -0.2162
     20 N           3.5394   -0.3904   19.4608 N.ar    1  UNL1       -0.1683
     21 C           3.5282   -1.3601   20.6052 C.ar    1  UNL1        0.0810
     22 C           3.0569   -0.6292   21.8274 C.ar    1  UNL1        0.0509
     23 C           2.7768    0.7921   21.4383 C.ar    1  UNL1        0.1380
     24 C           2.5094    5.9676   16.7508 C.3     1  UNL1        0.0310
     25 C           2.6508    4.7107   17.5570 C.ar    1  UNL1       -0.0218
     26 C           4.0137    4.1565   17.8494 C.ar    1  UNL1       -0.0027
     27 C           4.1551    2.8995   18.6557 C.ar    1  UNL1        0.0189
     28 C           2.9336    2.1967   19.1694 C.ar    1  UNL1        0.0842
     29 C           1.5708    2.7508   18.8770 C.ar    1  UNL1        0.0189
     30 C           1.4294    4.0078   18.0708 C.ar    1  UNL1       -0.0027
     31 C           3.9196   -2.8066   20.5391 C.3     1  UNL1        0.0372
     32 C           3.5638   -2.8362   19.0822 C.3     1  UNL1        0.0060
     33 C           4.2755   -2.7769   21.9960 C.3     1  UNL1        0.0060
     34 C           4.3110   -4.2531   20.4729 C.3     1  UNL1        0.0060
@<TRIPOS>BOND
     1    24    25    1
     2    25    26   ar
     3    26    27   ar
     4    27    28   ar
     5    28    19    1
     6    19    20   ar
     7    20    21   ar
     8    21    31    1
     9    31    32    1
    10    31    33    1
    11    31    34    1
    12    21    22   ar
    13    22    23   ar
    14    23     1    1
    15     1     2   am
    16     2     3    2
    17     2     4   am
    18     4     7    1
    19     7     8   ar
    20     8     9   ar
    21     9    10   ar
    22    10    13    1
    23    13    14   ar
    24    14    15   ar
    25    15    16   ar
    26    16    17    1
    27    16    18   ar
    28    10    11   ar
    29    11    12   ar
    30    28    29   ar
    31    29    30   ar
    32    30    25   ar
    33    23    19   ar
    34    12     7   ar
    35    18    13   ar
    36     1     5    1
    37     4     6    1
@<TRIPOS>MOLECULE
*****
 34 37 0 0 0
SMALL
GASTEIGER

@<TRIPOS>ATOM
      1 N           2.4302    1.5055   20.9105 N.am    1  UNL1       -0.2533
      2 C           1.0042    1.7837   20.5377 C.2     1  UNL1        0.3092
      3 O           0.0348    0.6497   20.3817 O.2     1  UNL1       -0.2521
      4 N           0.5475    3.1959   20.3210 N.am    1  UNL1       -0.2680
      5 H           3.0664    2.2498   21.0130 H       1  UNL1        0.1578
      6 H           1.1837    3.9403   20.4234 H       1  UNL1        0.1564
      7 C          -0.8786    3.4741   19.9482 C.ar    1  UNL1        0.0517
      8 C          -1.9724    3.2548   20.9509 C.ar    1  UNL1        0.0162
      9 C          -3.3984    3.5330   20.5781 C.ar    1  UNL1        0.0188
     10 C          -3.7307    4.0305   19.2026 C.ar    1  UNL1        0.0656
     11 C          -2.6369    4.2498   18.1999 C.ar    1  UNL1        0.0188
     12 C          -1.2109    3.9716   18.5727 C.ar    1  UNL1        0.0162
     13 N          -5.1568    4.3087   18.8298 N.ar    1  UNL1       -0.2868
     14 C          -6.2964    3.3371   18.9164 C.ar    1  UNL1        0.1825
     15 N          -7.5375    4.0352   18.4451 N.ar    1  UNL1       -0.2280
     16 C          -7.1650    5.4383   18.0672 C.ar    1  UNL1        0.0786
     17 C          -8.0998    6.4880   17.5435 C.3     1  UNL1        0.0538
     18 C          -5.6936    5.6073   18.3050 C.ar    1  UNL1        0.0962
     19 N           2.9680   -0.6144   22.4474 N.ar    1  UNL1       -0.2162
     20 N           3.4740   -2.0043   22.1979 N.ar    1  UNL1       -0.1683
     21 C           3.7057   -2.1556   20.7236 C.ar    1  UNL1        0.0810
     22 C           3.3428   -0.8593   20.0619 C.ar    1  UNL1        0.0509
     23 C           2.8870    0.0932   21.1273 C.ar    1  UNL1        0.1380
     24 C           1.5222    1.7069   27.7879 C.3     1  UNL1        0.0310
     25 C           1.8837    1.1265   26.4528 C.ar    1  UNL1       -0.0218
     26 C           0.9489    1.2810   25.2900 C.ar    1  UNL1       -0.0027
     27 C           1.3103    0.7006   23.9548 C.ar    1  UNL1        0.0189
     28 C           2.6066   -0.0341   23.7825 C.ar    1  UNL1        0.0842
     29 C           3.5414   -0.1885   24.9453 C.ar    1  UNL1        0.0189
     30 C           3.1800    0.3918   26.2805 C.ar    1  UNL1       -0.0027
     31 C           4.2113   -3.3871   20.0324 C.3     1  UNL1        0.0372
     32 C           4.5043   -4.0138   21.3634 C.3     1  UNL1        0.0060
     33 C           3.9184   -2.7604   18.7015 C.3     1  UNL1        0.0060
     34 C           4.7170   -4.6186   19.3412 C.3     1  UNL1        0.0060
@<TRIPOS>BOND
     1    24    25    1
     2    25    26   ar
     3    26    27   ar
     4    27    28   ar
     5    28    19    1
     6    19    20   ar
     7    20    21   ar
     8    21    31    1
     9    31    32    1
    10    31    33    1
    11    31    34    1
    12    21    22   ar
    13    22    23   ar
    14    23     1    1
    15     1     2   am
    16     2     3    2
    17     2     4   am
    18     4     7    1
    19     7     8   ar
    20     8     9   ar
    21     9    10   ar
    22    10    13    1
    23    13    14   ar
    24    14    15   ar
    25    15    16   ar
    26    16    17    1
    27    16    18   ar
    28    10    11   ar
    29    11    12   ar
    30    28    29   ar
    31    29    30   ar
    32    30    25   ar
    33    23    19   ar
    34    12     7   ar
    35    18    13   ar
    36     1     5    1
    37     4     6    1
@<TRIPOS>MOLECULE
*****
 34 37 0 0 0
SMALL
GASTEIGER

@<TRIPOS>ATOM
      1 N           5.1693    1.0079   21.2115 N.am    1  UNL1       -0.2533
      2 C           4.7109    0.7551   22.6172 C.2     1  UNL1        0.3092
      3 O           3.2541    0.8549   22.9605 O.2     1  UNL1       -0.2521
      4 N           5.7093    0.4024   23.6797 N.am    1  UNL1       -0.2680
      5 H           6.1254    0.9423   20.9863 H       1  UNL1        0.1578
      6 H           6.6654    0.3368   23.4544 H       1  UNL1        0.1564
      7 C           5.2508    0.1496   25.0854 C.ar    1  UNL1        0.0517
      8 C           5.6365    1.0976   26.1820 C.ar    1  UNL1        0.0162
      9 C           5.1780    0.8448   27.5876 C.ar    1  UNL1        0.0188
     10 C           4.3340   -0.3559   27.8968 C.ar    1  UNL1        0.0656
     11 C           3.9483   -1.3040   26.8002 C.ar    1  UNL1        0.0188
     12 C           4.4068   -1.0512   25.3945 C.ar    1  UNL1        0.0162
     13 N           3.8755   -0.6087   29.3024 N.ar    1  UNL1       -0.2868
     14 C           2.4564   -0.5720   29.7871 C.ar    1  UNL1        0.1825
     15 N           2.4596   -0.8832   31.2544 N.ar    1  UNL1       -0.2280
     16 C           3.8805   -1.1123   31.6767 C.ar    1  UNL1        0.0786
     17 C           4.3449   -1.4515   33.0621 C.3     1  UNL1        0.0538
     18 C           4.7557   -0.9427   30.4702 C.ar    1  UNL1        0.0962
     19 N           3.5800    0.4150   19.1457 N.ar    1  UNL1       -0.2162
     20 N           2.6321    1.1908   18.2799 N.ar    1  UNL1       -0.1683
     21 C           2.6372    2.6158   18.7482 C.ar    1  UNL1        0.0810
     22 C           3.5882    2.7208   19.9034 C.ar    1  UNL1        0.0509
     23 C           4.1709    1.3606   20.1490 C.ar    1  UNL1        0.1380
     24 C           4.7947   -5.4421   18.6775 C.3     1  UNL1        0.0310
     25 C           4.4911   -3.9778   18.7946 C.ar    1  UNL1       -0.0218
     26 C           3.3123   -3.5184   19.6003 C.ar    1  UNL1       -0.0027
     27 C           3.0086   -2.0541   19.7174 C.ar    1  UNL1        0.0189
     28 C           3.8837   -1.0493   19.0286 C.ar    1  UNL1        0.0842
     29 C           5.0625   -1.5087   18.2229 C.ar    1  UNL1        0.0189
     30 C           5.3662   -2.9730   18.1059 C.ar    1  UNL1       -0.0027
     31 C           1.8324    3.7388   18.1638 C.3     1  UNL1        0.0372
     32 C           0.5818    2.9265   18.3251 C.3     1  UNL1        0.0060
     33 C           3.0831    4.5511   18.0025 C.3     1  UNL1        0.0060
     34 C           1.0277    4.8617   17.5795 C.3     1  UNL1        0.0060
@<TRIPOS>BOND
     1    24    25    1
     2    25    26   ar
     3    26    27   ar
     4    27    28   ar
     5    28    19    1
     6    19    20   ar
     7    20    21   ar
     8    21    31    1
     9    31    32    1
    10    31    33    1
    11    31    34    1
    12    21    22   ar
    13    22    23   ar
    14    23     1    1
    15     1     2   am
    16     2     3    2
    17     2     4   am
    18     4     7    1
    19     7     8   ar
    20     8     9   ar
    21     9    10   ar
    22    10    13    1
    23    13    14   ar
    24    14    15   ar
    25    15    16   ar
    26    16    17    1
    27    16    18   ar
    28    10    11   ar
    29    11    12   ar
    30    28    29   ar
    31    29    30   ar
    32    30    25   ar
    33    23    19   ar
    34    12     7   ar
    35    18    13   ar
    36     1     5    1
    37     4     6    1
@<TRIPOS>MOLECULE
*****
 34 37 0 0 0
SMALL
GASTEIGER

@<TRIPOS>ATOM
      1 N           2.6495    1.0982   20.0359 N.am    1  UNL1       -0.2533
      2 C           1.2297    1.4304   20.3876 C.2     1  UNL1        0.3092
      3 O           0.3515    0.3927   21.0216 O.2     1  UNL1       -0.2521
      4 N           0.6880    2.8004   20.1053 N.am    1  UNL1       -0.2680
      5 H           3.2258    1.7792   19.6198 H       1  UNL1        0.1578
      6 H           1.2644    3.4815   19.6892 H       1  UNL1        0.1564
      7 C          -0.7318    3.1327   20.4570 C.ar    1  UNL1        0.0517
      8 C          -1.7447    3.3406   19.3703 C.ar    1  UNL1        0.0162
      9 C          -3.1645    3.6728   19.7220 C.ar    1  UNL1        0.0188
     10 C          -3.5715    3.7972   21.1604 C.ar    1  UNL1        0.0656
     11 C          -2.5586    3.5893   22.2470 C.ar    1  UNL1        0.0188
     12 C          -1.1388    3.2570   21.8953 C.ar    1  UNL1        0.0162
     13 N          -4.9914    4.1294   21.5121 N.ar    1  UNL1       -0.2868
     14 C          -6.0136    4.7207   20.5872 C.ar    1  UNL1        0.1825
     15 N          -7.2922    4.8855   21.3539 N.ar    1  UNL1       -0.2280
     16 C          -7.0603    4.3960   22.7527 C.ar    1  UNL1        0.0786
     17 C          -8.0726    4.3770   23.8594 C.3     1  UNL1        0.0538
     18 C          -5.6382    3.9287   22.8505 C.ar    1  UNL1        0.0962
     19 N           3.6251   -0.7896   21.6574 N.ar    1  UNL1       -0.2162
     20 N           4.0962   -2.2024   21.4777 N.ar    1  UNL1       -0.1683
     21 C           3.9533   -2.5577   20.0274 C.ar    1  UNL1        0.0810
     22 C           3.3940   -1.3645   19.3108 C.ar    1  UNL1        0.0509
     23 C           3.1912   -0.2718   20.3182 C.ar    1  UNL1        0.1380
     24 C           3.4990    2.2554   26.8258 C.3     1  UNL1        0.0310
     25 C           3.5305    1.4941   25.5337 C.ar    1  UNL1       -0.0218
     26 C           2.3824    0.6046   25.1591 C.ar    1  UNL1       -0.0027
     27 C           2.4139   -0.1567   23.8670 C.ar    1  UNL1        0.0189
     28 C           3.5936   -0.0284   22.9495 C.ar    1  UNL1        0.0842
     29 C           4.7417    0.8612   23.3241 C.ar    1  UNL1        0.0189
     30 C           4.7102    1.6225   24.6162 C.ar    1  UNL1       -0.0027
     31 C           4.3076   -3.8749   19.4033 C.3     1  UNL1        0.0372
     32 C           5.7351   -3.6911   19.8258 C.3     1  UNL1        0.0060
     33 C           2.8802   -4.0587   18.9809 C.3     1  UNL1        0.0060
     34 C           4.6619   -5.1921   18.7793 C.3     1  UNL1        0.0060
@<TRIPOS>BOND
     1    24    25    1
     2    25    26   ar
     3    26    27   ar
     4    27    28   ar
     5    28    19    1
     6    19    20   ar
     7    20    21   ar
     8    21    31    1
     9    31    32    1
    10    31    33    1
    11    31    34    1
    12    21    22   ar
    13    22    23   ar
    14    23     1    1
    15     1     2   am
    16     2     3    2
    17     2     4   am
    18     4     7    1
    19     7     8   ar
    20     8     9   ar
    21     9    10   ar
    22    10    13    1
    23    13    14   ar
    24    14    15   ar
    25    15    16   ar
    26    16    17    1
    27    16    18   ar
    28    10    11   ar
    29    11    12   ar
    30    28    29   ar
    31    29    30   ar
    32    30    25   ar
    33    23    19   ar
    34    12     7   ar
    35    18    13   ar
    36     1     5    1
    37     4     6    1
@<TRIPOS>MOLECULE
*****
 34 37 0 0 0
SMALL
GASTEIGER

@<TRIPOS>ATOM
      1 N           4.3701    0.5694   21.9227 N.am    1  UNL1       -0.2533
      2 C           3.7864    0.6111   23.3038 C.2     1  UNL1        0.3092
      3 O           2.8429   -0.4654   23.7522 O.2     1  UNL1       -0.2521
      4 N           4.1463    1.7293   24.2367 N.am    1  UNL1       -0.2680
      5 H           4.9893    1.2759   21.6285 H       1  UNL1        0.1578
      6 H           4.7655    2.4358   23.9425 H       1  UNL1        0.1564
      7 C           3.5626    1.7709   25.6178 C.ar    1  UNL1        0.0517
      8 C           4.2192    1.0121   26.7328 C.ar    1  UNL1        0.0162
      9 C           3.6355    1.0538   28.1139 C.ar    1  UNL1        0.0188
     10 C           2.3953    1.8542   28.3802 C.ar    1  UNL1        0.0656
     11 C           1.7386    2.6130   27.2653 C.ar    1  UNL1        0.0188
     12 C           2.3223    2.5714   25.8841 C.ar    1  UNL1        0.0162
     13 N           1.8116    1.8959   29.7614 N.ar    1  UNL1       -0.2868
     14 C           0.3748    1.6557   30.1190 C.ar    1  UNL1        0.1825
     15 N           0.2374    1.7965   31.6060 N.ar    1  UNL1       -0.2280
     16 C           1.5894    2.1236   32.1675 C.ar    1  UNL1        0.0786
     17 C           1.9118    2.3496   33.6149 C.3     1  UNL1        0.0538
     18 C           2.5623    2.1850   31.0274 C.ar    1  UNL1        0.0962
     19 N           2.8478   -0.5667   20.0420 N.ar    1  UNL1       -0.2162
     20 N           2.8689   -1.8743   19.3074 N.ar    1  UNL1       -0.1683
     21 C           4.0443   -2.6646   19.8013 C.ar    1  UNL1        0.0810
     22 C           4.7497   -1.8453   20.8411 C.ar    1  UNL1        0.0509
     23 C           4.0102   -0.5488   20.9898 C.ar    1  UNL1        0.1380
     24 C          -1.1790    3.8217   19.3163 C.3     1  UNL1        0.0310
     25 C          -0.1723    2.7246   19.4977 C.ar    1  UNL1       -0.0218
     26 C           0.9650    2.5827   18.5300 C.ar    1  UNL1       -0.0027
     27 C           1.9717    1.4856   18.7114 C.ar    1  UNL1        0.0189
     28 C           1.8411    0.5304   19.8605 C.ar    1  UNL1        0.0842
     29 C           0.7038    0.6723   20.8282 C.ar    1  UNL1        0.0189
     30 C          -0.3029    1.7694   20.6468 C.ar    1  UNL1       -0.0027
     31 C           4.4441   -4.0337   19.3368 C.3     1  UNL1        0.0372
     32 C           5.8774   -3.7212   19.6496 C.3     1  UNL1        0.0060
     33 C           3.0107   -4.3461   19.0240 C.3     1  UNL1        0.0060
     34 C           4.8439   -5.4028   18.8724 C.3     1  UNL1        0.0060
@<TRIPOS>BOND
     1    24    25    1
     2    25    26   ar
     3    26    27   ar
     4    27    28   ar
     5    28    19    1
     6    19    20   ar
     7    20    21   ar
     8    21    31    1
     9    31    32    1
    10    31    33    1
    11    31    34    1
    12    21    22   ar
    13    22    23   ar
    14    23     1    1
    15     1     2   am
    16     2     3    2
    17     2     4   am
    18     4     7    1
    19     7     8   ar
    20     8     9   ar
    21     9    10   ar
    22    10    13    1
    23    13    14   ar
    24    14    15   ar
    25    15    16   ar
    26    16    17    1
    27    16    18   ar
    28    10    11   ar
    29    11    12   ar
    30    28    29   ar
    31    29    30   ar
    32    30    25   ar
    33    23    19   ar
    34    12     7   ar
    35    18    13   ar
    36     1     5    1
    37     4     6    1
