@<TRIPOS>MOLECULE
*****
 23 25 0 0 0
SMALL
GASTEIGER

@<TRIPOS>ATOM
      1 C          -9.5928  -18.5927   23.0165 C.3     1  UNL1        0.1018
      2 C         -10.8443  -17.7660   22.9949 C.3     1  UNL1        0.1221
      3 C         -12.2936  -17.7481   23.3810 C.3     1  UNL1        0.1319
      4 O         -13.0370  -18.8554   24.0674 O.3     1  UNL1       -0.3827
      5 C         -12.8691  -16.4284   22.9600 C.3     1  UNL1        0.0525
      6 C         -11.7755  -15.6307   22.3138 C.3     1  UNL1        0.0976
      7 N         -10.5240  -16.4574   22.3354 N.am    1  UNL1       -0.2613
      8 C          -9.0747  -16.4753   21.9493 C.2     1  UNL1        0.3110
      9 O          -8.3313  -15.3679   21.2629 O.2     1  UNL1       -0.2520
     10 N          -8.4991  -17.7950   22.3703 N.am    1  UNL1       -0.2433
     11 H         -13.9476  -18.5723   24.2447 H       1  UNL1        0.2104
     12 C          -7.0793  -18.2390   22.1787 C.ar    1  UNL1        0.0521
     13 C          -5.9993  -17.7050   23.0723 C.ar    1  UNL1        0.0154
     14 C          -4.5795  -18.1490   22.8807 C.ar    1  UNL1        0.0124
     15 C          -4.2395  -19.1271   21.7954 C.ar    1  UNL1        0.0787
     16 C          -5.3193  -19.6612   20.9018 C.ar    1  UNL1        0.0645
     17 CL         -4.9793  -20.6392   19.8165 Cl      1  UNL1       -0.0818
     18 C          -6.7393  -19.2171   21.0934 C.ar    1  UNL1        0.0031
     19 C          -7.8192  -19.7511   20.1998 C.3     1  UNL1        0.0332
     20 C          -2.8195  -19.5711   21.6038 C.1     1  UNL1        0.1013
     21 N          -1.3996  -20.0152   21.4122 N.1     1  UNL1       -0.1908
     22 C          -9.9803  -20.2744   24.9585 C.3     1  UNL1        0.0018
     23 C          -9.4586  -19.9744   23.5845 C.3     1  UNL1        0.0220
@<TRIPOS>BOND
     1    22    23    1
     2     1    23    1
     3     1     2    1
     4     2     3    1
     5     3     4    1
     6     3     5    1
     7     5     6    1
     8     6     7    1
     9     7     8   am
    10     8     9    2
    11     8    10   am
    12    10    12    1
    13    12    13   ar
    14    13    14   ar
    15    14    15   ar
    16    15    20    1
    17    20    21    3
    18    15    16   ar
    19    16    17    1
    20    16    18   ar
    21    18    19    1
    22    10     1    1
    23    18    12   ar
    24     2     7    1
    25     4    11    1
@<TRIPOS>MOLECULE
*****
 23 25 0 0 0
SMALL
GASTEIGER

@<TRIPOS>ATOM
      1 C         -10.1628  -18.2924   21.7889 C.3     1  UNL1        0.1018
      2 C         -11.4918  -18.1668   22.4730 C.3     1  UNL1        0.1221
      3 C         -12.9377  -17.8278   22.2626 C.3     1  UNL1        0.1319
      4 O         -13.5686  -17.4239   20.9631 O.3     1  UNL1       -0.3827
      5 C         -13.6421  -17.9636   23.5800 C.3     1  UNL1        0.0525
      6 C         -12.6314  -18.3865   24.6046 C.3     1  UNL1        0.0976
      7 N         -11.3025  -18.5121   23.9204 N.am    1  UNL1       -0.2613
      8 C          -9.8565  -18.8511   24.1308 C.2     1  UNL1        0.3110
      9 O          -9.2257  -19.2550   25.4304 O.2     1  UNL1       -0.2520
     10 N          -9.1521  -18.7153   22.8134 N.am    1  UNL1       -0.2433
     11 H         -14.5230  -17.3061   21.0898 H       1  UNL1        0.2104
     12 C          -7.6933  -18.9595   22.5644 C.ar    1  UNL1        0.0521
     13 C          -7.2415  -20.2599   21.9685 C.ar    1  UNL1        0.0154
     14 C          -5.7827  -20.5042   21.7195 C.ar    1  UNL1        0.0124
     15 C          -4.7755  -19.4480   22.0662 C.ar    1  UNL1        0.0787
     16 C          -5.2272  -18.1476   22.6621 C.ar    1  UNL1        0.0645
     17 CL         -4.2200  -17.0915   23.0088 Cl      1  UNL1       -0.0818
     18 C          -6.6861  -17.9034   22.9111 C.ar    1  UNL1        0.0031
     19 C          -7.1378  -16.6031   23.5069 C.3     1  UNL1        0.0332
     20 C          -3.3166  -19.6923   21.8172 C.1     1  UNL1        0.1013
     21 N          -1.8578  -19.9365   21.5681 N.1     1  UNL1       -0.1908
     22 C          -9.8894  -19.1817   19.3632 C.3     1  UNL1        0.0018
     23 C          -9.8920  -18.0394   20.3354 C.3     1  UNL1        0.0220
@<TRIPOS>BOND
     1    22    23    1
     2     1    23    1
     3     1     2    1
     4     2     3    1
     5     3     4    1
     6     3     5    1
     7     5     6    1
     8     6     7    1
     9     7     8   am
    10     8     9    2
    11     8    10   am
    12    10    12    1
    13    12    13   ar
    14    13    14   ar
    15    14    15   ar
    16    15    20    1
    17    20    21    3
    18    15    16   ar
    19    16    17    1
    20    16    18   ar
    21    18    19    1
    22    10     1    1
    23    18    12   ar
    24     2     7    1
    25     4    11    1
@<TRIPOS>MOLECULE
*****
 23 25 0 0 0
SMALL
GASTEIGER

@<TRIPOS>ATOM
      1 C          -6.4091  -19.0569   21.7645 C.3     1  UNL1        0.1018
      2 C          -4.9484  -18.7186   21.8101 C.3     1  UNL1        0.1221
      3 C          -3.6064  -19.0542   21.2300 C.3     1  UNL1        0.1319
      4 O          -3.3337  -20.0908   20.1807 O.3     1  UNL1       -0.3827
      5 C          -2.5851  -18.1713   21.8837 C.3     1  UNL1        0.0525
      6 C          -3.2958  -17.2900   22.8677 C.3     1  UNL1        0.0976
      7 N          -4.7565  -17.6283   22.8222 N.am    1  UNL1       -0.2613
      8 C          -6.0984  -17.2926   23.4022 C.2     1  UNL1        0.3110
      9 O          -6.3712  -16.2561   24.4516 O.2     1  UNL1       -0.2520
     10 N          -7.1199  -18.1756   22.7485 N.am    1  UNL1       -0.2433
     11 H          -2.3921  -20.0755   19.9481 H       1  UNL1        0.2104
     12 C          -8.5933  -18.1770   23.0295 C.ar    1  UNL1        0.0521
     13 C          -9.2177  -19.3329   23.7534 C.ar    1  UNL1        0.0154
     14 C         -10.6911  -19.3343   24.0344 C.ar    1  UNL1        0.0124
     15 C         -11.5402  -18.1797   23.5915 C.ar    1  UNL1        0.0787
     16 C         -10.9158  -17.0238   22.8676 C.ar    1  UNL1        0.0645
     17 CL        -11.7649  -15.8693   22.4247 Cl      1  UNL1       -0.0818
     18 C          -9.4423  -17.0225   22.5866 C.ar    1  UNL1        0.0031
     19 C          -8.8180  -15.8665   21.8628 C.3     1  UNL1        0.0332
     20 C         -13.0136  -18.1811   23.8725 C.1     1  UNL1        0.1013
     21 N         -14.4871  -18.1825   24.1535 N.1     1  UNL1       -0.1908
     22 C          -7.8674  -19.6749   19.7051 C.3     1  UNL1        0.0018
     23 C          -7.0470  -20.0942   20.8888 C.3     1  UNL1        0.0220
@<TRIPOS>BOND
     1    22    23    1
     2     1    23    1
     3     1     2    1
     4     2     3    1
     5     3     4    1
     6     3     5    1
     7     5     6    1
     8     6     7    1
     9     7     8   am
    10     8     9    2
    11     8    10   am
    12    10    12    1
    13    12    13   ar
    14    13    14   ar
    15    14    15   ar
    16    15    20    1
    17    20    21    3
    18    15    16   ar
    19    16    17    1
    20    16    18   ar
    21    18    19    1
    22    10     1    1
    23    18    12   ar
    24     2     7    1
    25     4    11    1
@<TRIPOS>MOLECULE
*****
 23 25 0 0 0
SMALL
GASTEIGER

@<TRIPOS>ATOM
      1 C          -5.5978  -18.0596   22.7077 C.3     1  UNL1        0.1018
      2 C          -4.3931  -18.4077   21.8845 C.3     1  UNL1        0.1221
      3 C          -2.9111  -18.2129   21.7598 C.3     1  UNL1        0.1319
      4 O          -2.0477  -17.4024   22.6805 O.3     1  UNL1       -0.3827
      5 C          -2.4439  -18.9709   20.5527 C.3     1  UNL1        0.0525
      6 C          -3.6373  -19.6341   19.9313 C.3     1  UNL1        0.0976
      7 N          -4.8420  -19.2860   20.7545 N.am    1  UNL1       -0.2613
      8 C          -6.3240  -19.4808   20.8792 C.2     1  UNL1        0.3110
      9 O          -7.1874  -20.2913   19.9585 O.2     1  UNL1       -0.2520
     10 N          -6.7912  -18.7228   22.0864 N.am    1  UNL1       -0.2433
     11 H          -1.1208  -17.4782   22.4049 H       1  UNL1        0.2104
     12 C          -8.2036  -18.6422   22.5848 C.ar    1  UNL1        0.0521
     13 C          -8.8483  -19.8440   23.2094 C.ar    1  UNL1        0.0154
     14 C         -10.2607  -19.7634   23.7078 C.ar    1  UNL1        0.0124
     15 C         -11.0286  -18.4810   23.5815 C.ar    1  UNL1        0.0787
     16 C         -10.3840  -17.2792   22.9568 C.ar    1  UNL1        0.0645
     17 CL        -11.1519  -15.9969   22.8305 Cl      1  UNL1       -0.0818
     18 C          -8.9715  -17.3599   22.4585 C.ar    1  UNL1        0.0031
     19 C          -8.3269  -16.1581   21.8338 C.3     1  UNL1        0.0332
     20 C         -12.4411  -18.4004   24.0798 C.1     1  UNL1        0.1013
     21 N         -13.8536  -18.3198   24.5782 N.1     1  UNL1       -0.1908
     22 C          -5.0327  -15.8147   23.8870 C.3     1  UNL1        0.0018
     23 C          -5.6074  -17.1993   23.9364 C.3     1  UNL1        0.0220
@<TRIPOS>BOND
     1    22    23    1
     2     1    23    1
     3     1     2    1
     4     2     3    1
     5     3     4    1
     6     3     5    1
     7     5     6    1
     8     6     7    1
     9     7     8   am
    10     8     9    2
    11     8    10   am
    12    10    12    1
    13    12    13   ar
    14    13    14   ar
    15    14    15   ar
    16    15    20    1
    17    20    21    3
    18    15    16   ar
    19    16    17    1
    20    16    18   ar
    21    18    19    1
    22    10     1    1
    23    18    12   ar
    24     2     7    1
    25     4    11    1
@<TRIPOS>MOLECULE
*****
 23 25 0 0 0
SMALL
GASTEIGER

@<TRIPOS>ATOM
      1 C          -8.8733  -17.0893   22.4225 C.3     1  UNL1        0.1018
      2 C         -10.2640  -17.4386   22.8630 C.3     1  UNL1        0.1221
      3 C         -11.6534  -16.9005   23.0357 C.3     1  UNL1        0.1319
      4 O         -12.1032  -15.5041   22.7232 O.3     1  UNL1       -0.3827
      5 C         -12.5140  -18.0040   23.5757 C.3     1  UNL1        0.0525
      6 C         -11.6565  -19.2241   23.7368 C.3     1  UNL1        0.0976
      7 N         -10.2659  -18.8747   23.2963 N.am    1  UNL1       -0.2613
      8 C          -8.8764  -19.4129   23.1237 C.2     1  UNL1        0.3110
      9 O          -8.4266  -20.8093   23.4362 O.2     1  UNL1       -0.2520
     10 N          -8.0157  -18.3094   22.5836 N.am    1  UNL1       -0.2433
     11 H         -13.0576  -15.4292   22.8795 H       1  UNL1        0.2104
     12 C          -6.5542  -18.4086   22.2612 C.ar    1  UNL1        0.0521
     13 C          -5.5419  -17.7675   23.1636 C.ar    1  UNL1        0.0154
     14 C          -4.0804  -17.8667   22.8413 C.ar    1  UNL1        0.0124
     15 C          -3.6310  -18.6071   21.6165 C.ar    1  UNL1        0.0787
     16 C          -4.6433  -19.2482   20.7141 C.ar    1  UNL1        0.0645
     17 CL         -4.1939  -19.9885   19.4893 Cl      1  UNL1       -0.0818
     18 C          -6.1049  -19.1489   21.0365 C.ar    1  UNL1        0.0031
     19 C          -7.1171  -19.7900   20.1341 C.3     1  UNL1        0.0332
     20 C          -2.1694  -18.7063   21.2941 C.1     1  UNL1        0.1013
     21 N          -0.7078  -18.8055   20.9718 N.1     1  UNL1       -0.1908
     22 C          -7.5999  -14.8542   22.7870 C.3     1  UNL1        0.0018
     23 C          -8.4198  -15.7542   21.9108 C.3     1  UNL1        0.0220
@<TRIPOS>BOND
     1    22    23    1
     2     1    23    1
     3     1     2    1
     4     2     3    1
     5     3     4    1
     6     3     5    1
     7     5     6    1
     8     6     7    1
     9     7     8   am
    10     8     9    2
    11     8    10   am
    12    10    12    1
    13    12    13   ar
    14    13    14   ar
    15    14    15   ar
    16    15    20    1
    17    20    21    3
    18    15    16   ar
    19    16    17    1
    20    16    18   ar
    21    18    19    1
    22    10     1    1
    23    18    12   ar
    24     2     7    1
    25     4    11    1
@<TRIPOS>MOLECULE
*****
 23 25 0 0 0
SMALL
GASTEIGER

@<TRIPOS>ATOM
      1 C          -8.0228  -17.3897   22.3951 C.3     1  UNL1        0.1018
      2 C          -9.3396  -17.8288   22.9634 C.3     1  UNL1        0.1221
      3 C         -10.6977  -17.3532   23.3871 C.3     1  UNL1        0.1319
      4 O         -11.1956  -15.9396   23.3257 O.3     1  UNL1       -0.3827
      5 C         -11.4703  -18.5394   23.8829 C.3     1  UNL1        0.0525
      6 C         -10.5899  -19.7482   23.7657 C.3     1  UNL1        0.0976
      7 N          -9.2730  -19.3090   23.1974 N.am    1  UNL1       -0.2613
      8 C          -7.9149  -19.7846   22.7737 C.2     1  UNL1        0.3110
      9 O          -7.4170  -21.1982   22.8351 O.2     1  UNL1       -0.2520
     10 N          -7.1422  -18.5984   22.2778 N.am    1  UNL1       -0.2433
     11 H         -12.1212  -15.9100   23.6144 H       1  UNL1        0.2104
     12 C          -5.7360  -18.6175   21.7564 C.ar    1  UNL1        0.0521
     13 C          -5.4466  -19.1900   20.4004 C.ar    1  UNL1        0.0154
     14 C          -4.0404  -19.2092   19.8789 C.ar    1  UNL1        0.0124
     15 C          -2.9233  -18.6558   20.7134 C.ar    1  UNL1        0.0787
     16 C          -3.2127  -18.0833   22.0693 C.ar    1  UNL1        0.0645
     17 CL         -2.0957  -17.5299   22.9036 Cl      1  UNL1       -0.0818
     18 C          -4.6190  -18.0641   22.5907 C.ar    1  UNL1        0.0031
     19 C          -4.9084  -17.4916   23.9466 C.3     1  UNL1        0.0332
     20 C          -1.5171  -18.6749   20.1918 C.1     1  UNL1        0.1013
     21 N          -0.1108  -18.6941   19.6703 N.1     1  UNL1       -0.1908
     22 C          -7.4645  -14.9444   23.0726 C.3     1  UNL1        0.0018
     23 C          -7.6515  -15.9879   22.0114 C.3     1  UNL1        0.0220
@<TRIPOS>BOND
     1    22    23    1
     2     1    23    1
     3     1     2    1
     4     2     3    1
     5     3     4    1
     6     3     5    1
     7     5     6    1
     8     6     7    1
     9     7     8   am
    10     8     9    2
    11     8    10   am
    12    10    12    1
    13    12    13   ar
    14    13    14   ar
    15    14    15   ar
    16    15    20    1
    17    20    21    3
    18    15    16   ar
    19    16    17    1
    20    16    18   ar
    21    18    19    1
    22    10     1    1
    23    18    12   ar
    24     2     7    1
    25     4    11    1
@<TRIPOS>MOLECULE
*****
 23 25 0 0 0
SMALL
GASTEIGER

@<TRIPOS>ATOM
      1 C          -7.7103  -16.4083   24.0960 C.3     1  UNL1        0.1018
      2 C          -6.2701  -16.5735   23.7106 C.3     1  UNL1        0.1221
      3 C          -4.9023  -15.9718   23.8410 C.3     1  UNL1        0.1319
      4 O          -4.5574  -14.7208   24.5935 O.3     1  UNL1       -0.3827
      5 C          -3.9399  -16.8407   23.0869 C.3     1  UNL1        0.0525
      6 C          -4.7129  -17.9794   22.4903 C.3     1  UNL1        0.0976
      7 N          -6.1531  -17.8142   22.8758 N.am    1  UNL1       -0.2613
      8 C          -7.5209  -18.4159   22.7453 C.2     1  UNL1        0.3110
      9 O          -7.8658  -19.6668   21.9929 O.2     1  UNL1       -0.2520
     10 N          -8.4834  -17.5470   23.4995 N.am    1  UNL1       -0.2433
     11 H          -3.5986  -14.5775   24.5604 H       1  UNL1        0.2104
     12 C          -9.9596  -17.7764   23.6336 C.ar    1  UNL1        0.0521
     13 C         -10.4904  -18.6011   24.7686 C.ar    1  UNL1        0.0154
     14 C         -11.9666  -18.8305   24.9027 C.ar    1  UNL1        0.0124
     15 C         -12.9122  -18.2354   23.9017 C.ar    1  UNL1        0.0787
     16 C         -12.3814  -17.4107   22.7667 C.ar    1  UNL1        0.0645
     17 CL        -13.3269  -16.8156   21.7657 Cl      1  UNL1       -0.0818
     18 C         -10.9051  -17.1813   22.6326 C.ar    1  UNL1        0.0031
     19 C         -10.3743  -16.3567   21.4976 C.3     1  UNL1        0.0332
     20 C         -14.3884  -18.4649   24.0358 C.1     1  UNL1        0.1013
     21 N         -15.8647  -18.6944   24.1698 N.1     1  UNL1       -0.1908
     22 C          -8.3479  -15.4439   26.4227 C.3     1  UNL1        0.0018
     23 C          -8.2778  -15.2992   24.9313 C.3     1  UNL1        0.0220
@<TRIPOS>BOND
     1    22    23    1
     2     1    23    1
     3     1     2    1
     4     2     3    1
     5     3     4    1
     6     3     5    1
     7     5     6    1
     8     6     7    1
     9     7     8   am
    10     8     9    2
    11     8    10   am
    12    10    12    1
    13    12    13   ar
    14    13    14   ar
    15    14    15   ar
    16    15    20    1
    17    20    21    3
    18    15    16   ar
    19    16    17    1
    20    16    18   ar
    21    18    19    1
    22    10     1    1
    23    18    12   ar
    24     2     7    1
    25     4    11    1
@<TRIPOS>MOLECULE
*****
 23 25 0 0 0
SMALL
GASTEIGER

@<TRIPOS>ATOM
      1 C          -5.7717  -18.9127   21.3342 C.3     1  UNL1        0.1018
      2 C          -4.2921  -18.7021   21.4623 C.3     1  UNL1        0.1221
      3 C          -2.9591  -19.0703   20.8813 C.3     1  UNL1        0.1319
      4 O          -2.7278  -19.9865   19.7164 O.3     1  UNL1       -0.3827
      5 C          -1.8981  -18.3613   21.6696 C.3     1  UNL1        0.0525
      6 C          -2.5753  -17.5549   22.7379 C.3     1  UNL1        0.0976
      7 N          -4.0549  -17.7656   22.6098 N.am    1  UNL1       -0.2613
      8 C          -5.3878  -17.3974   23.1909 C.2     1  UNL1        0.3110
      9 O          -5.6191  -16.4811   24.3558 O.2     1  UNL1       -0.2520
     10 N          -6.4490  -18.1064   22.4025 N.am    1  UNL1       -0.2433
     11 H          -1.7798  -20.0186   19.5135 H       1  UNL1        0.2104
     12 C          -7.9275  -18.0236   22.6407 C.ar    1  UNL1        0.0521
     13 C          -8.6468  -16.7217   22.4462 C.ar    1  UNL1        0.0154
     14 C         -10.1254  -16.6388   22.6843 C.ar    1  UNL1        0.0124
     15 C         -10.8849  -17.8580   23.1169 C.ar    1  UNL1        0.0787
     16 C         -10.1657  -19.1599   23.3114 C.ar    1  UNL1        0.0645
     17 CL        -10.9252  -20.3789   23.7440 Cl      1  UNL1       -0.0818
     18 C          -8.6870  -19.2426   23.0732 C.ar    1  UNL1        0.0031
     19 C          -7.9678  -20.5445   23.2677 C.3     1  UNL1        0.0332
     20 C         -12.3636  -17.7751   23.3551 C.1     1  UNL1        0.1013
     21 N         -13.8422  -17.6923   23.5932 N.1     1  UNL1       -0.1908
     22 C          -6.0314  -21.2063   20.1417 C.3     1  UNL1        0.0018
     23 C          -6.4543  -19.7778   20.3165 C.3     1  UNL1        0.0220
@<TRIPOS>BOND
     1    22    23    1
     2     1    23    1
     3     1     2    1
     4     2     3    1
     5     3     4    1
     6     3     5    1
     7     5     6    1
     8     6     7    1
     9     7     8   am
    10     8     9    2
    11     8    10   am
    12    10    12    1
    13    12    13   ar
    14    13    14   ar
    15    14    15   ar
    16    15    20    1
    17    20    21    3
    18    15    16   ar
    19    16    17    1
    20    16    18   ar
    21    18    19    1
    22    10     1    1
    23    18    12   ar
    24     2     7    1
    25     4    11    1
@<TRIPOS>MOLECULE
*****
 23 25 0 0 0
SMALL
GASTEIGER

@<TRIPOS>ATOM
      1 C          -9.0796  -18.2101   23.9429 C.3     1  UNL1        0.1018
      2 C          -8.7810  -17.0967   24.9027 C.3     1  UNL1        0.1221
      3 C          -8.8192  -16.6977   26.3481 C.3     1  UNL1        0.1319
      4 O          -9.2954  -17.5510   27.4861 O.3     1  UNL1       -0.3827
      5 C          -8.2977  -15.2954   26.4557 C.3     1  UNL1        0.0525
      6 C          -7.9372  -14.8278   25.0768 C.3     1  UNL1        0.0976
      7 N          -8.2359  -15.9411   24.1170 N.am    1  UNL1       -0.2613
      8 C          -8.1976  -16.3402   22.6715 C.2     1  UNL1        0.3110
      9 O          -7.7215  -15.4868   21.5335 O.2     1  UNL1       -0.2520
     10 N          -8.7191  -17.7426   22.5639 N.am    1  UNL1       -0.2433
     11 H          -9.1720  -17.0740   28.3217 H       1  UNL1        0.2104
     12 C          -8.8560  -18.5377   21.2994 C.ar    1  UNL1        0.0521
     13 C         -10.0967  -18.4130   20.4656 C.ar    1  UNL1        0.0154
     14 C         -10.2336  -19.2081   19.2012 C.ar    1  UNL1        0.0124
     15 C          -9.1298  -20.1280   18.7704 C.ar    1  UNL1        0.0787
     16 C          -7.8891  -20.2527   19.6041 C.ar    1  UNL1        0.0645
     17 CL         -6.7853  -21.1725   19.1733 Cl      1  UNL1       -0.0818
     18 C          -7.7523  -19.4575   20.8686 C.ar    1  UNL1        0.0031
     19 C          -6.5116  -19.5822   21.7024 C.3     1  UNL1        0.0332
     20 C          -9.2667  -20.9231   17.5059 C.1     1  UNL1        0.1013
     21 N          -9.4037  -21.7183   16.2413 N.1     1  UNL1       -0.1908
     22 C         -10.9992  -19.9554   23.8064 C.3     1  UNL1        0.0018
     23 C          -9.6404  -19.5549   24.2993 C.3     1  UNL1        0.0220
@<TRIPOS>BOND
     1    22    23    1
     2     1    23    1
     3     1     2    1
     4     2     3    1
     5     3     4    1
     6     3     5    1
     7     5     6    1
     8     6     7    1
     9     7     8   am
    10     8     9    2
    11     8    10   am
    12    10    12    1
    13    12    13   ar
    14    13    14   ar
    15    14    15   ar
    16    15    20    1
    17    20    21    3
    18    15    16   ar
    19    16    17    1
    20    16    18   ar
    21    18    19    1
    22    10     1    1
    23    18    12   ar
    24     2     7    1
    25     4    11    1
