@<TRIPOS>MOLECULE
*****
 12 13 0 0 0
SMALL
GASTEIGER

@<TRIPOS>ATOM
      1 C         -13.9149  -18.0201   24.0471 C.3     1  UNL1        0.0538
      2 C         -12.7713  -17.6280   23.1592 C.ar    1  UNL1        0.0786
      3 C         -11.6303  -18.5111   22.7492 C.ar    1  UNL1        0.0962
      4 N         -10.7217  -17.7127   21.8620 N.ar    1  UNL1       -0.2852
      5 C         -11.3012  -16.3361   21.7237 C.ar    1  UNL1        0.1825
      6 N         -12.5678  -16.2837   22.5254 N.ar    1  UNL1       -0.2280
      7 C          -9.4559  -18.2046   21.2250 C.ar    1  UNL1        0.0846
      8 C          -9.5187  -19.1806   20.0876 C.ar    1  UNL1        0.0207
      9 C          -8.2529  -19.6724   19.4506 C.ar    1  UNL1        0.0222
     10 C          -6.9243  -19.1884   19.9510 C.ar    1  UNL1        0.0990
     11 N          -6.8614  -18.2125   21.0884 N.ar    1  UNL1       -0.2408
     12 C          -8.1272  -17.7206   21.7253 C.ar    1  UNL1        0.1163
@<TRIPOS>BOND
     1     1     2    1
     2     2     3   ar
     3     3     4   ar
     4     4     7    1
     5     7     8   ar
     6     8     9   ar
     7     9    10   ar
     8    10    11   ar
     9    11    12   ar
    10     4     5   ar
    11     5     6   ar
    12     6     2   ar
    13    12     7   ar
@<TRIPOS>MOLECULE
*****
 12 13 0 0 0
SMALL
GASTEIGER

@<TRIPOS>ATOM
      1 C         -12.1896  -17.7740   21.8732 C.3     1  UNL1        0.0538
      2 C         -10.8748  -17.1345   22.2083 C.ar    1  UNL1        0.0786
      3 C         -10.2962  -16.9764   23.5831 C.ar    1  UNL1        0.0962
      4 N          -8.9715  -16.2849   23.4518 N.ar    1  UNL1       -0.2852
      5 C          -8.7315  -16.0157   21.9959 C.ar    1  UNL1        0.1825
      6 N          -9.9077  -16.5407   21.2273 N.ar    1  UNL1       -0.2280
      7 C          -8.0489  -15.9258   24.5787 C.ar    1  UNL1        0.0846
      8 C          -8.4555  -16.1978   25.9967 C.ar    1  UNL1        0.0207
      9 C          -7.5329  -15.8387   27.1235 C.ar    1  UNL1        0.0222
     10 C          -6.2037  -15.2075   26.8324 C.ar    1  UNL1        0.0990
     11 N          -5.7971  -14.9354   25.4144 N.ar    1  UNL1       -0.2408
     12 C          -6.7197  -15.2946   24.2876 C.ar    1  UNL1        0.1163
@<TRIPOS>BOND
     1     1     2    1
     2     2     3   ar
     3     3     4   ar
     4     4     7    1
     5     7     8   ar
     6     8     9   ar
     7     9    10   ar
     8    10    11   ar
     9    11    12   ar
    10     4     5   ar
    11     5     6   ar
    12     6     2   ar
    13    12     7   ar
@<TRIPOS>MOLECULE
*****
 12 13 0 0 0
SMALL
GASTEIGER

@<TRIPOS>ATOM
      1 C          -6.7638  -15.4675   26.8653 C.3     1  UNL1        0.0538
      2 C          -7.3795  -15.6070   25.5046 C.ar    1  UNL1        0.0786
      3 C          -8.7090  -16.2302   25.1981 C.ar    1  UNL1        0.0962
      4 N          -8.9249  -16.1561   23.7156 N.ar    1  UNL1       -0.2852
      5 C          -7.7289  -15.4871   23.1058 C.ar    1  UNL1        0.1825
      6 N          -6.7737  -15.1477   24.2115 N.ar    1  UNL1       -0.2280
      7 C         -10.1261  -16.6623   22.9732 C.ar    1  UNL1        0.0846
      8 C         -11.0476  -17.6514   23.6231 C.ar    1  UNL1        0.0207
      9 C         -12.2487  -18.1574   22.8807 C.ar    1  UNL1        0.0222
     10 C         -12.5283  -17.6744   21.4884 C.ar    1  UNL1        0.0990
     11 N         -11.6068  -16.6853   20.8385 N.ar    1  UNL1       -0.2408
     12 C         -10.4057  -16.1792   21.5809 C.ar    1  UNL1        0.1163
@<TRIPOS>BOND
     1     1     2    1
     2     2     3   ar
     3     3     4   ar
     4     4     7    1
     5     7     8   ar
     6     8     9   ar
     7     9    10   ar
     8    10    11   ar
     9    11    12   ar
    10     4     5   ar
    11     5     6   ar
    12     6     2   ar
    13    12     7   ar
@<TRIPOS>MOLECULE
*****
 12 13 0 0 0
SMALL
GASTEIGER

@<TRIPOS>ATOM
      1 C          -5.4887  -15.2013   24.7649 C.3     1  UNL1        0.0538
      2 C          -6.5620  -15.9851   24.0695 C.ar    1  UNL1        0.0786
      3 C          -8.0215  -15.9808   24.4156 C.ar    1  UNL1        0.0962
      4 N          -8.7258  -16.9039   23.4659 N.ar    1  UNL1       -0.2852
      5 C          -7.7016  -17.4786   22.5328 C.ar    1  UNL1        0.1825
      6 N          -6.3643  -16.9108   22.9059 N.ar    1  UNL1       -0.2280
      7 C         -10.1963  -17.2002   23.4518 C.ar    1  UNL1        0.0846
      8 C         -11.1141  -16.4005   22.5753 C.ar    1  UNL1        0.0207
      9 C         -12.5844  -16.6969   22.5612 C.ar    1  UNL1        0.0222
     10 C         -13.1369  -17.7928   23.4235 C.ar    1  UNL1        0.0990
     11 N         -12.2191  -18.5925   24.2999 N.ar    1  UNL1       -0.2408
     12 C         -10.7488  -18.2962   24.3140 C.ar    1  UNL1        0.1163
@<TRIPOS>BOND
     1     1     2    1
     2     2     3   ar
     3     3     4   ar
     4     4     7    1
     5     7     8   ar
     6     8     9   ar
     7     9    10   ar
     8    10    11   ar
     9    11    12   ar
    10     4     5   ar
    11     5     6   ar
    12     6     2   ar
    13    12     7   ar
@<TRIPOS>MOLECULE
*****
 12 13 0 0 0
SMALL
GASTEIGER

@<TRIPOS>ATOM
      1 C          -5.1154  -19.5432   22.0211 C.3     1  UNL1        0.0538
      2 C          -6.3187  -18.6669   22.2061 C.ar    1  UNL1        0.0786
      3 C          -7.7372  -19.0390   21.8911 C.ar    1  UNL1        0.0962
      4 N          -8.6100  -17.8667   22.2289 N.ar    1  UNL1       -0.2852
      5 C          -7.7308  -16.7701   22.7527 C.ar    1  UNL1        0.1825
      6 N          -6.3147  -17.2646   22.7387 N.ar    1  UNL1       -0.2280
      7 C         -10.1003  -17.8024   22.0707 C.ar    1  UNL1        0.0846
      8 C         -10.9904  -18.0090   23.2602 C.ar    1  UNL1        0.0207
      9 C         -12.4806  -17.9446   23.1020 C.ar    1  UNL1        0.0222
     10 C         -13.0807  -17.6738   21.7542 C.ar    1  UNL1        0.0990
     11 N         -12.1906  -17.4673   20.5647 N.ar    1  UNL1       -0.2408
     12 C         -10.7004  -17.5316   20.7229 C.ar    1  UNL1        0.1163
@<TRIPOS>BOND
     1     1     2    1
     2     2     3   ar
     3     3     4   ar
     4     4     7    1
     5     7     8   ar
     6     8     9   ar
     7     9    10   ar
     8    10    11   ar
     9    11    12   ar
    10     4     5   ar
    11     5     6   ar
    12     6     2   ar
    13    12     7   ar
@<TRIPOS>MOLECULE
*****
 12 13 0 0 0
SMALL
GASTEIGER

@<TRIPOS>ATOM
      1 C          -3.9326  -20.4507   19.9392 C.3     1  UNL1        0.0538
      2 C          -4.9555  -19.7766   20.8048 C.ar    1  UNL1        0.0786
      3 C          -6.4143  -20.1184   20.8750 C.ar    1  UNL1        0.0962
      4 N          -7.0596  -19.1953   21.8657 N.ar    1  UNL1       -0.2852
      5 C          -5.9996  -18.2829   22.4078 C.ar    1  UNL1        0.1825
      6 N          -4.6992  -18.6421   21.7521 N.ar    1  UNL1       -0.2280
      7 C          -8.5103  -19.1863   22.2474 C.ar    1  UNL1        0.0846
      8 C          -9.0055  -20.0934   23.3344 C.ar    1  UNL1        0.0207
      9 C         -10.4561  -20.0843   23.7160 C.ar    1  UNL1        0.0222
     10 C         -11.4115  -19.1680   23.0105 C.ar    1  UNL1        0.0990
     11 N         -10.9162  -18.2609   21.9235 N.ar    1  UNL1       -0.2408
     12 C          -9.4656  -18.2700   21.5419 C.ar    1  UNL1        0.1163
@<TRIPOS>BOND
     1     1     2    1
     2     2     3   ar
     3     3     4   ar
     4     4     7    1
     5     7     8   ar
     6     8     9   ar
     7     9    10   ar
     8    10    11   ar
     9    11    12   ar
    10     4     5   ar
    11     5     6   ar
    12     6     2   ar
    13    12     7   ar
@<TRIPOS>MOLECULE
*****
 12 13 0 0 0
SMALL
GASTEIGER

@<TRIPOS>ATOM
      1 C          -0.6933  -18.0922   19.4036 C.3     1  UNL1        0.0538
      2 C          -1.8612  -18.5783   20.2096 C.ar    1  UNL1        0.0786
      3 C          -3.3069  -18.4578   19.8284 C.ar    1  UNL1        0.0962
      4 N          -4.1276  -19.0753   20.9216 N.ar    1  UNL1       -0.2852
      5 C          -3.1892  -19.5775   21.9784 C.ar    1  UNL1        0.1825
      6 N          -1.7884  -19.2704   21.5385 N.ar    1  UNL1       -0.2280
      7 C          -5.6241  -19.1734   20.9524 C.ar    1  UNL1        0.0846
      8 C          -6.3401  -19.3078   22.2636 C.ar    1  UNL1        0.0207
      9 C          -7.8365  -19.4058   22.2944 C.ar    1  UNL1        0.0222
     10 C          -8.6170  -19.3695   21.0140 C.ar    1  UNL1        0.0990
     11 N          -7.9011  -19.2351   19.7028 N.ar    1  UNL1       -0.2408
     12 C          -6.4047  -19.1370   19.6720 C.ar    1  UNL1        0.1163
@<TRIPOS>BOND
     1     1     2    1
     2     2     3   ar
     3     3     4   ar
     4     4     7    1
     5     7     8   ar
     6     8     9   ar
     7     9    10   ar
     8    10    11   ar
     9    11    12   ar
    10     4     5   ar
    11     5     6   ar
    12     6     2   ar
    13    12     7   ar
@<TRIPOS>MOLECULE
*****
 12 13 0 0 0
SMALL
GASTEIGER

@<TRIPOS>ATOM
      1 C          -3.1476  -19.0431   19.4700 C.3     1  UNL1        0.0538
      2 C          -4.3556  -18.9742   20.3566 C.ar    1  UNL1        0.0786
      3 C          -5.7608  -19.3184   19.9604 C.ar    1  UNL1        0.0962
      4 N          -6.6441  -19.1060   21.1540 N.ar    1  UNL1       -0.2852
      5 C          -5.7849  -18.6306   22.2878 C.ar    1  UNL1        0.1825
      6 N          -4.3705  -18.5491   21.7951 N.ar    1  UNL1       -0.2280
      7 C          -8.1265  -19.3298   21.2047 C.ar    1  UNL1        0.0846
      8 C          -8.9218  -19.3773   19.9338 C.ar    1  UNL1        0.0207
      9 C         -10.4041  -19.6011   19.9846 C.ar    1  UNL1        0.0222
     10 C         -11.0912  -19.7774   21.3063 C.ar    1  UNL1        0.0990
     11 N         -10.2959  -19.7299   22.5772 N.ar    1  UNL1       -0.2408
     12 C          -8.8136  -19.5061   22.5264 C.ar    1  UNL1        0.1163
@<TRIPOS>BOND
     1     1     2    1
     2     2     3   ar
     3     3     4   ar
     4     4     7    1
     5     7     8   ar
     6     8     9   ar
     7     9    10   ar
     8    10    11   ar
     9    11    12   ar
    10     4     5   ar
    11     5     6   ar
    12     6     2   ar
    13    12     7   ar
@<TRIPOS>MOLECULE
*****
 12 13 0 0 0
SMALL
GASTEIGER

@<TRIPOS>ATOM
      1 C          -8.0128  -15.4525   27.1845 C.3     1  UNL1        0.0538
      2 C          -8.2242  -15.7852   25.7373 C.ar    1  UNL1        0.0786
      3 C          -9.0597  -16.9112   25.2044 C.ar    1  UNL1        0.0962
      4 N          -8.9891  -16.8723   23.7065 N.ar    1  UNL1       -0.2852
      5 C          -8.1098  -15.7223   23.3137 C.ar    1  UNL1        0.1825
      6 N          -7.6370  -15.0504   24.5687 N.ar    1  UNL1       -0.2280
      7 C          -9.6769  -17.8175   22.7666 C.ar    1  UNL1        0.0846
      8 C          -9.9521  -17.4009   21.3521 C.ar    1  UNL1        0.0207
      9 C         -10.6400  -18.3461   20.4123 C.ar    1  UNL1        0.0222
     10 C         -11.0526  -19.7079   20.8868 C.ar    1  UNL1        0.0990
     11 N         -10.7774  -20.1245   22.3012 N.ar    1  UNL1       -0.2408
     12 C         -10.0896  -19.1793   23.2411 C.ar    1  UNL1        0.1163
@<TRIPOS>BOND
     1     1     2    1
     2     2     3   ar
     3     3     4   ar
     4     4     7    1
     5     7     8   ar
     6     8     9   ar
     7     9    10   ar
     8    10    11   ar
     9    11    12   ar
    10     4     5   ar
    11     5     6   ar
    12     6     2   ar
    13    12     7   ar
