@<TRIPOS>MOLECULE
*****
 31 33 0 0 0
SMALL
GASTEIGER

@<TRIPOS>ATOM
      1 C           6.0973   -2.4178   19.3001 C.ar    1  UNL1        0.0942
      2 C           7.4936   -1.9473   19.5813 C.ar    1  UNL1        0.1078
      3 N           8.4476   -2.8329   20.3266 N.ar    1  UNL1       -0.2119
      4 C           8.0054   -4.1890   20.7908 C.ar    1  UNL1        0.2207
      5 N           6.6091   -4.6595   20.5097 N.ar    1  UNL1       -0.2094
      6 C           5.6551   -3.7738   19.7643 C.ar    1  UNL1        0.1613
      7 O           4.8119   -1.8252   17.1215 O.2     1  UNL1       -0.2700
      8 C           5.1433   -1.5322   18.5548 C.2     1  UNL1        0.2488
      9 N           4.5206   -0.3537   19.2428 N.am    1  UNL1       -0.3008
     10 H           4.7381   -0.1614   20.1835 H       1  UNL1        0.1497
     11 C           3.5666    0.5319   18.4974 C.3     1  UNL1        0.0898
     12 C           2.2220    0.8468   19.0832 C.3     1  UNL1        0.0246
     13 C           1.5560    2.1544   18.7721 C.3     1  UNL1        0.0338
     14 C           0.2115    2.4692   19.3579 C.3     1  UNL1        0.1422
     15 O          -0.4670    1.4766   20.2547 O.3     1  UNL1       -0.3538
     16 C           0.1990    0.1691   20.5658 C.3     1  UNL1        0.1422
     17 C           1.5435   -0.1458   19.9800 C.3     1  UNL1        0.0338
     18 C           4.2588   -4.2443   19.4831 C.3     1  UNL1        0.4351
     19 F           2.8625   -4.7148   19.2020 F       1  UNL1       -0.1644
     20 F           4.7494   -4.9744   18.2681 F       1  UNL1       -0.1644
     21 F           3.7681   -3.5143   20.6982 F       1  UNL1       -0.1644
     22 N           8.9594   -5.0746   21.5362 N.pl3   1  UNL1       -0.2808
     23 H           9.8432   -5.2785   21.1533 H       1  UNL1        0.1551
     24 C           8.5670   -5.6494   22.8649 C.ar    1  UNL1        0.0791
     25 C           8.8743   -7.0828   23.1823 C.ar    1  UNL1        0.0170
     26 C           8.4819   -7.6576   24.5110 C.ar    1  UNL1        0.0023
     27 C           7.7821   -6.7989   25.5225 C.ar    1  UNL1        0.0138
     28 C           7.4748   -5.3655   25.2051 C.ar    1  UNL1        0.0863
     29 CL          6.7751   -4.5068   26.2166 Cl      1  UNL1       -0.0799
     30 C           7.8673   -4.7907   23.8764 C.ar    1  UNL1        0.1639
     31 F           7.5599   -3.3572   23.5591 F       1  UNL1       -0.2020
@<TRIPOS>BOND
     1     7     8    2
     2     8     9   am
     3     9    11    1
     4    11    12    1
     5    12    13    1
     6    13    14    1
     7    14    15    1
     8    15    16    1
     9    16    17    1
    10     8     1    1
    11     1     2   ar
    12     2     3   ar
    13     3     4   ar
    14     4    22    1
    15    22    24    1
    16    24    25   ar
    17    25    26   ar
    18    26    27   ar
    19    27    28   ar
    20    28    29    1
    21    28    30   ar
    22    30    31    1
    23     4     5   ar
    24     5     6   ar
    25     6    18    1
    26    18    19    1
    27    18    20    1
    28    18    21    1
    29    17    12    1
    30     6     1   ar
    31    30    24   ar
    32     9    10    1
    33    22    23    1
@<TRIPOS>MOLECULE
*****
 31 33 0 0 0
SMALL
GASTEIGER

@<TRIPOS>ATOM
      1 C           5.7954   -2.3325   19.3714 C.ar    1  UNL1        0.0942
      2 C           7.1352   -1.8472   19.8399 C.ar    1  UNL1        0.1078
      3 N           7.9853   -2.7203   20.7145 N.ar    1  UNL1       -0.2119
      4 C           7.4957   -4.0788   21.1205 C.ar    1  UNL1        0.2207
      5 N           6.1559   -4.5641   20.6520 N.ar    1  UNL1       -0.2094
      6 C           5.3058   -3.6909   19.7774 C.ar    1  UNL1        0.1613
      7 O           5.0726   -1.5416   17.0045 O.2     1  UNL1       -0.2700
      8 C           4.9453   -1.4594   18.4969 C.2     1  UNL1        0.2488
      9 N           3.9677   -0.5039   19.1146 N.am    1  UNL1       -0.3008
     10 H           3.8841   -0.4499   20.0941 H       1  UNL1        0.1497
     11 C           3.1176    0.3692   18.2401 C.3     1  UNL1        0.0898
     12 C           1.9454    1.1011   18.8238 C.3     1  UNL1        0.0246
     13 C           1.0751    0.4302   19.8447 C.3     1  UNL1        0.0338
     14 C          -0.0969    1.1621   20.4283 C.3     1  UNL1        0.1422
     15 O          -0.3986    2.5648   19.9910 O.3     1  UNL1       -0.3538
     16 C           0.4717    3.2357   18.9700 C.3     1  UNL1        0.1422
     17 C           1.6437    2.5038   18.3864 C.3     1  UNL1        0.0338
     18 C           3.9660   -4.1762   19.3089 C.3     1  UNL1        0.4351
     19 F           2.6263   -4.6615   18.8403 F       1  UNL1       -0.1644
     20 F           3.2966   -3.3477   20.3650 F       1  UNL1       -0.1644
     21 F           4.6355   -5.0047   18.2528 F       1  UNL1       -0.1644
     22 N           8.3458   -4.9519   21.9951 N.pl3   1  UNL1       -0.2808
     23 H           9.1725   -5.3501   21.6382 H       1  UNL1        0.1551
     24 C           7.9365   -5.2184   23.4133 C.ar    1  UNL1        0.0791
     25 C           7.2789   -4.1380   24.2197 C.ar    1  UNL1        0.0170
     26 C           6.8696   -4.4045   25.6380 C.ar    1  UNL1        0.0023
     27 C           7.1179   -5.7513   26.2499 C.ar    1  UNL1        0.0138
     28 C           7.7755   -6.8316   25.4435 C.ar    1  UNL1        0.0863
     29 CL          8.0239   -8.1785   26.0553 Cl      1  UNL1       -0.0799
     30 C           8.1848   -6.5652   24.0252 C.ar    1  UNL1        0.1639
     31 F           8.8425   -7.6456   23.2188 F       1  UNL1       -0.2020
@<TRIPOS>BOND
     1     7     8    2
     2     8     9   am
     3     9    11    1
     4    11    12    1
     5    12    13    1
     6    13    14    1
     7    14    15    1
     8    15    16    1
     9    16    17    1
    10     8     1    1
    11     1     2   ar
    12     2     3   ar
    13     3     4   ar
    14     4    22    1
    15    22    24    1
    16    24    25   ar
    17    25    26   ar
    18    26    27   ar
    19    27    28   ar
    20    28    29    1
    21    28    30   ar
    22    30    31    1
    23     4     5   ar
    24     5     6   ar
    25     6    18    1
    26    18    19    1
    27    18    20    1
    28    18    21    1
    29    17    12    1
    30     6     1   ar
    31    30    24   ar
    32     9    10    1
    33    22    23    1
@<TRIPOS>MOLECULE
*****
 31 33 0 0 0
SMALL
GASTEIGER

@<TRIPOS>ATOM
      1 C           4.9816   -2.1542   20.7898 C.ar    1  UNL1        0.0942
      2 C           5.6195   -1.3628   21.8928 C.ar    1  UNL1        0.1078
      3 N           6.6977   -1.9809   22.7326 N.ar    1  UNL1       -0.2119
      4 C           7.1381   -3.3905   22.4694 C.ar    1  UNL1        0.2207
      5 N           6.5002   -4.1819   21.3663 N.ar    1  UNL1       -0.2094
      6 C           5.4219   -3.5637   20.5265 C.ar    1  UNL1        0.1613
      7 O           2.4716   -1.6150   20.3905 O.2     1  UNL1       -0.2700
      8 C           3.9033   -1.5361   19.9500 C.2     1  UNL1        0.2488
      9 N           4.2568   -0.8390   18.6696 N.am    1  UNL1       -0.3008
     10 H           5.1964   -0.7872   18.3804 H       1  UNL1        0.1497
     11 C           3.1785   -0.2209   17.8298 C.3     1  UNL1        0.0898
     12 C           2.5386    1.0661   18.2590 C.3     1  UNL1        0.0246
     13 C           3.3829    2.2854   18.4830 C.3     1  UNL1        0.0338
     14 C           2.7430    3.5723   18.9123 C.3     1  UNL1        0.1422
     15 O           1.2586    3.6399   19.1175 O.3     1  UNL1       -0.3538
     16 C           0.4142    2.4205   18.8935 C.3     1  UNL1        0.1422
     17 C           1.0542    1.1336   18.4643 C.3     1  UNL1        0.0338
     18 C           4.7840   -4.3551   19.4234 C.3     1  UNL1        0.4351
     19 F           4.1460   -5.1465   18.3204 F       1  UNL1       -0.1644
     20 F           5.7546   -3.7689   18.4415 F       1  UNL1       -0.1644
     21 F           3.8133   -4.9413   20.4054 F       1  UNL1       -0.1644
     22 N           8.2163   -4.0086   23.3092 N.pl3   1  UNL1       -0.2808
     23 H           9.1473   -3.7011   23.2194 H       1  UNL1        0.1551
     24 C           7.8762   -5.0952   24.2857 C.ar    1  UNL1        0.0791
     25 C           8.2671   -6.5139   23.9952 C.ar    1  UNL1        0.0170
     26 C           7.9270   -7.6005   24.9717 C.ar    1  UNL1        0.0023
     27 C           7.1960   -7.2684   26.2388 C.ar    1  UNL1        0.0138
     28 C           6.8052   -5.8497   26.5292 C.ar    1  UNL1        0.0863
     29 CL          6.0742   -5.5175   27.7963 Cl      1  UNL1       -0.0799
     30 C           7.1453   -4.7631   25.5527 C.ar    1  UNL1        0.1639
     31 F           6.7544   -3.3443   25.8432 F       1  UNL1       -0.2020
@<TRIPOS>BOND
     1     7     8    2
     2     8     9   am
     3     9    11    1
     4    11    12    1
     5    12    13    1
     6    13    14    1
     7    14    15    1
     8    15    16    1
     9    16    17    1
    10     8     1    1
    11     1     2   ar
    12     2     3   ar
    13     3     4   ar
    14     4    22    1
    15    22    24    1
    16    24    25   ar
    17    25    26   ar
    18    26    27   ar
    19    27    28   ar
    20    28    29    1
    21    28    30   ar
    22    30    31    1
    23     4     5   ar
    24     5     6   ar
    25     6    18    1
    26    18    19    1
    27    18    20    1
    28    18    21    1
    29    17    12    1
    30     6     1   ar
    31    30    24   ar
    32     9    10    1
    33    22    23    1
@<TRIPOS>MOLECULE
*****
 31 33 0 0 0
SMALL
GASTEIGER

@<TRIPOS>ATOM
      1 C           1.4171    1.6231   19.0604 C.ar    1  UNL1        0.0942
      2 C           0.6622    2.7338   18.3922 C.ar    1  UNL1        0.1078
      3 N          -0.6467    3.1980   18.9590 N.ar    1  UNL1       -0.2119
      4 C          -1.2007    2.5515   20.1940 C.ar    1  UNL1        0.2207
      5 N          -0.4458    1.4409   20.8622 N.ar    1  UNL1       -0.2094
      6 C           0.8632    0.9767   20.2954 C.ar    1  UNL1        0.1613
      7 O           3.9752    1.9503   18.7452 O.2     1  UNL1       -0.2700
      8 C           2.7260    1.1589   18.4936 C.2     1  UNL1        0.2488
      9 N           2.7858   -0.0968   17.6753 N.am    1  UNL1       -0.3008
     10 H           1.9660   -0.6163   17.5101 H       1  UNL1        0.1497
     11 C           4.0947   -0.5610   17.1085 C.3     1  UNL1        0.0898
     12 C           5.0120   -1.4104   17.9375 C.3     1  UNL1        0.0246
     13 C           4.4447   -2.4582   18.8487 C.3     1  UNL1        0.0338
     14 C           5.3620   -3.3075   19.6777 C.3     1  UNL1        0.1422
     15 O           6.8465   -3.1090   19.5955 O.3     1  UNL1       -0.3538
     16 C           7.4138   -2.0613   18.6843 C.3     1  UNL1        0.1422
     17 C           6.4965   -1.2119   17.8553 C.3     1  UNL1        0.0338
     18 C           1.6181   -0.1340   20.9636 C.3     1  UNL1        0.4351
     19 F           2.3731   -1.2447   21.6318 F       1  UNL1       -0.1644
     20 F           0.9115   -1.1349   20.0982 F       1  UNL1       -0.1644
     21 F           2.3247    0.8669   21.8290 F       1  UNL1       -0.1644
     22 N          -2.5096    3.0157   20.7608 N.pl3   1  UNL1       -0.2808
     23 H          -3.3311    2.9468   20.2227 H       1  UNL1        0.1551
     24 C          -2.5668    3.5850   22.1474 C.ar    1  UNL1        0.0791
     25 C          -1.4105    4.3775   22.6811 C.ar    1  UNL1        0.0170
     26 C          -1.4677    4.9467   24.0677 C.ar    1  UNL1        0.0023
     27 C          -2.6812    4.7235   24.9206 C.ar    1  UNL1        0.0138
     28 C          -3.8375    3.9311   24.3869 C.ar    1  UNL1        0.0863
     29 CL         -5.0511    3.7078   25.2398 Cl      1  UNL1       -0.0799
     30 C          -3.7803    3.3618   23.0003 C.ar    1  UNL1        0.1639
     31 F          -4.9367    2.5693   22.4666 F       1  UNL1       -0.2020
@<TRIPOS>BOND
     1     7     8    2
     2     8     9   am
     3     9    11    1
     4    11    12    1
     5    12    13    1
     6    13    14    1
     7    14    15    1
     8    15    16    1
     9    16    17    1
    10     8     1    1
    11     1     2   ar
    12     2     3   ar
    13     3     4   ar
    14     4    22    1
    15    22    24    1
    16    24    25   ar
    17    25    26   ar
    18    26    27   ar
    19    27    28   ar
    20    28    29    1
    21    28    30   ar
    22    30    31    1
    23     4     5   ar
    24     5     6   ar
    25     6    18    1
    26    18    19    1
    27    18    20    1
    28    18    21    1
    29    17    12    1
    30     6     1   ar
    31    30    24   ar
    32     9    10    1
    33    22    23    1
@<TRIPOS>MOLECULE
*****
 31 33 0 0 0
SMALL
GASTEIGER

@<TRIPOS>ATOM
      1 C           4.7648   -2.5287   20.9589 C.ar    1  UNL1        0.0942
      2 C           4.3108   -1.3158   21.7157 C.ar    1  UNL1        0.1078
      3 N           3.0254   -0.6377   21.3446 N.ar    1  UNL1       -0.2119
      4 C           2.1938   -1.1726   20.2166 C.ar    1  UNL1        0.2207
      5 N           2.6477   -2.3855   19.4597 N.ar    1  UNL1       -0.2094
      6 C           3.9332   -3.0635   19.8309 C.ar    1  UNL1        0.1613
      7 O           7.2274   -3.1419   20.4025 O.2     1  UNL1       -0.2700
      8 C           6.0502   -3.2067   21.3300 C.2     1  UNL1        0.2488
      9 N           6.1587   -3.9495   22.6287 N.am    1  UNL1       -0.3008
     10 H           5.3861   -3.9921   23.2374 H       1  UNL1        0.1497
     11 C           7.4441   -4.6276   22.9998 C.3     1  UNL1        0.0898
     12 C           7.5118   -5.4863   24.2279 C.3     1  UNL1        0.0246
     13 C           8.1132   -6.8584   24.1514 C.3     1  UNL1        0.0338
     14 C           8.1808   -7.7170   25.3794 C.3     1  UNL1        0.1422
     15 O           7.6471   -7.2037   26.6839 O.3     1  UNL1       -0.3538
     16 C           7.0457   -5.8317   26.7603 C.3     1  UNL1        0.1422
     17 C           6.9781   -4.9730   25.5323 C.3     1  UNL1        0.0338
     18 C           4.3872   -4.2764   19.0740 C.3     1  UNL1        0.4351
     19 F           4.8411   -5.4893   18.3171 F       1  UNL1       -0.1644
     20 F           3.6503   -5.1554   20.0406 F       1  UNL1       -0.1644
     21 F           5.1241   -3.3974   18.1074 F       1  UNL1       -0.1644
     22 N           0.9083   -0.4945   19.8454 N.pl3   1  UNL1       -0.2808
     23 H           0.1091   -1.0322   19.6420 H       1  UNL1        0.1551
     24 C           0.8405    1.0027   19.7842 C.ar    1  UNL1        0.0791
     25 C          -0.1374    1.7450   20.6460 C.ar    1  UNL1        0.0170
     26 C          -0.2051    3.2422   20.5848 C.ar    1  UNL1        0.0023
     27 C           0.7050    3.9971   19.6619 C.ar    1  UNL1        0.0138
     28 C           1.6828    3.2548   18.8001 C.ar    1  UNL1        0.0863
     29 CL          2.5930    4.0096   17.8771 Cl      1  UNL1       -0.0799
     30 C           1.7506    1.7576   18.8613 C.ar    1  UNL1        0.1639
     31 F           2.7286    1.0152   17.9995 F       1  UNL1       -0.2020
@<TRIPOS>BOND
     1     7     8    2
     2     8     9   am
     3     9    11    1
     4    11    12    1
     5    12    13    1
     6    13    14    1
     7    14    15    1
     8    15    16    1
     9    16    17    1
    10     8     1    1
    11     1     2   ar
    12     2     3   ar
    13     3     4   ar
    14     4    22    1
    15    22    24    1
    16    24    25   ar
    17    25    26   ar
    18    26    27   ar
    19    27    28   ar
    20    28    29    1
    21    28    30   ar
    22    30    31    1
    23     4     5   ar
    24     5     6   ar
    25     6    18    1
    26    18    19    1
    27    18    20    1
    28    18    21    1
    29    17    12    1
    30     6     1   ar
    31    30    24   ar
    32     9    10    1
    33    22    23    1
@<TRIPOS>MOLECULE
*****
 31 33 0 0 0
SMALL
GASTEIGER

@<TRIPOS>ATOM
      1 C           6.0113   -3.1035   24.6393 C.ar    1  UNL1        0.0942
      2 C           4.8046   -2.3501   24.1634 C.ar    1  UNL1        0.1078
      3 N           4.2977   -2.5514   22.7661 N.ar    1  UNL1       -0.2119
      4 C           4.9973   -3.5062   21.8446 C.ar    1  UNL1        0.2207
      5 N           6.2039   -4.2596   22.3205 N.ar    1  UNL1       -0.2094
      6 C           6.7109   -4.0582   23.7179 C.ar    1  UNL1        0.1613
      7 O           7.6794   -1.9866   26.2884 O.2     1  UNL1       -0.2700
      8 C           6.5183   -2.9022   26.0365 C.2     1  UNL1        0.2488
      9 N           5.8641   -3.6165   27.1820 N.am    1  UNL1       -0.3008
     10 H           5.1020   -4.2174   27.0166 H       1  UNL1        0.1497
     11 C           6.3711   -3.4152   28.5792 C.3     1  UNL1        0.0898
     12 C           7.1859   -4.4855   29.2429 C.3     1  UNL1        0.0246
     13 C           6.8961   -4.8776   30.6615 C.3     1  UNL1        0.0338
     14 C           7.7109   -5.9479   31.3251 C.3     1  UNL1        0.1422
     15 O           8.8155   -6.6261   30.5702 O.3     1  UNL1       -0.3538
     16 C           9.1053   -6.2341   29.1517 C.3     1  UNL1        0.1422
     17 C           8.2905   -5.1637   28.4881 C.3     1  UNL1        0.0338
     18 C           7.9175   -4.8116   24.1937 C.3     1  UNL1        0.4351
     19 F           9.1241   -5.5650   24.6696 F       1  UNL1       -0.1644
     20 F           8.8083   -3.8132   23.5158 F       1  UNL1       -0.1644
     21 F           7.0267   -5.8101   24.8717 F       1  UNL1       -0.1644
     22 N           4.4903   -3.7075   20.4474 N.pl3   1  UNL1       -0.2808
     23 H           4.0816   -4.5656   20.1909 H       1  UNL1        0.1551
     24 C           4.6060   -2.6014   19.4409 C.ar    1  UNL1        0.0791
     25 C           5.8560   -2.4581   18.6243 C.ar    1  UNL1        0.0170
     26 C           5.9718   -1.3520   17.6178 C.ar    1  UNL1        0.0023
     27 C           4.8375   -0.3891   17.4279 C.ar    1  UNL1        0.0138
     28 C           3.5874   -0.5323   18.2445 C.ar    1  UNL1        0.0863
     29 CL          2.4530    0.4306   18.0546 Cl      1  UNL1       -0.0799
     30 C           3.4717   -1.6385   19.2510 C.ar    1  UNL1        0.1639
     31 F           2.2216   -1.7817   20.0676 F       1  UNL1       -0.2020
@<TRIPOS>BOND
     1     7     8    2
     2     8     9   am
     3     9    11    1
     4    11    12    1
     5    12    13    1
     6    13    14    1
     7    14    15    1
     8    15    16    1
     9    16    17    1
    10     8     1    1
    11     1     2   ar
    12     2     3   ar
    13     3     4   ar
    14     4    22    1
    15    22    24    1
    16    24    25   ar
    17    25    26   ar
    18    26    27   ar
    19    27    28   ar
    20    28    29    1
    21    28    30   ar
    22    30    31    1
    23     4     5   ar
    24     5     6   ar
    25     6    18    1
    26    18    19    1
    27    18    20    1
    28    18    21    1
    29    17    12    1
    30     6     1   ar
    31    30    24   ar
    32     9    10    1
    33    22    23    1
@<TRIPOS>MOLECULE
*****
 31 33 0 0 0
SMALL
GASTEIGER

@<TRIPOS>ATOM
      1 C           6.6900   -3.4495   20.7482 C.ar    1  UNL1        0.0942
      2 C           8.0311   -4.0012   20.3647 C.ar    1  UNL1        0.1078
      3 N           8.9535   -4.5327   21.4214 N.ar    1  UNL1       -0.2119
      4 C           8.5348   -4.5126   22.8617 C.ar    1  UNL1        0.2207
      5 N           7.1937   -3.9610   23.2452 N.ar    1  UNL1       -0.2094
      6 C           6.2712   -3.4294   22.1884 C.ar    1  UNL1        0.1613
      7 O           5.0294   -3.8665   18.7941 O.2     1  UNL1       -0.2700
      8 C           5.7676   -2.9180   19.6916 C.2     1  UNL1        0.2488
      9 N           5.5833   -1.4378   19.5323 N.am    1  UNL1       -0.3008
     10 H           6.0677   -0.8153   20.1213 H       1  UNL1        0.1497
     11 C           4.6609   -0.9063   18.4756 C.3     1  UNL1        0.0898
     12 C           3.2730   -0.4705   18.8417 C.3     1  UNL1        0.0246
     13 C           2.6236    0.6626   18.1039 C.3     1  UNL1        0.0338
     14 C           1.2357    1.0983   18.4700 C.3     1  UNL1        0.1422
     15 O           0.4973    0.4009   19.5738 O.3     1  UNL1       -0.3538
     16 C           1.1467   -0.7322   20.3115 C.3     1  UNL1        0.1422
     17 C           2.5346   -1.1679   19.9455 C.3     1  UNL1        0.0338
     18 C           4.9301   -2.8777   22.5720 C.3     1  UNL1        0.4351
     19 F           3.5890   -2.3261   22.9555 F       1  UNL1       -0.1644
     20 F           4.3062   -4.2180   22.3180 F       1  UNL1       -0.1644
     21 F           5.5541   -1.5375   22.8259 F       1  UNL1       -0.1644
     22 N           9.4572   -5.0442   23.9183 N.pl3   1  UNL1       -0.2808
     23 H          10.4269   -4.8889   23.8487 H       1  UNL1        0.1551
     24 C           8.9022   -5.8122   25.0811 C.ar    1  UNL1        0.0791
     25 C           8.5377   -7.2582   24.9195 C.ar    1  UNL1        0.0170
     26 C           7.9827   -8.0263   26.0823 C.ar    1  UNL1        0.0023
     27 C           7.7922   -7.3483   27.4067 C.ar    1  UNL1        0.0138
     28 C           8.1566   -5.9023   27.5683 C.ar    1  UNL1        0.0863
     29 CL          7.9661   -5.2242   28.8927 Cl      1  UNL1       -0.0799
     30 C           8.7116   -5.1342   26.4055 C.ar    1  UNL1        0.1639
     31 F           9.0761   -3.6881   26.5671 F       1  UNL1       -0.2020
@<TRIPOS>BOND
     1     7     8    2
     2     8     9   am
     3     9    11    1
     4    11    12    1
     5    12    13    1
     6    13    14    1
     7    14    15    1
     8    15    16    1
     9    16    17    1
    10     8     1    1
    11     1     2   ar
    12     2     3   ar
    13     3     4   ar
    14     4    22    1
    15    22    24    1
    16    24    25   ar
    17    25    26   ar
    18    26    27   ar
    19    27    28   ar
    20    28    29    1
    21    28    30   ar
    22    30    31    1
    23     4     5   ar
    24     5     6   ar
    25     6    18    1
    26    18    19    1
    27    18    20    1
    28    18    21    1
    29    17    12    1
    30     6     1   ar
    31    30    24   ar
    32     9    10    1
    33    22    23    1
@<TRIPOS>MOLECULE
*****
 31 33 0 0 0
SMALL
GASTEIGER

@<TRIPOS>ATOM
      1 C           6.6770   -2.6981   20.0019 C.ar    1  UNL1        0.0942
      2 C           7.0007   -2.2460   18.6088 C.ar    1  UNL1        0.1078
      3 N           5.9479   -1.5814   17.7723 N.ar    1  UNL1       -0.2119
      4 C           4.5713   -1.3688   18.3289 C.ar    1  UNL1        0.2207
      5 N           4.2475   -1.8208   19.7220 N.ar    1  UNL1       -0.2094
      6 C           5.3004   -2.4855   20.5585 C.ar    1  UNL1        0.1613
      7 O           8.7085   -2.5305   21.6128 O.2     1  UNL1       -0.2700
      8 C           7.7298   -3.3627   20.8384 C.2     1  UNL1        0.2488
      9 N           7.8039   -4.8597   20.9006 N.am    1  UNL1       -0.3008
     10 H           7.1616   -5.4059   20.3924 H       1  UNL1        0.1497
     11 C           8.8567   -5.5243   21.7371 C.3     1  UNL1        0.0898
     12 C           8.5278   -5.9929   23.1236 C.3     1  UNL1        0.0246
     13 C           7.7172   -5.1221   24.0370 C.3     1  UNL1        0.0338
     14 C           7.3883   -5.5908   25.4235 C.3     1  UNL1        0.1422
     15 O           7.8701   -6.9303   25.8964 O.3     1  UNL1       -0.3538
     16 C           8.6808   -7.8011   24.9830 C.3     1  UNL1        0.1422
     17 C           9.0097   -7.3324   23.5966 C.3     1  UNL1        0.0338
     18 C           4.9767   -2.9376   21.9517 C.3     1  UNL1        0.4351
     19 F           4.6529   -3.3896   23.3448 F       1  UNL1       -0.1644
     20 F           4.5118   -4.2588   21.4149 F       1  UNL1       -0.1644
     21 F           5.4416   -1.6163   22.4884 F       1  UNL1       -0.1644
     22 N           3.5185   -0.7041   17.4924 N.pl3   1  UNL1       -0.2808
     23 H           3.2704   -1.0852   16.6192 H       1  UNL1        0.1551
     24 C           2.8436    0.5411   17.9863 C.ar    1  UNL1        0.0791
     25 C           1.3820    0.5189   18.3229 C.ar    1  UNL1        0.0170
     26 C           0.7072    1.7642   18.8169 C.ar    1  UNL1        0.0023
     27 C           1.4938    3.0316   18.9741 C.ar    1  UNL1        0.0138
     28 C           2.9553    3.0538   18.6374 C.ar    1  UNL1        0.0863
     29 CL          3.7421    4.3212   18.7947 Cl      1  UNL1       -0.0799
     30 C           3.6302    1.8085   18.1435 C.ar    1  UNL1        0.1639
     31 F           5.0918    1.8308   17.8069 F       1  UNL1       -0.2020
@<TRIPOS>BOND
     1     7     8    2
     2     8     9   am
     3     9    11    1
     4    11    12    1
     5    12    13    1
     6    13    14    1
     7    14    15    1
     8    15    16    1
     9    16    17    1
    10     8     1    1
    11     1     2   ar
    12     2     3   ar
    13     3     4   ar
    14     4    22    1
    15    22    24    1
    16    24    25   ar
    17    25    26   ar
    18    26    27   ar
    19    27    28   ar
    20    28    29    1
    21    28    30   ar
    22    30    31    1
    23     4     5   ar
    24     5     6   ar
    25     6    18    1
    26    18    19    1
    27    18    20    1
    28    18    21    1
    29    17    12    1
    30     6     1   ar
    31    30    24   ar
    32     9    10    1
    33    22    23    1
@<TRIPOS>MOLECULE
*****
 31 33 0 0 0
SMALL
GASTEIGER

@<TRIPOS>ATOM
      1 C           4.5064   -2.3439   20.7961 C.ar    1  UNL1        0.0942
      2 C           4.2337   -0.9597   21.3055 C.ar    1  UNL1        0.1078
      3 N           3.6584    0.0776   20.3873 N.ar    1  UNL1       -0.2119
      4 C           3.3559   -0.2694   18.9596 C.ar    1  UNL1        0.2207
      5 N           3.6286   -1.6536   18.4502 N.ar    1  UNL1       -0.2094
      6 C           4.2039   -2.6909   19.3685 C.ar    1  UNL1        0.1613
      7 O           4.2200   -4.5041   22.2108 O.2     1  UNL1       -0.2700
      8 C           5.0817   -3.3812   21.7143 C.2     1  UNL1        0.2488
      9 N           6.5187   -3.2956   22.1360 N.am    1  UNL1       -0.3008
     10 H           7.0843   -2.5586   21.8101 H       1  UNL1        0.1497
     11 C           7.0940   -4.3328   23.0542 C.3     1  UNL1        0.0898
     12 C           6.8816   -4.2242   24.5351 C.3     1  UNL1        0.0246
     13 C           7.0676   -5.4285   25.4098 C.3     1  UNL1        0.0338
     14 C           6.8553   -5.3199   26.8906 C.3     1  UNL1        0.1422
     15 O           6.4570   -4.0070   27.4969 O.3     1  UNL1       -0.3538
     16 C           6.2710   -2.8027   26.6223 C.3     1  UNL1        0.1422
     17 C           6.4833   -2.9113   25.1414 C.3     1  UNL1        0.0338
     18 C           4.4767   -4.0751   18.8591 C.3     1  UNL1        0.4351
     19 F           4.7494   -5.4594   18.3497 F       1  UNL1       -0.1644
     20 F           5.8710   -3.6642   18.4889 F       1  UNL1       -0.1644
     21 F           3.0824   -4.4861   19.2293 F       1  UNL1       -0.1644
     22 N           2.7806    0.7679   18.0414 N.pl3   1  UNL1       -0.2808
     23 H           2.8852    0.6751   17.0669 H       1  UNL1        0.1551
     24 C           2.0460    1.9466   18.6080 C.ar    1  UNL1        0.0791
     25 C           2.5963    3.3304   18.4283 C.ar    1  UNL1        0.0170
     26 C           1.8617    4.5091   18.9949 C.ar    1  UNL1        0.0023
     27 C           0.5768    4.3040   19.7411 C.ar    1  UNL1        0.0138
     28 C           0.0265    2.9202   19.9208 C.ar    1  UNL1        0.0863
     29 CL         -1.2585    2.7151   20.6671 Cl      1  UNL1       -0.0799
     30 C           0.7611    1.7415   19.3543 C.ar    1  UNL1        0.1639
     31 F           0.2108    0.3577   19.5340 F       1  UNL1       -0.2020
@<TRIPOS>BOND
     1     7     8    2
     2     8     9   am
     3     9    11    1
     4    11    12    1
     5    12    13    1
     6    13    14    1
     7    14    15    1
     8    15    16    1
     9    16    17    1
    10     8     1    1
    11     1     2   ar
    12     2     3   ar
    13     3     4   ar
    14     4    22    1
    15    22    24    1
    16    24    25   ar
    17    25    26   ar
    18    26    27   ar
    19    27    28   ar
    20    28    29    1
    21    28    30   ar
    22    30    31    1
    23     4     5   ar
    24     5     6   ar
    25     6    18    1
    26    18    19    1
    27    18    20    1
    28    18    21    1
    29    17    12    1
    30     6     1   ar
    31    30    24   ar
    32     9    10    1
    33    22    23    1
