@<TRIPOS>MOLECULE
*****
 35 39 0 0 0
SMALL
GASTEIGER

@<TRIPOS>ATOM
      1 C          -7.6877  -15.5358   26.1712 C.ar    1  UNL1        0.1355
      2 C          -6.2661  -15.5435   26.6497 C.ar    1  UNL1        0.0367
      3 C          -5.1419  -15.6228   25.6599 C.ar    1  UNL1        0.0076
      4 C          -5.4394  -15.6945   24.1914 C.ar    1  UNL1        0.0538
      5 C          -6.8610  -15.6868   23.7129 C.ar    1  UNL1        0.0041
      6 C          -7.9852  -15.6075   24.7028 C.ar    1  UNL1        0.0232
      7 C          -4.3152  -15.7739   23.2014 C.2     1  UNL1        0.2527
      8 O          -3.6965  -14.5164   22.6669 O.2     1  UNL1       -0.2696
      9 N          -3.8098  -17.1108   22.7461 N.am    1  UNL1       -0.2551
     10 C          -4.3268  -18.4468   23.1905 C.3     1  UNL1        0.1032
     11 C          -3.5352  -19.5080   22.4854 C.3     1  UNL1        0.0495
     12 C          -2.5289  -18.8278   21.6052 C.ar    1  UNL1       -0.0067
     13 C          -1.4801  -19.3662   20.6779 C.ar    1  UNL1       -0.0030
     14 C          -0.6009  -18.4229   19.9116 C.ar    1  UNL1       -0.0002
     15 C          -0.7706  -16.9412   20.0727 C.ar    1  UNL1        0.0013
     16 C          -1.8195  -16.4029   21.0001 C.ar    1  UNL1        0.0146
     17 C          -2.6986  -17.3462   21.7663 C.ar    1  UNL1        0.0502
     18 C          -8.8003  -14.4001   28.2262 C.3     1  UNL1        0.2525
     19 O          -8.8118  -15.4565   27.1612 O.3     1  UNL1       -0.4717
     20 C          -9.4067  -15.5998   24.2242 C.3     1  UNL1        0.0943
     21 S         -10.0827  -16.8886   23.8607 S.3     1  UNL1       -0.0724
     22 C          -9.4852  -17.7790   22.8118 C.ar    1  UNL1        0.1719
     23 N          -8.2222  -18.5766   22.9476 N.ar    1  UNL1       -0.2210
     24 C          -8.0023  -19.3187   21.6628 C.ar    1  UNL1        0.1014
     25 C          -6.9213  -20.2594   21.2194 C.ar    1  UNL1        0.0503
     26 C          -6.9674  -20.8611   19.8460 C.ar    1  UNL1        0.1417
     27 F          -5.8864  -21.8018   19.4027 F       1  UNL1       -0.2041
     28 C          -8.0945  -20.5220   18.9161 C.ar    1  UNL1        0.0312
     29 C          -9.1755  -19.5813   19.3596 C.ar    1  UNL1        0.0211
     30 C          -9.1294  -18.9797   20.7329 C.ar    1  UNL1        0.0797
     31 N         -10.0459  -18.0281   21.4431 N.ar    1  UNL1       -0.3011
     32 C         -11.3024  -17.4305   20.8828 C.3     1  UNL1        0.1496
     33 C         -11.2514  -16.1154   20.1630 C.2     1  UNL1        0.0733
     34 O         -10.0775  -15.2012   20.3534 O.co2   1  UNL1       -0.5472
     35 O         -12.3742  -15.7146   19.2527 O.co2   1  UNL1       -0.5472
@<TRIPOS>UNITY_ATOM_ATTR
34 1
charge -1
@<TRIPOS>BOND
     1    18    19    1
     2    19     1    1
     3     1     2   ar
     4     2     3   ar
     5     3     4   ar
     6     4     7    1
     7     7     8    2
     8     7     9   am
     9     9    10    1
    10    10    11    1
    11    11    12    1
    12    12    13   ar
    13    13    14   ar
    14    14    15   ar
    15    15    16   ar
    16    16    17   ar
    17     4     5   ar
    18     5     6   ar
    19     6    20    1
    20    20    21    1
    21    21    22    1
    22    22    23   ar
    23    23    24   ar
    24    24    25   ar
    25    25    26   ar
    26    26    27    1
    27    26    28   ar
    28    28    29   ar
    29    29    30   ar
    30    30    31   ar
    31    31    32    1
    32    32    33    1
    33    33    34   ar
    34    33    35   ar
    35     6     1   ar
    36    31    22   ar
    37    17     9    1
    38    30    24   ar
    39    17    12   ar
@<TRIPOS>MOLECULE
*****
 35 39 0 0 0
SMALL
GASTEIGER

@<TRIPOS>ATOM
      1 C          -7.6178  -15.6022   26.1508 C.ar    1  UNL1        0.1355
      2 C          -6.2084  -15.3768   26.6120 C.ar    1  UNL1        0.0367
      3 C          -5.0803  -15.4186   25.6244 C.ar    1  UNL1        0.0076
      4 C          -5.3615  -15.6859   24.1755 C.ar    1  UNL1        0.0538
      5 C          -6.7709  -15.9114   23.7142 C.ar    1  UNL1        0.0041
      6 C          -7.8991  -15.8695   24.7019 C.ar    1  UNL1        0.0232
      7 C          -4.2333  -15.7278   23.1877 C.2     1  UNL1        0.2527
      8 O          -3.7143  -14.4548   22.5877 O.2     1  UNL1       -0.2696
      9 N          -3.6243  -17.0426   22.8001 N.am    1  UNL1       -0.2551
     10 C          -4.0356  -18.3905   23.3140 C.3     1  UNL1        0.1032
     11 C          -3.1625  -19.4213   22.6620 C.3     1  UNL1        0.0495
     12 C          -2.2115  -18.7105   21.7453 C.ar    1  UNL1       -0.0067
     13 C          -1.1225  -19.2120   20.8439 C.ar    1  UNL1       -0.0030
     14 C          -0.3189  -18.2434   20.0278 C.ar    1  UNL1       -0.0002
     15 C          -0.6043  -16.7733   20.1132 C.ar    1  UNL1        0.0013
     16 C          -1.6933  -16.2718   21.0146 C.ar    1  UNL1        0.0146
     17 C          -2.4969  -17.2404   21.8307 C.ar    1  UNL1        0.0502
     18 C          -8.8254  -14.4461   28.1397 C.3     1  UNL1        0.2525
     19 O          -8.7459  -15.5603   27.1385 O.3     1  UNL1       -0.4717
     20 C          -9.3085  -16.0950   24.2406 C.3     1  UNL1        0.0943
     21 S          -9.5686  -16.7274   22.9055 S.3     1  UNL1       -0.0724
     22 C          -8.5590  -17.6628   22.3093 C.ar    1  UNL1        0.1719
     23 N          -7.5636  -17.3210   21.2405 N.ar    1  UNL1       -0.2210
     24 C          -6.7570  -18.5512   20.9478 C.ar    1  UNL1        0.1014
     25 C          -5.6342  -18.8103   19.9875 C.ar    1  UNL1        0.0503
     26 C          -5.0082  -20.1716   19.9150 C.ar    1  UNL1        0.1417
     27 F          -3.8854  -20.4306   18.9547 F       1  UNL1       -0.2041
     28 C          -5.5051  -21.2738   20.8028 C.ar    1  UNL1        0.0312
     29 C          -6.6279  -21.0146   21.7632 C.ar    1  UNL1        0.0211
     30 C          -7.2538  -19.6534   21.8356 C.ar    1  UNL1        0.0797
     31 N          -8.3676  -19.1043   22.6771 N.ar    1  UNL1       -0.3011
     32 C          -9.1521  -19.8635   23.7057 C.3     1  UNL1        0.1496
     33 C         -10.6476  -19.9298   23.6099 C.2     1  UNL1        0.0733
     34 O         -11.4946  -19.4339   24.7442 O.co2   1  UNL1       -0.5472
     35 O         -11.2961  -20.4921   22.3797 O.co2   1  UNL1       -0.5472
@<TRIPOS>UNITY_ATOM_ATTR
34 1
charge -1
@<TRIPOS>BOND
     1    18    19    1
     2    19     1    1
     3     1     2   ar
     4     2     3   ar
     5     3     4   ar
     6     4     7    1
     7     7     8    2
     8     7     9   am
     9     9    10    1
    10    10    11    1
    11    11    12    1
    12    12    13   ar
    13    13    14   ar
    14    14    15   ar
    15    15    16   ar
    16    16    17   ar
    17     4     5   ar
    18     5     6   ar
    19     6    20    1
    20    20    21    1
    21    21    22    1
    22    22    23   ar
    23    23    24   ar
    24    24    25   ar
    25    25    26   ar
    26    26    27    1
    27    26    28   ar
    28    28    29   ar
    29    29    30   ar
    30    30    31   ar
    31    31    32    1
    32    32    33    1
    33    33    34   ar
    34    33    35   ar
    35     6     1   ar
    36    31    22   ar
    37    17     9    1
    38    30    24   ar
    39    17    12   ar
@<TRIPOS>MOLECULE
*****
 35 39 0 0 0
SMALL
GASTEIGER

@<TRIPOS>ATOM
      1 C          -2.5518  -18.2733   20.2201 C.ar    1  UNL1        0.1355
      2 C          -1.9154  -17.2069   21.0614 C.ar    1  UNL1        0.0367
      3 C          -2.5411  -16.8067   22.3646 C.ar    1  UNL1        0.0076
      4 C          -3.8032  -17.4729   22.8264 C.ar    1  UNL1        0.0538
      5 C          -4.4395  -18.5393   21.9851 C.ar    1  UNL1        0.0041
      6 C          -3.8139  -18.9395   20.6819 C.ar    1  UNL1        0.0232
      7 C          -4.4289  -17.0727   24.1297 C.2     1  UNL1        0.2527
      8 O          -3.6593  -17.2227   25.4084 O.2     1  UNL1       -0.2696
      9 N          -5.8242  -16.5227   24.1541 N.am    1  UNL1       -0.2551
     10 C          -6.7115  -16.3162   22.9625 C.3     1  UNL1        0.1032
     11 C          -8.0128  -15.7485   23.4464 C.3     1  UNL1        0.0495
     12 C          -7.9298  -15.6040   24.9371 C.ar    1  UNL1       -0.0067
     13 C          -8.9111  -15.0985   25.9528 C.ar    1  UNL1       -0.0030
     14 C          -8.5397  -15.0716   27.4058 C.ar    1  UNL1       -0.0002
     15 C          -7.1870  -15.5501   27.8432 C.ar    1  UNL1        0.0013
     16 C          -6.2057  -16.0555   26.8276 C.ar    1  UNL1        0.0146
     17 C          -6.5771  -16.0825   25.3746 C.ar    1  UNL1        0.0502
     18 C          -1.7956  -17.6712   17.8084 C.3     1  UNL1        0.2525
     19 O          -1.9261  -18.6734   18.9169 O.3     1  UNL1       -0.4717
     20 C          -4.4503  -20.0058   19.8405 C.3     1  UNL1        0.0943
     21 S          -5.4775  -20.9203   20.4393 S.3     1  UNL1       -0.0724
     22 C          -6.7192  -20.3503   21.0584 C.ar    1  UNL1        0.1719
     23 N          -6.9978  -20.2328   22.5276 N.ar    1  UNL1       -0.2210
     24 C          -8.3511  -19.6076   22.6942 C.ar    1  UNL1        0.1014
     25 C          -9.1475  -19.2484   23.9135 C.ar    1  UNL1        0.0503
     26 C         -10.5018  -18.6203   23.7665 C.ar    1  UNL1        0.1417
     27 F         -11.2983  -18.2611   24.9858 F       1  UNL1       -0.2041
     28 C         -11.0596  -18.3514   22.4003 C.ar    1  UNL1        0.0312
     29 C         -10.2631  -18.7106   21.1810 C.ar    1  UNL1        0.0211
     30 C          -8.9089  -19.3387   21.3279 C.ar    1  UNL1        0.0797
     31 N          -7.9003  -19.7977   20.3170 N.ar    1  UNL1       -0.3011
     32 C          -8.0470  -19.7181   18.8263 C.3     1  UNL1        0.1496
     33 C          -9.1339  -20.4890   18.1375 C.2     1  UNL1        0.0733
     34 O          -8.8017  -21.7408   17.3808 O.co2   1  UNL1       -0.5472
     35 O         -10.5531  -20.0080   18.2053 O.co2   1  UNL1       -0.5472
@<TRIPOS>UNITY_ATOM_ATTR
34 1
charge -1
@<TRIPOS>BOND
     1    18    19    1
     2    19     1    1
     3     1     2   ar
     4     2     3   ar
     5     3     4   ar
     6     4     7    1
     7     7     8    2
     8     7     9   am
     9     9    10    1
    10    10    11    1
    11    11    12    1
    12    12    13   ar
    13    13    14   ar
    14    14    15   ar
    15    15    16   ar
    16    16    17   ar
    17     4     5   ar
    18     5     6   ar
    19     6    20    1
    20    20    21    1
    21    21    22    1
    22    22    23   ar
    23    23    24   ar
    24    24    25   ar
    25    25    26   ar
    26    26    27    1
    27    26    28   ar
    28    28    29   ar
    29    29    30   ar
    30    30    31   ar
    31    31    32    1
    32    32    33    1
    33    33    34   ar
    34    33    35   ar
    35     6     1   ar
    36    31    22   ar
    37    17     9    1
    38    30    24   ar
    39    17    12   ar
@<TRIPOS>MOLECULE
*****
 35 39 0 0 0
SMALL
GASTEIGER

@<TRIPOS>ATOM
      1 C           7.2191   -1.6680   18.4604 C.ar    1  UNL1        0.1355
      2 C           8.5994   -1.9354   18.9831 C.ar    1  UNL1        0.0367
      3 C           8.8158   -2.9960   20.0215 C.ar    1  UNL1        0.0076
      4 C           7.6517   -3.7893   20.5371 C.ar    1  UNL1        0.0538
      5 C           6.2714   -3.5218   20.0144 C.ar    1  UNL1        0.0041
      6 C           6.0551   -2.4612   18.9760 C.ar    1  UNL1        0.0232
      7 C           7.8680   -4.8500   21.5755 C.2     1  UNL1        0.2527
      8 O           8.5302   -6.1425   21.2006 O.2     1  UNL1       -0.2696
      9 N           7.4220   -4.6180   22.9888 N.am    1  UNL1       -0.2551
     10 C           6.7496   -3.3824   23.5096 C.3     1  UNL1        0.1032
     11 C           6.4822   -3.5817   24.9720 C.3     1  UNL1        0.0495
     12 C           6.9894   -4.9404   25.3551 C.ar    1  UNL1       -0.0067
     13 C           6.9974   -5.6771   26.6617 C.ar    1  UNL1       -0.0030
     14 C           7.5862   -7.0543   26.7425 C.ar    1  UNL1       -0.0002
     15 C           8.1671   -7.6948   25.5168 C.ar    1  UNL1        0.0013
     16 C           8.1591   -6.9581   24.2102 C.ar    1  UNL1        0.0146
     17 C           7.5703   -5.5809   24.1294 C.ar    1  UNL1        0.0502
     18 C           7.3370    0.8224   17.7293 C.3     1  UNL1        0.2525
     19 O           7.0029   -0.6073   17.4220 O.3     1  UNL1       -0.4717
     20 C           4.6748   -2.1937   18.4533 C.3     1  UNL1        0.0943
     21 S           3.4766   -2.5543   19.2805 S.3     1  UNL1       -0.0724
     22 C           3.1440   -1.7565   20.5064 C.ar    1  UNL1        0.1719
     23 N           3.7988   -1.8893   21.8493 N.ar    1  UNL1       -0.2210
     24 C           3.1576   -0.9007   22.7775 C.ar    1  UNL1        0.1014
     25 C           3.3952   -0.5818   24.2238 C.ar    1  UNL1        0.0503
     26 C           2.5815    0.4811   24.9009 C.ar    1  UNL1        0.1417
     27 F           2.8190    0.8001   26.3472 F       1  UNL1       -0.2041
     28 C           1.5303    1.2250   24.1316 C.ar    1  UNL1        0.0312
     29 C           1.2929    0.9059   22.6852 C.ar    1  UNL1        0.0211
     30 C           2.1065   -0.1569   22.0082 C.ar    1  UNL1        0.0797
     31 N           2.0981   -0.6858   20.6046 N.ar    1  UNL1       -0.3011
     32 C           1.2012   -0.2249   19.4941 C.3     1  UNL1        0.1496
     33 C           1.6316    0.9002   18.6004 C.2     1  UNL1        0.0733
     34 O           3.0643    1.0103   18.1701 O.co2   1  UNL1       -0.5472
     35 O           0.6293    1.9154   18.1369 O.co2   1  UNL1       -0.5472
@<TRIPOS>UNITY_ATOM_ATTR
34 1
charge -1
@<TRIPOS>BOND
     1    18    19    1
     2    19     1    1
     3     1     2   ar
     4     2     3   ar
     5     3     4   ar
     6     4     7    1
     7     7     8    2
     8     7     9   am
     9     9    10    1
    10    10    11    1
    11    11    12    1
    12    12    13   ar
    13    13    14   ar
    14    14    15   ar
    15    15    16   ar
    16    16    17   ar
    17     4     5   ar
    18     5     6   ar
    19     6    20    1
    20    20    21    1
    21    21    22    1
    22    22    23   ar
    23    23    24   ar
    24    24    25   ar
    25    25    26   ar
    26    26    27    1
    27    26    28   ar
    28    28    29   ar
    29    29    30   ar
    30    30    31   ar
    31    31    32    1
    32    32    33    1
    33    33    34   ar
    34    33    35   ar
    35     6     1   ar
    36    31    22   ar
    37    17     9    1
    38    30    24   ar
    39    17    12   ar
@<TRIPOS>MOLECULE
*****
 35 39 0 0 0
SMALL
GASTEIGER

@<TRIPOS>ATOM
      1 C          -3.2062  -18.5289   20.3451 C.ar    1  UNL1        0.1355
      2 C          -2.3541  -17.6228   21.1835 C.ar    1  UNL1        0.0367
      3 C          -2.8642  -17.1213   22.5019 C.ar    1  UNL1        0.0076
      4 C          -4.2266  -17.5259   22.9818 C.ar    1  UNL1        0.0538
      5 C          -5.0787  -18.4320   22.1434 C.ar    1  UNL1        0.0041
      6 C          -4.5686  -18.9334   20.8250 C.ar    1  UNL1        0.0232
      7 C          -4.7368  -17.0244   24.3003 C.2     1  UNL1        0.2527
      8 O          -3.8516  -17.0625   25.5106 O.2     1  UNL1       -0.2696
      9 N          -6.1323  -16.4849   24.4084 N.am    1  UNL1       -0.2551
     10 C          -7.1276  -16.3842   23.2908 C.3     1  UNL1        0.1032
     11 C          -8.3878  -15.7884   23.8447 C.3     1  UNL1        0.0495
     12 C          -8.1713  -15.5209   25.3047 C.ar    1  UNL1       -0.0067
     13 C          -9.0634  -14.9409   26.3619 C.ar    1  UNL1       -0.0030
     14 C          -8.5615  -14.7914   27.7675 C.ar    1  UNL1       -0.0002
     15 C          -7.1675  -15.2218   28.1159 C.ar    1  UNL1        0.0013
     16 C          -6.2754  -15.8018   27.0587 C.ar    1  UNL1        0.0146
     17 C          -6.7773  -15.9513   25.6531 C.ar    1  UNL1        0.0502
     18 C          -1.8419  -18.1458   18.1674 C.3     1  UNL1        0.2525
     19 O          -2.6960  -19.0303   19.0267 O.3     1  UNL1       -0.4717
     20 C          -5.4207  -19.8395   19.9866 C.3     1  UNL1        0.0943
     21 S          -6.6698  -20.4386   20.5617 S.3     1  UNL1       -0.0724
     22 C          -7.9107  -19.6057   20.6902 C.ar    1  UNL1        0.1719
     23 N          -8.5734  -18.8351   19.5872 N.ar    1  UNL1       -0.2210
     24 C          -9.7790  -18.1504   20.1596 C.ar    1  UNL1        0.1014
     25 C         -10.8125  -17.2554   19.5425 C.ar    1  UNL1        0.0503
     26 C         -11.9284  -16.7078   20.3823 C.ar    1  UNL1        0.1417
     27 F         -12.9619  -15.8128   19.7652 F       1  UNL1       -0.2041
     28 C         -12.0108  -17.0554   21.8391 C.ar    1  UNL1        0.0312
     29 C         -10.9772  -17.9504   22.4562 C.ar    1  UNL1        0.0211
     30 C          -9.8614  -18.4979   21.6165 C.ar    1  UNL1        0.0797
     31 N          -8.7067  -19.3974   21.9444 N.ar    1  UNL1       -0.3011
     32 C          -8.4015  -19.9853   23.2902 C.3     1  UNL1        0.1496
     33 C          -9.4624  -20.0233   24.3501 C.2     1  UNL1        0.0733
     34 O          -9.4610  -19.0029   25.4495 O.co2   1  UNL1       -0.5472
     35 O         -10.5245  -21.0817   24.3105 O.co2   1  UNL1       -0.5472
@<TRIPOS>UNITY_ATOM_ATTR
34 1
charge -1
@<TRIPOS>BOND
     1    18    19    1
     2    19     1    1
     3     1     2   ar
     4     2     3   ar
     5     3     4   ar
     6     4     7    1
     7     7     8    2
     8     7     9   am
     9     9    10    1
    10    10    11    1
    11    11    12    1
    12    12    13   ar
    13    13    14   ar
    14    14    15   ar
    15    15    16   ar
    16    16    17   ar
    17     4     5   ar
    18     5     6   ar
    19     6    20    1
    20    20    21    1
    21    21    22    1
    22    22    23   ar
    23    23    24   ar
    24    24    25   ar
    25    25    26   ar
    26    26    27    1
    27    26    28   ar
    28    28    29   ar
    29    29    30   ar
    30    30    31   ar
    31    31    32    1
    32    32    33    1
    33    33    34   ar
    34    33    35   ar
    35     6     1   ar
    36    31    22   ar
    37    17     9    1
    38    30    24   ar
    39    17    12   ar
@<TRIPOS>MOLECULE
*****
 35 39 0 0 0
SMALL
GASTEIGER

@<TRIPOS>ATOM
      1 C           6.4958   -2.0404   22.7747 C.ar    1  UNL1        0.1355
      2 C           6.8130   -0.9505   23.7552 C.ar    1  UNL1        0.0367
      3 C           5.7216   -0.3563   24.5952 C.ar    1  UNL1        0.0076
      4 C           4.3129   -0.8522   24.4547 C.ar    1  UNL1        0.0538
      5 C           3.9957   -1.9421   23.4742 C.ar    1  UNL1        0.0041
      6 C           5.0871   -2.5362   22.6342 C.ar    1  UNL1        0.0232
      7 C           3.2214   -0.2580   25.2948 C.2     1  UNL1        0.2527
      8 O           3.1886   -0.5140   26.7724 O.2     1  UNL1       -0.2696
      9 N           2.1627    0.5921   24.6572 N.am    1  UNL1       -0.2551
     10 C           2.0655    0.9338   23.1999 C.3     1  UNL1        0.1032
     11 C           0.8581    1.8025   23.0070 C.3     1  UNL1        0.0495
     12 C           0.2089    1.9978   24.3451 C.ar    1  UNL1       -0.0067
     13 C          -1.0121    2.7602   24.7666 C.ar    1  UNL1       -0.0030
     14 C          -1.4269    2.7744   26.2080 C.ar    1  UNL1       -0.0002
     15 C          -0.6206    2.0263   27.2279 C.ar    1  UNL1        0.0013
     16 C           0.6005    1.2639   26.8064 C.ar    1  UNL1        0.0146
     17 C           1.0152    1.2497   25.3650 C.ar    1  UNL1        0.0502
     18 C           9.0060   -2.6105   22.4215 C.3     1  UNL1        0.2525
     19 O           7.5873   -2.6345   21.9347 O.3     1  UNL1       -0.4717
     20 C           4.7699   -3.6262   21.6537 C.3     1  UNL1        0.0943
     21 S           4.5102   -3.2888   20.2154 S.3     1  UNL1       -0.0724
     22 C           3.8453   -1.9928   19.8572 C.ar    1  UNL1        0.1719
     23 N           2.3768   -1.7009   19.9470 N.ar    1  UNL1       -0.2210
     24 C           2.1563   -0.2888   19.4916 C.ar    1  UNL1        0.1014
     25 C           0.9144    0.5432   19.3671 C.ar    1  UNL1        0.0503
     26 C           1.0048    1.9561   18.8713 C.ar    1  UNL1        0.1417
     27 F          -0.2371    2.7881   18.7467 F       1  UNL1       -0.2041
     28 C           2.3370    2.5369   18.5002 C.ar    1  UNL1        0.0312
     29 C           3.5789    1.7048   18.6248 C.ar    1  UNL1        0.0211
     30 C           3.4885    0.2920   19.1205 C.ar    1  UNL1        0.0797
     31 N           4.5324   -0.7611   19.3464 N.ar    1  UNL1       -0.3011
     32 C           6.0049   -0.6093   19.1042 C.3     1  UNL1        0.1496
     33 C           6.5795   -0.9248   17.7550 C.2     1  UNL1        0.0733
     34 O           6.9382    0.1867   16.8138 O.co2   1  UNL1       -0.5472
     35 O           6.7953   -2.3520   17.3469 O.co2   1  UNL1       -0.5472
@<TRIPOS>UNITY_ATOM_ATTR
34 1
charge -1
@<TRIPOS>BOND
     1    18    19    1
     2    19     1    1
     3     1     2   ar
     4     2     3   ar
     5     3     4   ar
     6     4     7    1
     7     7     8    2
     8     7     9   am
     9     9    10    1
    10    10    11    1
    11    11    12    1
    12    12    13   ar
    13    13    14   ar
    14    14    15   ar
    15    15    16   ar
    16    16    17   ar
    17     4     5   ar
    18     5     6   ar
    19     6    20    1
    20    20    21    1
    21    21    22    1
    22    22    23   ar
    23    23    24   ar
    24    24    25   ar
    25    25    26   ar
    26    26    27    1
    27    26    28   ar
    28    28    29   ar
    29    29    30   ar
    30    30    31   ar
    31    31    32    1
    32    32    33    1
    33    33    34   ar
    34    33    35   ar
    35     6     1   ar
    36    31    22   ar
    37    17     9    1
    38    30    24   ar
    39    17    12   ar
@<TRIPOS>MOLECULE
*****
 35 39 0 0 0
SMALL
GASTEIGER

@<TRIPOS>ATOM
      1 C           7.1628   -1.8407   18.5348 C.ar    1  UNL1        0.1355
      2 C           8.5549   -2.0852   19.0371 C.ar    1  UNL1        0.0367
      3 C           8.8029   -3.1363   20.0780 C.ar    1  UNL1        0.0076
      4 C           7.6587   -3.9429   20.6167 C.ar    1  UNL1        0.0538
      5 C           6.2666   -3.6984   20.1145 C.ar    1  UNL1        0.0041
      6 C           6.0186   -2.6473   19.0736 C.ar    1  UNL1        0.0232
      7 C           7.9066   -4.9941   21.6578 C.2     1  UNL1        0.2527
      8 O           8.5806   -6.2796   21.2797 O.2     1  UNL1       -0.2696
      9 N           7.4805   -4.7596   23.0767 N.am    1  UNL1       -0.2551
     10 C           6.7994   -3.5303   23.6011 C.3     1  UNL1        0.1032
     11 C           6.5586   -3.7243   25.0689 C.3     1  UNL1        0.0495
     12 C           7.0909   -5.0734   25.4517 C.ar    1  UNL1       -0.0067
     13 C           7.1304   -5.8019   26.7623 C.ar    1  UNL1       -0.0030
     14 C           7.7397   -7.1703   26.8416 C.ar    1  UNL1       -0.0002
     15 C           8.3094   -7.8101   25.6104 C.ar    1  UNL1        0.0013
     16 C           8.2699   -7.0817   24.2998 C.ar    1  UNL1        0.0146
     17 C           7.6607   -5.7133   24.2204 C.ar    1  UNL1        0.0502
     18 C           7.4784    0.5893   17.6711 C.3     1  UNL1        0.2525
     19 O           6.9149   -0.7895   17.4939 O.3     1  UNL1       -0.4717
     20 C           4.6265   -2.4027   18.5713 C.3     1  UNL1        0.0943
     21 S           3.4522   -2.6256   19.4777 S.3     1  UNL1       -0.0724
     22 C           2.7895   -1.4584   20.1474 C.ar    1  UNL1        0.1719
     23 N           1.4464   -0.8884   19.7997 N.ar    1  UNL1       -0.2210
     24 C           1.1805    0.2660   20.7198 C.ar    1  UNL1        0.1014
     25 C           0.0172    1.2051   20.8415 C.ar    1  UNL1        0.0503
     26 C           0.0327    2.2877   21.8798 C.ar    1  UNL1        0.1417
     27 F          -1.1306    3.2268   22.0015 F       1  UNL1       -0.2041
     28 C           1.2115    2.4312   22.7961 C.ar    1  UNL1        0.0312
     29 C           2.3748    1.4920   22.6743 C.ar    1  UNL1        0.0211
     30 C           2.3593    0.4095   21.6361 C.ar    1  UNL1        0.0797
     31 N           3.3538   -0.6563   21.2824 N.ar    1  UNL1       -0.3011
     32 C           4.6797   -0.8805   21.9469 C.3     1  UNL1        0.1496
     33 C           5.8692   -0.0607   21.5431 C.2     1  UNL1        0.0733
     34 O           5.6856    1.1542   20.6828 O.co2   1  UNL1       -0.5472
     35 O           7.2423   -0.4559   21.9997 O.co2   1  UNL1       -0.5472
@<TRIPOS>UNITY_ATOM_ATTR
34 1
charge -1
@<TRIPOS>BOND
     1    18    19    1
     2    19     1    1
     3     1     2   ar
     4     2     3   ar
     5     3     4   ar
     6     4     7    1
     7     7     8    2
     8     7     9   am
     9     9    10    1
    10    10    11    1
    11    11    12    1
    12    12    13   ar
    13    13    14   ar
    14    14    15   ar
    15    15    16   ar
    16    16    17   ar
    17     4     5   ar
    18     5     6   ar
    19     6    20    1
    20    20    21    1
    21    21    22    1
    22    22    23   ar
    23    23    24   ar
    24    24    25   ar
    25    25    26   ar
    26    26    27    1
    27    26    28   ar
    28    28    29   ar
    29    29    30   ar
    30    30    31   ar
    31    31    32    1
    32    32    33    1
    33    33    34   ar
    34    33    35   ar
    35     6     1   ar
    36    31    22   ar
    37    17     9    1
    38    30    24   ar
    39    17    12   ar
@<TRIPOS>MOLECULE
*****
 35 39 0 0 0
SMALL
GASTEIGER

@<TRIPOS>ATOM
      1 C           2.7704    2.8398   18.7686 C.ar    1  UNL1        0.1355
      2 C           2.3676    4.2811   18.6664 C.ar    1  UNL1        0.0367
      3 C           0.9480    4.6420   18.3436 C.ar    1  UNL1        0.0076
      4 C          -0.0689    3.5616   18.1230 C.ar    1  UNL1        0.0538
      5 C           0.3339    2.1203   18.2252 C.ar    1  UNL1        0.0041
      6 C           1.7535    1.7594   18.5480 C.ar    1  UNL1        0.0232
      7 C          -1.4887    3.9225   17.8001 C.2     1  UNL1        0.2527
      8 O          -1.8415    4.4285   16.4330 O.2     1  UNL1       -0.2696
      9 N          -2.5555    3.7773   18.8446 N.am    1  UNL1       -0.2551
     10 C          -2.3546    3.2870   20.2479 C.3     1  UNL1        0.1032
     11 C          -3.6855    3.3036   20.9396 C.3     1  UNL1        0.0495
     12 C          -4.7089    3.8041   19.9639 C.ar    1  UNL1       -0.0067
     13 C          -6.1864    4.0311   20.0871 C.ar    1  UNL1       -0.0030
     14 C          -6.9656    4.5509   18.9156 C.ar    1  UNL1       -0.0002
     15 C          -6.2673    4.8437   17.6207 C.ar    1  UNL1        0.0013
     16 C          -4.7897    4.6167   17.4975 C.ar    1  UNL1        0.0146
     17 C          -4.0105    4.0969   18.6690 C.ar    1  UNL1        0.0502
     18 C           5.2560    2.6183   18.0451 C.3     1  UNL1        0.2525
     19 O           4.1901    2.4789   19.0914 O.3     1  UNL1       -0.4717
     20 C           2.1564    0.3181   18.6503 C.3     1  UNL1        0.0943
     21 S           1.7105   -0.5039   19.8231 S.3     1  UNL1       -0.0724
     22 C           2.7222   -1.2379   20.6525 C.ar    1  UNL1        0.1719
     23 N           2.9319   -1.0817   22.1294 N.ar    1  UNL1       -0.2210
     24 C           4.0411   -2.0042   22.5402 C.ar    1  UNL1        0.1014
     25 C           4.6793   -2.2767   23.8700 C.ar    1  UNL1        0.0503
     26 C           5.7934   -3.2755   23.9767 C.ar    1  UNL1        0.1417
     27 F           6.4316   -3.5480   25.3065 F       1  UNL1       -0.2041
     28 C           6.2691   -4.0018   22.7535 C.ar    1  UNL1        0.0312
     29 C           5.6308   -3.7293   21.4237 C.ar    1  UNL1        0.0211
     30 C           4.5168   -2.7305   21.3170 C.ar    1  UNL1        0.0797
     31 N           3.7017   -2.2569   20.1503 N.ar    1  UNL1       -0.3011
     32 C           3.8415   -2.7208   18.7308 C.3     1  UNL1        0.1496
     33 C           4.9017   -2.1296   17.8495 C.2     1  UNL1        0.0733
     34 O           4.5552   -1.0222   16.8989 O.co2   1  UNL1       -0.5472
     35 O           6.3083   -2.6459   17.9188 O.co2   1  UNL1       -0.5472
@<TRIPOS>UNITY_ATOM_ATTR
34 1
charge -1
@<TRIPOS>BOND
     1    18    19    1
     2    19     1    1
     3     1     2   ar
     4     2     3   ar
     5     3     4   ar
     6     4     7    1
     7     7     8    2
     8     7     9   am
     9     9    10    1
    10    10    11    1
    11    11    12    1
    12    12    13   ar
    13    13    14   ar
    14    14    15   ar
    15    15    16   ar
    16    16    17   ar
    17     4     5   ar
    18     5     6   ar
    19     6    20    1
    20    20    21    1
    21    21    22    1
    22    22    23   ar
    23    23    24   ar
    24    24    25   ar
    25    25    26   ar
    26    26    27    1
    27    26    28   ar
    28    28    29   ar
    29    29    30   ar
    30    30    31   ar
    31    31    32    1
    32    32    33    1
    33    33    34   ar
    34    33    35   ar
    35     6     1   ar
    36    31    22   ar
    37    17     9    1
    38    30    24   ar
    39    17    12   ar
@<TRIPOS>MOLECULE
*****
 35 39 0 0 0
SMALL
GASTEIGER

@<TRIPOS>ATOM
      1 C           7.5717   -4.8965   22.8675 C.ar    1  UNL1        0.1355
      2 C           8.2316   -5.8698   23.7988 C.ar    1  UNL1        0.0367
      3 C           7.9989   -5.7690   25.2772 C.ar    1  UNL1        0.0076
      4 C           7.1064   -4.6947   25.8243 C.ar    1  UNL1        0.0538
      5 C           6.4465   -3.7214   24.8931 C.ar    1  UNL1        0.0041
      6 C           6.6792   -3.8222   23.4147 C.ar    1  UNL1        0.0232
      7 C           6.8736   -4.5938   27.3028 C.2     1  UNL1        0.2527
      8 O           5.8663   -5.4857   27.9659 O.2     1  UNL1       -0.2696
      9 N           7.6483   -3.6011   28.1179 N.am    1  UNL1       -0.2551
     10 C           8.6828   -2.6482   27.5967 C.3     1  UNL1        0.1032
     11 C           9.1982   -1.8452   28.7540 C.3     1  UNL1        0.0495
     12 C           8.4823   -2.3018   29.9906 C.ar    1  UNL1       -0.0067
     13 C           8.5789   -1.8696   31.4237 C.ar    1  UNL1       -0.0030
     14 C           7.7175   -2.5227   32.4636 C.ar    1  UNL1       -0.0002
     15 C           6.7596   -3.6080   32.0704 C.ar    1  UNL1        0.0013
     16 C           6.6630   -4.0401   30.6373 C.ar    1  UNL1        0.0146
     17 C           7.5243   -3.3871   29.5974 C.ar    1  UNL1        0.0502
     18 C           9.0754   -4.4697   20.7921 C.3     1  UNL1        0.2525
     19 O           7.8045   -4.9974   21.3892 O.3     1  UNL1       -0.4717
     20 C           6.0194   -2.8489   22.4834 C.3     1  UNL1        0.0943
     21 S           4.8015   -3.2589   21.7097 S.3     1  UNL1       -0.0724
     22 C           3.8901   -2.2144   21.1368 C.ar    1  UNL1        0.1719
     23 N           2.8794   -1.4113   21.9005 N.ar    1  UNL1       -0.2210
     24 C           2.1940   -0.4902   20.9352 C.ar    1  UNL1        0.1014
     25 C           1.1112    0.5314   21.1192 C.ar    1  UNL1        0.0503
     26 C           0.6154    1.3191   19.9428 C.ar    1  UNL1        0.1417
     27 F          -0.4675    2.3406   20.1268 F       1  UNL1       -0.2041
     28 C           1.2025    1.0852   18.5825 C.ar    1  UNL1        0.0312
     29 C           2.2854    0.0636   18.3985 C.ar    1  UNL1        0.0211
     30 C           2.7812   -0.7240   19.5749 C.ar    1  UNL1        0.0797
     31 N           3.8294   -1.7897   19.6994 N.ar    1  UNL1       -0.3011
     32 C           4.6694   -2.3349   18.5827 C.3     1  UNL1        0.1496
     33 C           5.8401   -1.5483   18.0719 C.2     1  UNL1        0.0733
     34 O           5.8860   -0.0614   18.2644 O.co2   1  UNL1       -0.5472
     35 O           6.9647   -2.2486   17.3685 O.co2   1  UNL1       -0.5472
@<TRIPOS>UNITY_ATOM_ATTR
34 1
charge -1
@<TRIPOS>BOND
     1    18    19    1
     2    19     1    1
     3     1     2   ar
     4     2     3   ar
     5     3     4   ar
     6     4     7    1
     7     7     8    2
     8     7     9   am
     9     9    10    1
    10    10    11    1
    11    11    12    1
    12    12    13   ar
    13    13    14   ar
    14    14    15   ar
    15    15    16   ar
    16    16    17   ar
    17     4     5   ar
    18     5     6   ar
    19     6    20    1
    20    20    21    1
    21    21    22    1
    22    22    23   ar
    23    23    24   ar
    24    24    25   ar
    25    25    26   ar
    26    26    27    1
    27    26    28   ar
    28    28    29   ar
    29    29    30   ar
    30    30    31   ar
    31    31    32    1
    32    32    33    1
    33    33    34   ar
    34    33    35   ar
    35     6     1   ar
    36    31    22   ar
    37    17     9    1
    38    30    24   ar
    39    17    12   ar
