@<TRIPOS>MOLECULE
*****
 18 19 0 0 0
SMALL
GASTEIGER

@<TRIPOS>ATOM
      1 C          -6.6839  -20.2507   21.9804 C.2     1  UNL1        0.0033
      2 C          -7.6412  -19.1521   22.3359 C.2     1  UNL1        0.0420
      3 C          -2.5005  -19.2498   20.6583 C.ar    1  UNL1        0.1387
      4 C          -3.4431  -19.9323   19.7119 C.ar    1  UNL1        0.0369
      5 C          -4.8375  -20.2659   20.1526 C.ar    1  UNL1        0.0031
      6 C          -5.2894  -19.9171   21.5397 C.ar    1  UNL1        0.0003
      7 C          -4.3469  -19.2346   22.4861 C.ar    1  UNL1        0.0031
      8 C          -2.9524  -18.9010   22.0454 C.ar    1  UNL1        0.0369
      9 C          -0.6778  -17.4831   20.1049 C.3     1  UNL1        0.2525
     10 O          -1.1061  -18.9162   20.2177 O.3     1  UNL1       -0.4714
     11 C          -9.0356  -19.4857   22.7766 C.2     1  UNL1        0.1957
     12 O          -9.2579  -20.5052   23.8541 O.2     1  UNL1       -0.2866
     13 C         -10.2078  -18.7998   22.1397 C.ar    1  UNL1        0.0420
     14 C         -10.1673  -18.4427   20.6834 C.ar    1  UNL1        0.0239
     15 C         -11.3395  -17.7567   20.0465 C.ar    1  UNL1        0.0990
     16 N         -12.5521  -17.4279   20.8659 N.ar    1  UNL1       -0.2423
     17 C         -12.5925  -17.7850   22.3223 C.ar    1  UNL1        0.0990
     18 C         -11.4204  -18.4709   22.9591 C.ar    1  UNL1        0.0239
@<TRIPOS>BOND
     1     9    10    1
     2    10     3    1
     3     3     4   ar
     4     4     5   ar
     5     5     6   ar
     6     6     1    1
     7     1     2    2
     8     2    11    1
     9    11    12    2
    10    11    13    1
    11    13    14   ar
    12    14    15   ar
    13    15    16   ar
    14    16    17   ar
    15    17    18   ar
    16     6     7   ar
    17     7     8   ar
    18     8     3   ar
    19    18    13   ar
@<TRIPOS>MOLECULE
*****
 18 19 0 0 0
SMALL
GASTEIGER

@<TRIPOS>ATOM
      1 C          -6.2125  -19.5143   21.6211 C.2     1  UNL1        0.0033
      2 C          -7.3206  -18.9893   20.7572 C.2     1  UNL1        0.0420
      3 C          -1.9279  -18.9974   20.3465 C.ar    1  UNL1        0.1387
      4 C          -2.2577  -19.2300   21.7911 C.ar    1  UNL1        0.0369
      5 C          -3.6859  -19.4024   22.2160 C.ar    1  UNL1        0.0031
      6 C          -4.7843  -19.3420   21.1963 C.ar    1  UNL1        0.0003
      7 C          -4.4544  -19.1093   19.7516 C.ar    1  UNL1        0.0031
      8 C          -3.0262  -18.9370   19.3268 C.ar    1  UNL1        0.0369
      9 C           0.1539  -17.4783   20.0169 C.3     1  UNL1        0.2525
     10 O          -0.4996  -18.8250   19.9216 O.3     1  UNL1       -0.4714
     11 C          -8.7488  -19.1616   21.1821 C.2     1  UNL1        0.1957
     12 O          -9.8034  -19.4681   20.1604 O.2     1  UNL1       -0.2866
     13 C          -9.1223  -19.0274   22.6286 C.ar    1  UNL1        0.0420
     14 C          -9.5559  -20.2345   23.4064 C.ar    1  UNL1        0.0239
     15 C          -9.9294  -20.1003   24.8530 C.ar    1  UNL1        0.0990
     16 N          -9.8694  -18.7589   25.5217 N.ar    1  UNL1       -0.2423
     17 C          -9.4358  -17.5518   24.7439 C.ar    1  UNL1        0.0990
     18 C          -9.0623  -17.6861   23.2974 C.ar    1  UNL1        0.0239
@<TRIPOS>BOND
     1     9    10    1
     2    10     3    1
     3     3     4   ar
     4     4     5   ar
     5     5     6   ar
     6     6     1    1
     7     1     2    2
     8     2    11    1
     9    11    12    2
    10    11    13    1
    11    13    14   ar
    12    14    15   ar
    13    15    16   ar
    14    16    17   ar
    15    17    18   ar
    16     6     7   ar
    17     7     8   ar
    18     8     3   ar
    19    18    13   ar
@<TRIPOS>MOLECULE
*****
 18 19 0 0 0
SMALL
GASTEIGER

@<TRIPOS>ATOM
      1 C          -7.6596  -19.7019   22.1951 C.2     1  UNL1        0.0033
      2 C          -6.9973  -19.4636   20.8705 C.2     1  UNL1        0.0420
      3 C         -11.7100  -17.9310   23.0366 C.ar    1  UNL1        0.1387
      4 C         -11.5492  -18.9531   21.9505 C.ar    1  UNL1        0.0369
      5 C         -10.1991  -19.5434   21.6701 C.ar    1  UNL1        0.0031
      6 C          -9.0097  -19.1116   22.4756 C.ar    1  UNL1        0.0003
      7 C          -9.1705  -18.0895   23.5616 C.ar    1  UNL1        0.0031
      8 C         -10.5206  -17.4992   23.8421 C.ar    1  UNL1        0.0369
      9 C         -14.0438  -18.0888   24.1672 C.3     1  UNL1        0.2525
     10 O         -13.0601  -17.3408   23.3171 O.3     1  UNL1       -0.4714
     11 C          -5.6472  -20.0539   20.5900 C.2     1  UNL1        0.1957
     12 O          -5.5337  -21.4660   20.0972 O.2     1  UNL1       -0.2866
     13 C          -4.4105  -19.2319   20.8022 C.ar    1  UNL1        0.0420
     14 C          -3.5604  -18.8395   19.6303 C.ar    1  UNL1        0.0239
     15 C          -2.3237  -18.0175   19.8426 C.ar    1  UNL1        0.0990
     16 N          -1.9371  -17.5880   21.2268 N.ar    1  UNL1       -0.2423
     17 C          -2.7873  -17.9804   22.3988 C.ar    1  UNL1        0.0990
     18 C          -4.0239  -18.8024   22.1865 C.ar    1  UNL1        0.0239
@<TRIPOS>BOND
     1     9    10    1
     2    10     3    1
     3     3     4   ar
     4     4     5   ar
     5     5     6   ar
     6     6     1    1
     7     1     2    2
     8     2    11    1
     9    11    12    2
    10    11    13    1
    11    13    14   ar
    12    14    15   ar
    13    15    16   ar
    14    16    17   ar
    15    17    18   ar
    16     6     7   ar
    17     7     8   ar
    18     8     3   ar
    19    18    13   ar
@<TRIPOS>MOLECULE
*****
 18 19 0 0 0
SMALL
GASTEIGER

@<TRIPOS>ATOM
      1 C          -6.5071  -20.0255   21.1706 C.2     1  UNL1        0.0033
      2 C          -5.5506  -19.3357   20.2437 C.2     1  UNL1        0.0420
      3 C         -10.8488  -18.8434   21.2113 C.ar    1  UNL1        0.1387
      4 C         -10.1199  -18.9761   19.9072 C.ar    1  UNL1        0.0369
      5 C          -8.6726  -19.3702   19.8936 C.ar    1  UNL1        0.0031
      6 C          -7.9543  -19.6315   21.1842 C.ar    1  UNL1        0.0003
      7 C          -8.6833  -19.4988   22.4884 C.ar    1  UNL1        0.0031
      8 C         -10.1305  -19.1047   22.5019 C.ar    1  UNL1        0.0369
      9 C         -12.8489  -17.6644   22.3774 C.3     1  UNL1        0.2525
     10 O         -12.2961  -18.4493   21.2249 O.3     1  UNL1       -0.4714
     11 C          -4.1033  -19.7297   20.2301 C.2     1  UNL1        0.1957
     12 O          -3.7203  -21.1733   20.0910 O.2     1  UNL1       -0.2866
     13 C          -3.0390  -18.6801   20.3557 C.ar    1  UNL1        0.0420
     14 C          -3.0814  -17.7012   21.4915 C.ar    1  UNL1        0.0239
     15 C          -2.0171  -16.6516   21.6170 C.ar    1  UNL1        0.0990
     16 N          -0.9105  -16.5810   20.6069 N.ar    1  UNL1       -0.2423
     17 C          -0.8682  -17.5600   19.4711 C.ar    1  UNL1        0.0990
     18 C          -1.9324  -18.6095   19.3456 C.ar    1  UNL1        0.0239
@<TRIPOS>BOND
     1     9    10    1
     2    10     3    1
     3     3     4   ar
     4     4     5   ar
     5     5     6   ar
     6     6     1    1
     7     1     2    2
     8     2    11    1
     9    11    12    2
    10    11    13    1
    11    13    14   ar
    12    14    15   ar
    13    15    16   ar
    14    16    17   ar
    15    17    18   ar
    16     6     7   ar
    17     7     8   ar
    18     8     3   ar
    19    18    13   ar
@<TRIPOS>MOLECULE
*****
 18 19 0 0 0
SMALL
GASTEIGER

@<TRIPOS>ATOM
      1 C          -6.4656  -17.1442   23.5085 C.2     1  UNL1        0.0033
      2 C          -7.7097  -17.1408   22.6705 C.2     1  UNL1        0.0420
      3 C          -2.5799  -18.5925   21.7610 C.ar    1  UNL1        0.1387
      4 C          -3.8320  -19.3972   21.5750 C.ar    1  UNL1        0.0369
      5 C          -5.1272  -18.9144   22.1575 C.ar    1  UNL1        0.0031
      6 C          -5.1704  -17.6270   22.9260 C.ar    1  UNL1        0.0003
      7 C          -3.9183  -16.8223   23.1120 C.ar    1  UNL1        0.0031
      8 C          -2.6230  -17.3050   22.5295 C.ar    1  UNL1        0.0369
      9 C          -0.6541  -18.3355   20.0361 C.3     1  UNL1        0.2525
     10 O          -1.2846  -19.0752   21.1786 O.3     1  UNL1       -0.4714
     11 C          -9.0050  -16.6580   23.2530 C.2     1  UNL1        0.1957
     12 O          -9.0320  -16.0590   24.6279 O.2     1  UNL1       -0.2866
     13 C         -10.2733  -16.7744   22.4605 C.ar    1  UNL1        0.0420
     14 C         -10.4132  -16.0444   21.1576 C.ar    1  UNL1        0.0239
     15 C         -11.6815  -16.1607   20.3652 C.ar    1  UNL1        0.0990
     16 N         -12.8098  -17.0070   20.8756 N.ar    1  UNL1       -0.2423
     17 C         -12.6699  -17.7370   22.1786 C.ar    1  UNL1        0.0990
     18 C         -11.4016  -17.6207   22.9710 C.ar    1  UNL1        0.0239
@<TRIPOS>BOND
     1     9    10    1
     2    10     3    1
     3     3     4   ar
     4     4     5   ar
     5     5     6   ar
     6     6     1    1
     7     1     2    2
     8     2    11    1
     9    11    12    2
    10    11    13    1
    11    13    14   ar
    12    14    15   ar
    13    15    16   ar
    14    16    17   ar
    15    17    18   ar
    16     6     7   ar
    17     7     8   ar
    18     8     3   ar
    19    18    13   ar
@<TRIPOS>MOLECULE
*****
 18 19 0 0 0
SMALL
GASTEIGER

@<TRIPOS>ATOM
      1 C          -6.8913  -19.8250   22.2645 C.2     1  UNL1        0.0033
      2 C          -5.8090  -18.8132   22.0308 C.2     1  UNL1        0.0420
      3 C         -11.2099  -18.5645   22.1630 C.ar    1  UNL1        0.1387
      4 C         -10.2104  -17.8893   21.2714 C.ar    1  UNL1        0.0369
      5 C          -8.7709  -18.3095   21.3053 C.ar    1  UNL1        0.0031
      6 C          -8.3308  -19.4048   22.2307 C.ar    1  UNL1        0.0003
      7 C          -9.3304  -20.0800   23.1223 C.ar    1  UNL1        0.0031
      8 C         -10.7699  -19.6599   23.0884 C.ar    1  UNL1        0.0369
      9 C         -13.3705  -17.8342   23.4074 C.3     1  UNL1        0.2525
     10 O         -12.6495  -18.1443   22.1292 O.3     1  UNL1       -0.4714
     11 C          -4.3694  -19.2333   22.0646 C.2     1  UNL1        0.1957
     12 O          -3.9258  -20.3154   23.0039 O.2     1  UNL1       -0.2866
     13 C          -3.3734  -18.5714   21.1591 C.ar    1  UNL1        0.0420
     14 C          -3.2733  -18.9887   19.7218 C.ar    1  UNL1        0.0239
     15 C          -2.2773  -18.3267   18.8163 C.ar    1  UNL1        0.0990
     16 N          -1.3815  -17.2475   19.3481 N.ar    1  UNL1       -0.2423
     17 C          -1.4817  -16.8302   20.7855 C.ar    1  UNL1        0.0990
     18 C          -2.4776  -17.4922   21.6909 C.ar    1  UNL1        0.0239
@<TRIPOS>BOND
     1     9    10    1
     2    10     3    1
     3     3     4   ar
     4     4     5   ar
     5     5     6   ar
     6     6     1    1
     7     1     2    2
     8     2    11    1
     9    11    12    2
    10    11    13    1
    11    13    14   ar
    12    14    15   ar
    13    15    16   ar
    14    16    17   ar
    15    17    18   ar
    16     6     7   ar
    17     7     8   ar
    18     8     3   ar
    19    18    13   ar
@<TRIPOS>MOLECULE
*****
 18 19 0 0 0
SMALL
GASTEIGER

@<TRIPOS>ATOM
      1 C          -7.7888  -16.6312   24.5537 C.2     1  UNL1        0.0033
      2 C          -6.7686  -16.5288   23.4589 C.2     1  UNL1        0.0420
      3 C         -12.0159  -17.8325   23.5851 C.ar    1  UNL1        0.1387
      4 C         -11.4083  -16.6297   22.9262 C.ar    1  UNL1        0.0369
      5 C          -9.9993  -16.2293   23.2491 C.ar    1  UNL1        0.0031
      6 C          -9.1978  -17.0316   24.2309 C.ar    1  UNL1        0.0003
      7 C          -9.8054  -18.2344   24.8897 C.ar    1  UNL1        0.0031
      8 C         -11.2145  -18.6348   24.5668 C.ar    1  UNL1        0.0369
      9 C         -14.4795  -18.1911   24.3280 C.3     1  UNL1        0.2525
     10 O         -13.4250  -18.2329   23.2622 O.3     1  UNL1       -0.4714
     11 C          -5.3596  -16.1283   23.7818 C.2     1  UNL1        0.1957
     12 O          -5.0980  -15.0704   24.8124 O.2     1  UNL1       -0.2866
     13 C          -4.2121  -16.7860   23.0740 C.ar    1  UNL1        0.0420
     14 C          -4.1264  -18.2823   23.0136 C.ar    1  UNL1        0.0239
     15 C          -2.9789  -18.9399   22.3059 C.ar    1  UNL1        0.0990
     16 N          -1.9171  -18.1011   21.6585 N.ar    1  UNL1       -0.2423
     17 C          -2.0028  -16.6047   21.7189 C.ar    1  UNL1        0.0990
     18 C          -3.1503  -15.9472   22.4267 C.ar    1  UNL1        0.0239
@<TRIPOS>BOND
     1     9    10    1
     2    10     3    1
     3     3     4   ar
     4     4     5   ar
     5     5     6   ar
     6     6     1    1
     7     1     2    2
     8     2    11    1
     9    11    12    2
    10    11    13    1
    11    13    14   ar
    12    14    15   ar
    13    15    16   ar
    14    16    17   ar
    15    17    18   ar
    16     6     7   ar
    17     7     8   ar
    18     8     3   ar
    19    18    13   ar
@<TRIPOS>MOLECULE
*****
 18 19 0 0 0
SMALL
GASTEIGER

@<TRIPOS>ATOM
      1 C         -12.8096   -5.7141   19.1424 C.2     1  UNL1        0.0033
      2 C         -11.4322   -6.0221   18.6348 C.2     1  UNL1        0.0420
      3 C         -16.1282   -8.7046   18.6007 C.ar    1  UNL1        0.1387
      4 C         -14.7580   -8.9999   18.0668 C.ar    1  UNL1        0.0369
      5 C         -13.6518   -8.0031   18.2474 C.ar    1  UNL1        0.0031
      6 C         -13.9158   -6.7109   18.9619 C.ar    1  UNL1        0.0003
      7 C         -15.2861   -6.4156   19.4958 C.ar    1  UNL1        0.0031
      8 C         -16.3923   -7.4125   19.3153 C.ar    1  UNL1        0.0369
      9 C         -16.9854  -11.1555   18.6914 C.3     1  UNL1        0.2525
     10 O         -17.2344   -9.7015   18.4202 O.3     1  UNL1       -0.4714
     11 C         -10.3260   -5.0252   18.8153 C.2     1  UNL1        0.1957
     12 O          -9.1769   -5.3371   19.7276 O.2     1  UNL1       -0.2866
     13 C         -10.3689   -3.7165   18.0836 C.ar    1  UNL1        0.0420
     14 C         -11.0575   -2.5349   18.6999 C.ar    1  UNL1        0.0239
     15 C         -11.1004   -1.2261   17.9681 C.ar    1  UNL1        0.0990
     16 N         -10.4548   -1.0990   16.6201 N.ar    1  UNL1       -0.2423
     17 C          -9.7663   -2.2807   16.0039 C.ar    1  UNL1        0.0990
     18 C          -9.7234   -3.5894   16.7356 C.ar    1  UNL1        0.0239
@<TRIPOS>BOND
     1     9    10    1
     2    10     3    1
     3     3     4   ar
     4     4     5   ar
     5     5     6   ar
     6     6     1    1
     7     1     2    2
     8     2    11    1
     9    11    12    2
    10    11    13    1
    11    13    14   ar
    12    14    15   ar
    13    15    16   ar
    14    16    17   ar
    15    17    18   ar
    16     6     7   ar
    17     7     8   ar
    18     8     3   ar
    19    18    13   ar
@<TRIPOS>MOLECULE
*****
 18 19 0 0 0
SMALL
GASTEIGER

@<TRIPOS>ATOM
      1 C         -14.2079   -7.6018   18.7352 C.2     1  UNL1        0.0033
      2 C         -14.4335   -8.9056   18.0287 C.2     1  UNL1        0.0420
      3 C         -10.4639   -5.2334   17.9461 C.ar    1  UNL1        0.1387
      4 C         -11.4320   -4.7777   18.9973 C.ar    1  UNL1        0.0369
      5 C         -12.6800   -5.5672   19.2604 C.ar    1  UNL1        0.0031
      6 C         -12.9599   -6.8123   18.4722 C.ar    1  UNL1        0.0003
      7 C         -11.9918   -7.2680   17.4210 C.ar    1  UNL1        0.0031
      8 C         -10.7438   -6.4785   17.1579 C.ar    1  UNL1        0.0369
      9 C          -8.9396   -3.9140   16.3073 C.3     1  UNL1        0.2525
     10 O          -9.2159   -4.4439   17.6831 O.3     1  UNL1       -0.4714
     11 C         -15.6815   -9.6951   18.2918 C.2     1  UNL1        0.1957
     12 O         -15.6477  -11.1935   18.2320 O.2     1  UNL1       -0.2866
     13 C         -16.9634   -8.9861   18.6146 C.ar    1  UNL1        0.0420
     14 C         -17.8496   -8.4975   17.5075 C.ar    1  UNL1        0.0239
     15 C         -19.1315   -7.7885   17.8303 C.ar    1  UNL1        0.0990
     16 N         -19.5271   -7.5681   19.2603 N.ar    1  UNL1       -0.2423
     17 C         -18.6408   -8.0568   20.3675 C.ar    1  UNL1        0.0990
     18 C         -17.3590   -8.7657   20.0446 C.ar    1  UNL1        0.0239
@<TRIPOS>BOND
     1     9    10    1
     2    10     3    1
     3     3     4   ar
     4     4     5   ar
     5     5     6   ar
     6     6     1    1
     7     1     2    2
     8     2    11    1
     9    11    12    2
    10    11    13    1
    11    13    14   ar
    12    14    15   ar
    13    15    16   ar
    14    16    17   ar
    15    17    18   ar
    16     6     7   ar
    17     7     8   ar
    18     8     3   ar
    19    18    13   ar
