@<TRIPOS>MOLECULE
*****
 37 42 0 0 0
SMALL
GASTEIGER

@<TRIPOS>ATOM
      1 C           4.1262   -1.6758   24.2643 C.3     1  UNL1        0.0749
      2 C           3.5241   -1.1316   23.0029 C.3     1  UNL1        0.0444
      3 C           3.7422   -1.8426   21.7003 C.ar    1  UNL1       -0.0101
      4 C           4.5623   -3.0979   21.6591 C.ar    1  UNL1       -0.0091
      5 C           4.7804   -3.8089   20.3564 C.ar    1  UNL1       -0.0032
      6 C           4.1784   -3.2646   19.0949 C.ar    1  UNL1        0.0010
      7 C           3.3583   -2.0093   19.1361 C.ar    1  UNL1        0.0142
      8 C           3.1402   -1.2983   20.4387 C.ar    1  UNL1        0.0436
      9 C           5.1644   -3.6421   22.9205 C.3     1  UNL1        0.0954
     10 N           4.9463   -2.9311   24.2232 N.3     1  UNL1       -0.2934
     11 H           5.8690   -2.6920   24.5862 H       1  UNL1        0.1236
     12 N           2.3201   -0.0431   20.4799 N.pl3   1  UNL1       -0.3049
     13 C           2.9976    1.2951   20.5009 C.3     1  UNL1        0.1081
     14 C           2.1775    2.5504   20.5420 C.3     1  UNL1        0.0941
     15 N           0.6798    2.4675   20.5622 N.3     1  UNL1       -0.2647
     16 C           0.0024    1.1294   20.5413 C.3     1  UNL1        0.0941
     17 C           0.8225   -0.1259   20.5001 C.3     1  UNL1        0.1081
     18 C          -0.1403    3.7228   20.6034 C.3     1  UNL1        0.1187
     19 C          -1.6280    3.6413   20.7775 C.ar    1  UNL1        0.0752
     20 C          -2.2207    3.5990   22.1547 C.ar    1  UNL1        0.0161
     21 C          -3.7083    3.5176   22.3288 C.ar    1  UNL1        0.0028
     22 C          -4.6032    3.4784   21.1256 C.ar    1  UNL1        0.0207
     23 C          -4.0104    3.5207   19.7483 C.ar    1  UNL1        0.0985
     24 N          -2.5228    3.6022   19.5743 N.ar    1  UNL1       -0.2468
     25 C           3.9081   -0.9648   25.5670 C.3     1  UNL1        0.0886
     26 C           4.7489    1.4923   25.6433 C.3     1  UNL1        0.0899
     27 N           3.6196    0.5071   25.5790 N.3     1  UNL1       -0.2667
     28 C           2.2017    0.9939   25.5267 C.3     1  UNL1        0.0978
     29 C           1.6635    1.6016   24.2654 C.3     1  UNL1        0.0224
     30 C           0.2456    2.0885   24.2131 C.3     1  UNL1        0.0065
     31 C          -0.6340    1.9675   25.4220 C.3     1  UNL1        0.0277
     32 C          -0.0957    1.3597   26.6834 C.ar    1  UNL1       -0.0073
     33 C          -0.9753    1.2388   27.8924 C.ar    1  UNL1       -0.0015
     34 C          -0.4371    0.6310   29.1536 C.ar    1  UNL1        0.0203
     35 C           0.9807    0.1442   29.2060 C.ar    1  UNL1        0.0985
     36 N           1.8603    0.2652   27.9970 N.ar    1  UNL1       -0.2471
     37 C           1.3221    0.8729   26.7357 C.ar    1  UNL1        0.0695
@<TRIPOS>BOND
     1    26    27    1
     2    27    25    1
     3     1    25    1
     4     1     2    1
     5     2     3    1
     6     3     4   ar
     7     4     5   ar
     8     5     6   ar
     9     6     7   ar
    10     7     8   ar
    11     8    12    1
    12    12    13    1
    13    13    14    1
    14    14    15    1
    15    15    18    1
    16    18    19    1
    17    19    20   ar
    18    20    21   ar
    19    21    22   ar
    20    22    23   ar
    21    23    24   ar
    22    15    16    1
    23    16    17    1
    24     4     9    1
    25     9    10    1
    26    28    27    1
    27    28    29    1
    28    29    30    1
    29    30    31    1
    30    31    32    1
    31    32    33   ar
    32    33    34   ar
    33    34    35   ar
    34    35    36   ar
    35    36    37   ar
    36    10     1    1
    37    37    28    1
    38     8     3   ar
    39    17    12    1
    40    37    32   ar
    41    24    19   ar
    42    10    11    1
@<TRIPOS>MOLECULE
*****
 37 42 0 0 0
SMALL
GASTEIGER

@<TRIPOS>ATOM
      1 C           1.5392    1.1279   25.4542 C.3     1  UNL1        0.0749
      2 C           1.2215    1.3917   24.0122 C.3     1  UNL1        0.0444
      3 C           0.0150    2.2044   23.6466 C.ar    1  UNL1       -0.0101
      4 C          -0.8738    2.7534   24.7230 C.ar    1  UNL1       -0.0091
      5 C          -2.0804    3.5662   24.3573 C.ar    1  UNL1       -0.0032
      6 C          -2.3981    3.8300   22.9153 C.ar    1  UNL1        0.0010
      7 C          -1.5092    3.2810   21.8389 C.ar    1  UNL1        0.0142
      8 C          -0.3027    2.4683   22.2045 C.ar    1  UNL1        0.0436
      9 C          -0.5562    2.4896   26.1650 C.3     1  UNL1        0.0954
     10 N           0.6503    1.6768   26.5306 N.3     1  UNL1       -0.2934
     11 H           0.3154    0.8793   27.0710 H       1  UNL1        0.1236
     12 N           0.5861    1.9193   21.1281 N.pl3   1  UNL1       -0.3049
     13 C           0.3790    0.5215   20.6248 C.3     1  UNL1        0.1081
     14 C           1.2678   -0.0275   19.5484 C.3     1  UNL1        0.0941
     15 N           2.3637    0.8214   18.9753 N.3     1  UNL1       -0.2647
     16 C           2.5708    2.2192   19.4786 C.3     1  UNL1        0.0941
     17 C           1.6820    2.7681   20.5550 C.3     1  UNL1        0.1081
     18 C           3.2526    0.2724   17.8989 C.3     1  UNL1        0.1187
     19 C           4.3887   -0.6393   18.2569 C.ar    1  UNL1        0.0752
     20 C           4.2659   -2.1165   18.0274 C.ar    1  UNL1        0.0161
     21 C           5.4020   -3.0281   18.3854 C.ar    1  UNL1        0.0028
     22 C           6.6609   -2.4625   18.9728 C.ar    1  UNL1        0.0207
     23 C           6.7838   -0.9853   19.2023 C.ar    1  UNL1        0.0985
     24 N           5.6477   -0.0737   18.8443 N.ar    1  UNL1       -0.2468
     25 C           2.7457    0.3151   25.8199 C.3     1  UNL1        0.0886
     26 C           4.9037    1.4714   24.9503 C.3     1  UNL1        0.0899
     27 N           3.9492    0.3146   24.9245 N.3     1  UNL1       -0.2667
     28 C           4.1981   -0.8428   24.0034 C.3     1  UNL1        0.0978
     29 C           3.5757   -0.8627   22.6388 C.3     1  UNL1        0.0224
     30 C           3.8246   -2.0201   21.7177 C.3     1  UNL1        0.0065
     31 C           4.6961   -3.1576   22.1611 C.3     1  UNL1        0.0277
     32 C           5.3186   -3.1377   23.5257 C.ar    1  UNL1       -0.0073
     33 C           6.1900   -4.2752   23.9691 C.ar    1  UNL1       -0.0015
     34 C           6.8125   -4.2553   25.3337 C.ar    1  UNL1        0.0203
     35 C           6.5635   -3.0979   26.2548 C.ar    1  UNL1        0.0985
     36 N           5.6921   -1.9605   25.8114 N.ar    1  UNL1       -0.2471
     37 C           5.0696   -1.9803   24.4469 C.ar    1  UNL1        0.0695
@<TRIPOS>BOND
     1    26    27    1
     2    27    25    1
     3     1    25    1
     4     1     2    1
     5     2     3    1
     6     3     4   ar
     7     4     5   ar
     8     5     6   ar
     9     6     7   ar
    10     7     8   ar
    11     8    12    1
    12    12    13    1
    13    13    14    1
    14    14    15    1
    15    15    18    1
    16    18    19    1
    17    19    20   ar
    18    20    21   ar
    19    21    22   ar
    20    22    23   ar
    21    23    24   ar
    22    15    16    1
    23    16    17    1
    24     4     9    1
    25     9    10    1
    26    28    27    1
    27    28    29    1
    28    29    30    1
    29    30    31    1
    30    31    32    1
    31    32    33   ar
    32    33    34   ar
    33    34    35   ar
    34    35    36   ar
    35    36    37   ar
    36    10     1    1
    37    37    28    1
    38     8     3   ar
    39    17    12    1
    40    37    32   ar
    41    24    19   ar
    42    10    11    1
@<TRIPOS>MOLECULE
*****
 37 42 0 0 0
SMALL
GASTEIGER

@<TRIPOS>ATOM
      1 C           6.0559   -3.2570   26.5045 C.3     1  UNL1        0.0749
      2 C           6.5907   -3.6199   25.1510 C.3     1  UNL1        0.0444
      3 C           7.2342   -4.9572   24.9327 C.ar    1  UNL1       -0.0101
      4 C           7.3428   -5.9315   26.0681 C.ar    1  UNL1       -0.0091
      5 C           7.9863   -7.2688   25.8498 C.ar    1  UNL1       -0.0032
      6 C           8.5211   -7.6318   24.4962 C.ar    1  UNL1        0.0010
      7 C           8.4125   -6.6575   23.3609 C.ar    1  UNL1        0.0142
      8 C           7.7691   -5.3202   23.5791 C.ar    1  UNL1        0.0436
      9 C           6.8079   -5.5685   27.4216 C.3     1  UNL1        0.0954
     10 N           6.1645   -4.2313   27.6398 N.3     1  UNL1       -0.2934
     11 H           6.6943   -3.7664   28.3771 H       1  UNL1        0.1236
     12 N           7.6605   -4.3459   22.4438 N.pl3   1  UNL1       -0.3049
     13 C           8.8474   -3.5171   22.0506 C.3     1  UNL1        0.1081
     14 C           8.7388   -2.5428   20.9153 C.3     1  UNL1        0.0941
     15 N           7.4433   -2.3973   20.1732 N.3     1  UNL1       -0.2647
     16 C           6.2566   -3.2261   20.5664 C.3     1  UNL1        0.0941
     17 C           6.3651   -4.2004   21.7017 C.3     1  UNL1        0.1081
     18 C           7.3347   -1.4230   19.0379 C.3     1  UNL1        0.1187
     19 C           5.9944   -0.8766   18.6441 C.ar    1  UNL1        0.0752
     20 C           5.4001    0.2720   19.4040 C.ar    1  UNL1        0.0161
     21 C           4.0598    0.8184   19.0102 C.ar    1  UNL1        0.0028
     22 C           3.3139    0.2162   17.8565 C.ar    1  UNL1        0.0207
     23 C           3.9082   -0.9324   17.0967 C.ar    1  UNL1        0.0985
     24 N           5.2485   -1.4788   17.4904 N.ar    1  UNL1       -0.2468
     25 C           5.4124   -1.9196   26.7228 C.3     1  UNL1        0.0886
     26 C           6.7463    0.0657   25.7083 C.3     1  UNL1        0.0899
     27 N           5.5524   -0.8422   25.6886 N.3     1  UNL1       -0.2667
     28 C           4.4985   -0.6726   24.6348 C.3     1  UNL1        0.0978
     29 C           4.7133   -1.2367   23.2617 C.3     1  UNL1        0.0224
     30 C           3.6594   -1.0671   22.2079 C.3     1  UNL1        0.0065
     31 C           2.3907   -0.3334   22.5272 C.3     1  UNL1        0.0277
     32 C           2.1758    0.2307   23.9004 C.ar    1  UNL1       -0.0073
     33 C           0.9071    0.9643   24.2198 C.ar    1  UNL1       -0.0015
     34 C           0.6923    1.5284   25.5930 C.ar    1  UNL1        0.0203
     35 C           1.7462    1.3588   26.6468 C.ar    1  UNL1        0.0985
     36 N           3.0149    0.6252   26.3274 N.ar    1  UNL1       -0.2471
     37 C           3.2297    0.0611   24.9543 C.ar    1  UNL1        0.0695
@<TRIPOS>BOND
     1    26    27    1
     2    27    25    1
     3     1    25    1
     4     1     2    1
     5     2     3    1
     6     3     4   ar
     7     4     5   ar
     8     5     6   ar
     9     6     7   ar
    10     7     8   ar
    11     8    12    1
    12    12    13    1
    13    13    14    1
    14    14    15    1
    15    15    18    1
    16    18    19    1
    17    19    20   ar
    18    20    21   ar
    19    21    22   ar
    20    22    23   ar
    21    23    24   ar
    22    15    16    1
    23    16    17    1
    24     4     9    1
    25     9    10    1
    26    28    27    1
    27    28    29    1
    28    29    30    1
    29    30    31    1
    30    31    32    1
    31    32    33   ar
    32    33    34   ar
    33    34    35   ar
    34    35    36   ar
    35    36    37   ar
    36    10     1    1
    37    37    28    1
    38     8     3   ar
    39    17    12    1
    40    37    32   ar
    41    24    19   ar
    42    10    11    1
@<TRIPOS>MOLECULE
*****
 37 42 0 0 0
SMALL
GASTEIGER

@<TRIPOS>ATOM
      1 C           5.1835   -3.3491   21.7681 C.3     1  UNL1        0.0749
      2 C           4.3831   -2.0814   21.7201 C.3     1  UNL1        0.0444
      3 C           4.0304   -1.4668   20.3981 C.ar    1  UNL1       -0.0101
      4 C           4.4779   -2.1199   19.1240 C.ar    1  UNL1       -0.0091
      5 C           4.1251   -1.5052   17.8020 C.ar    1  UNL1       -0.0032
      6 C           3.3248   -0.2375   17.7540 C.ar    1  UNL1        0.0010
      7 C           2.8772    0.4156   19.0281 C.ar    1  UNL1        0.0142
      8 C           3.2300   -0.1990   20.3501 C.ar    1  UNL1        0.0436
      9 C           5.2783   -3.3876   19.1720 C.3     1  UNL1        0.0954
     10 N           5.6310   -4.0022   20.4940 N.3     1  UNL1       -0.2934
     11 H           6.6490   -4.0549   20.5320 H       1  UNL1        0.1236
     12 N           2.7824    0.4541   21.6241 N.pl3   1  UNL1       -0.3049
     13 C           3.7952    1.0416   22.5617 C.3     1  UNL1        0.1081
     14 C           3.3477    1.6947   23.8358 C.3     1  UNL1        0.0941
     15 N           1.8873    1.7602   24.1722 N.3     1  UNL1       -0.2647
     16 C           0.8746    1.1727   23.2346 C.3     1  UNL1        0.0941
     17 C           1.3221    0.5196   21.9605 C.3     1  UNL1        0.1081
     18 C           1.4397    2.4133   25.4462 C.3     1  UNL1        0.1187
     19 C           0.9696    1.5717   26.5955 C.ar    1  UNL1        0.0752
     20 C          -0.4824    1.5598   26.9717 C.ar    1  UNL1        0.0161
     21 C          -0.9525    0.7182   28.1209 C.ar    1  UNL1        0.0028
     22 C           0.0294   -0.1114   28.8939 C.ar    1  UNL1        0.0207
     23 C           1.4814   -0.0995   28.5177 C.ar    1  UNL1        0.0985
     24 N           1.9515    0.7421   27.3685 N.ar    1  UNL1       -0.2468
     25 C           5.5363   -3.9638   23.0901 C.3     1  UNL1        0.0886
     26 C           7.8160   -2.7543   23.3902 C.3     1  UNL1        0.0899
     27 N           6.9626   -3.9769   23.5544 N.3     1  UNL1       -0.2667
     28 C           7.5354   -5.2126   24.1827 C.3     1  UNL1        0.0978
     29 C           8.2213   -6.2386   23.3302 C.3     1  UNL1        0.0224
     30 C           8.7941   -7.4743   23.9585 C.3     1  UNL1        0.0065
     31 C           8.6812   -7.6840   25.4395 C.3     1  UNL1        0.0277
     32 C           7.9954   -6.6580   26.2921 C.ar    1  UNL1       -0.0073
     33 C           7.8825   -6.8676   27.7731 C.ar    1  UNL1       -0.0015
     34 C           7.1967   -5.8416   28.6256 C.ar    1  UNL1        0.0203
     35 C           6.6238   -4.6059   27.9973 C.ar    1  UNL1        0.0985
     36 N           6.7367   -4.3962   26.5163 N.ar    1  UNL1       -0.2471
     37 C           7.4225   -5.4222   25.6638 C.ar    1  UNL1        0.0695
@<TRIPOS>BOND
     1    26    27    1
     2    27    25    1
     3     1    25    1
     4     1     2    1
     5     2     3    1
     6     3     4   ar
     7     4     5   ar
     8     5     6   ar
     9     6     7   ar
    10     7     8   ar
    11     8    12    1
    12    12    13    1
    13    13    14    1
    14    14    15    1
    15    15    18    1
    16    18    19    1
    17    19    20   ar
    18    20    21   ar
    19    21    22   ar
    20    22    23   ar
    21    23    24   ar
    22    15    16    1
    23    16    17    1
    24     4     9    1
    25     9    10    1
    26    28    27    1
    27    28    29    1
    28    29    30    1
    29    30    31    1
    30    31    32    1
    31    32    33   ar
    32    33    34   ar
    33    34    35   ar
    34    35    36   ar
    35    36    37   ar
    36    10     1    1
    37    37    28    1
    38     8     3   ar
    39    17    12    1
    40    37    32   ar
    41    24    19   ar
    42    10    11    1
@<TRIPOS>MOLECULE
*****
 37 42 0 0 0
SMALL
GASTEIGER

@<TRIPOS>ATOM
      1 C           1.1823    0.5794   21.0410 C.3     1  UNL1        0.0749
      2 C           2.4489   -0.2234   21.0763 C.3     1  UNL1        0.0444
      3 C           3.1967   -0.5008   19.8060 C.ar    1  UNL1       -0.0101
      4 C           2.6780    0.0247   18.5003 C.ar    1  UNL1       -0.0091
      5 C           3.4259   -0.2527   17.2300 C.ar    1  UNL1       -0.0032
      6 C           4.6924   -1.0555   17.2653 C.ar    1  UNL1        0.0010
      7 C           5.2111   -1.5810   18.5710 C.ar    1  UNL1        0.0142
      8 C           4.4633   -1.3036   19.8413 C.ar    1  UNL1        0.0436
      9 C           1.4114    0.8276   18.4650 C.3     1  UNL1        0.0954
     10 N           0.6636    1.1049   19.7353 N.3     1  UNL1       -0.2934
     11 H          -0.2737    0.7211   19.6150 H       1  UNL1        0.1236
     12 N           4.9820   -1.8291   21.1470 N.pl3   1  UNL1       -0.3049
     13 C           6.0475   -1.0770   21.8881 C.3     1  UNL1        0.1081
     14 C           6.5662   -1.6025   23.1937 C.3     1  UNL1        0.0941
     15 N           6.0194   -2.8801   23.7584 N.3     1  UNL1       -0.2647
     16 C           4.9540   -3.6322   23.0173 C.3     1  UNL1        0.0941
     17 C           4.4353   -3.1067   21.7116 C.3     1  UNL1        0.1081
     18 C           6.5381   -3.4056   25.0640 C.3     1  UNL1        0.1187
     19 C           6.9975   -4.8297   25.1700 C.ar    1  UNL1        0.0752
     20 C           7.7719   -5.4534   24.0470 C.ar    1  UNL1        0.0161
     21 C           8.2313   -6.8774   24.1531 C.ar    1  UNL1        0.0028
     22 C           7.9163   -7.6776   25.3821 C.ar    1  UNL1        0.0207
     23 C           7.1418   -7.0538   26.5050 C.ar    1  UNL1        0.0985
     24 N           6.6825   -5.6298   26.3990 N.ar    1  UNL1       -0.2468
     25 C           0.4344    0.8568   22.3114 C.3     1  UNL1        0.0886
     26 C           1.8867    2.9565   22.7933 C.3     1  UNL1        0.0899
     27 N           0.9424    1.8928   23.2698 N.3     1  UNL1       -0.2667
     28 C           0.5060    1.8653   24.7046 C.3     1  UNL1        0.0978
     29 C          -0.7423    2.5841   25.1229 C.3     1  UNL1        0.0224
     30 C          -1.1786    2.5565   26.5578 C.3     1  UNL1        0.0065
     31 C          -0.3666    1.8101   27.5744 C.3     1  UNL1        0.0277
     32 C           0.8818    1.0912   27.1562 C.ar    1  UNL1       -0.0073
     33 C           1.6938    0.3449   28.1728 C.ar    1  UNL1       -0.0015
     34 C           2.9421   -0.3739   27.7545 C.ar    1  UNL1        0.0203
     35 C           3.3784   -0.3464   26.3196 C.ar    1  UNL1        0.0985
     36 N           2.5664    0.4000   25.3030 N.ar    1  UNL1       -0.2471
     37 C           1.3181    1.1188   25.7213 C.ar    1  UNL1        0.0695
@<TRIPOS>BOND
     1    26    27    1
     2    27    25    1
     3     1    25    1
     4     1     2    1
     5     2     3    1
     6     3     4   ar
     7     4     5   ar
     8     5     6   ar
     9     6     7   ar
    10     7     8   ar
    11     8    12    1
    12    12    13    1
    13    13    14    1
    14    14    15    1
    15    15    18    1
    16    18    19    1
    17    19    20   ar
    18    20    21   ar
    19    21    22   ar
    20    22    23   ar
    21    23    24   ar
    22    15    16    1
    23    16    17    1
    24     4     9    1
    25     9    10    1
    26    28    27    1
    27    28    29    1
    28    29    30    1
    29    30    31    1
    30    31    32    1
    31    32    33   ar
    32    33    34   ar
    33    34    35   ar
    34    35    36   ar
    35    36    37   ar
    36    10     1    1
    37    37    28    1
    38     8     3   ar
    39    17    12    1
    40    37    32   ar
    41    24    19   ar
    42    10    11    1
@<TRIPOS>MOLECULE
*****
 37 42 0 0 0
SMALL
GASTEIGER

@<TRIPOS>ATOM
      1 C           7.1880   -2.8535   23.6219 C.3     1  UNL1        0.0749
      2 C           7.5063   -3.7213   24.8032 C.3     1  UNL1        0.0444
      3 C           8.1253   -5.0719   24.5965 C.ar    1  UNL1       -0.0101
      4 C           8.4260   -5.5547   23.2086 C.ar    1  UNL1       -0.0091
      5 C           9.0450   -6.9053   23.0019 C.ar    1  UNL1       -0.0032
      6 C           9.3632   -7.7731   24.1832 C.ar    1  UNL1        0.0010
      7 C           9.0626   -7.2904   25.5712 C.ar    1  UNL1        0.0142
      8 C           8.4436   -5.9398   25.7779 C.ar    1  UNL1        0.0436
      9 C           8.1077   -4.6869   22.0272 C.3     1  UNL1        0.0954
     10 N           7.4887   -3.3363   22.2339 N.3     1  UNL1       -0.2934
     11 H           6.6051   -3.3362   21.7243 H       1  UNL1        0.1236
     12 N           8.1429   -5.4570   27.1659 N.pl3   1  UNL1       -0.3049
     13 C           9.1530   -4.6337   27.9089 C.3     1  UNL1        0.1081
     14 C           8.8524   -4.1509   29.2969 C.3     1  UNL1        0.0941
     15 N           7.5416   -4.4914   29.9419 N.3     1  UNL1       -0.2647
     16 C           6.5315   -5.3147   29.1989 C.3     1  UNL1        0.0941
     17 C           6.8322   -5.7975   27.8109 C.3     1  UNL1        0.1081
     18 C           7.2409   -4.0086   31.3299 C.3     1  UNL1        0.1187
     19 C           6.1792   -2.9720   31.5498 C.ar    1  UNL1        0.0752
     20 C           5.4385   -2.9219   32.8532 C.ar    1  UNL1        0.0161
     21 C           4.3769   -1.8853   33.0731 C.ar    1  UNL1        0.0028
     22 C           4.0559   -0.8989   31.9896 C.ar    1  UNL1        0.0207
     23 C           4.7966   -0.9490   30.6862 C.ar    1  UNL1        0.0985
     24 N           5.8582   -1.9856   30.4663 N.ar    1  UNL1       -0.2468
     25 C           6.5690   -1.5028   23.8285 C.3     1  UNL1        0.0886
     26 C           4.2680   -1.6068   25.0304 C.3     1  UNL1        0.0899
     27 N           5.0774   -1.3482   23.7943 N.3     1  UNL1       -0.2667
     28 C           4.3952   -0.9351   22.5239 C.3     1  UNL1        0.0978
     29 C           3.9892    0.4946   22.3213 C.3     1  UNL1        0.0224
     30 C           3.3070    0.9077   21.0509 C.3     1  UNL1        0.0065
     31 C           3.0307   -0.1089   19.9831 C.3     1  UNL1        0.0277
     32 C           3.4367   -1.5387   20.1857 C.ar    1  UNL1       -0.0073
     33 C           3.1605   -2.5552   19.1179 C.ar    1  UNL1       -0.0015
     34 C           3.5665   -3.9849   19.3205 C.ar    1  UNL1        0.0203
     35 C           4.2487   -4.3980   20.5909 C.ar    1  UNL1        0.0985
     36 N           4.5250   -3.3815   21.6586 N.ar    1  UNL1       -0.2471
     37 C           4.1190   -1.9518   21.4561 C.ar    1  UNL1        0.0695
@<TRIPOS>BOND
     1    26    27    1
     2    27    25    1
     3     1    25    1
     4     1     2    1
     5     2     3    1
     6     3     4   ar
     7     4     5   ar
     8     5     6   ar
     9     6     7   ar
    10     7     8   ar
    11     8    12    1
    12    12    13    1
    13    13    14    1
    14    14    15    1
    15    15    18    1
    16    18    19    1
    17    19    20   ar
    18    20    21   ar
    19    21    22   ar
    20    22    23   ar
    21    23    24   ar
    22    15    16    1
    23    16    17    1
    24     4     9    1
    25     9    10    1
    26    28    27    1
    27    28    29    1
    28    29    30    1
    29    30    31    1
    30    31    32    1
    31    32    33   ar
    32    33    34   ar
    33    34    35   ar
    34    35    36   ar
    35    36    37   ar
    36    10     1    1
    37    37    28    1
    38     8     3   ar
    39    17    12    1
    40    37    32   ar
    41    24    19   ar
    42    10    11    1
@<TRIPOS>MOLECULE
*****
 37 42 0 0 0
SMALL
GASTEIGER

@<TRIPOS>ATOM
      1 C           1.2119    0.5587   21.0308 C.3     1  UNL1        0.0749
      2 C           2.4753   -0.2494   21.0573 C.3     1  UNL1        0.0444
      3 C           3.2126   -0.5306   19.7816 C.ar    1  UNL1       -0.0101
      4 C           2.6865   -0.0036   18.4795 C.ar    1  UNL1       -0.0091
      5 C           3.4239   -0.2848   17.2038 C.ar    1  UNL1       -0.0032
      6 C           4.6873   -1.0929   17.2303 C.ar    1  UNL1        0.0010
      7 C           5.2133   -1.6199   18.5325 C.ar    1  UNL1        0.0142
      8 C           4.4760   -1.3388   19.8081 C.ar    1  UNL1        0.0436
      9 C           1.4232    0.8045   18.4530 C.3     1  UNL1        0.0954
     10 N           0.6858    1.0857   19.7286 N.3     1  UNL1       -0.2934
     11 H          -0.2540    0.7058   19.6154 H       1  UNL1        0.1236
     12 N           5.0021   -1.8658   21.1102 N.pl3   1  UNL1       -0.3049
     13 C           6.0743   -1.1163   21.8443 C.3     1  UNL1        0.1081
     14 C           6.6004   -1.6433   23.1465 C.3     1  UNL1        0.0941
     15 N           6.0542   -2.9197   23.7145 N.3     1  UNL1       -0.2647
     16 C           4.9821   -3.6691   22.9804 C.3     1  UNL1        0.0941
     17 C           4.4560   -3.1421   21.6783 C.3     1  UNL1        0.1081
     18 C           6.5803   -3.4467   25.0166 C.3     1  UNL1        0.1187
     19 C           7.0418   -4.8704   25.1180 C.ar    1  UNL1        0.0752
     20 C           7.8438   -5.4798   24.0065 C.ar    1  UNL1        0.0161
     21 C           8.3052   -6.9034   24.1079 C.ar    1  UNL1        0.0028
     22 C           7.9647   -7.7177   25.3207 C.ar    1  UNL1        0.0207
     23 C           7.1627   -7.1083   26.4322 C.ar    1  UNL1        0.0985
     24 N           6.7012   -5.6847   26.3308 N.ar    1  UNL1       -0.2468
     25 C           0.4745    0.8399   22.3065 C.3     1  UNL1        0.0886
     26 C           1.8745    2.9973   22.6750 C.3     1  UNL1        0.0899
     27 N           0.9093    1.9712   23.1903 N.3     1  UNL1       -0.2667
     28 C           0.3788    2.0764   24.5894 C.3     1  UNL1        0.0978
     29 C           1.1234    1.4374   25.7239 C.3     1  UNL1        0.0224
     30 C           0.5930    1.5426   27.1230 C.3     1  UNL1        0.0065
     31 C          -0.6822    2.2869   27.3876 C.3     1  UNL1        0.0277
     32 C          -1.4269    2.9260   26.2531 C.ar    1  UNL1       -0.0073
     33 C          -2.7020    3.6702   26.5177 C.ar    1  UNL1       -0.0015
     34 C          -3.4467    4.3092   25.3833 C.ar    1  UNL1        0.0203
     35 C          -2.9162    4.2040   23.9842 C.ar    1  UNL1        0.0985
     36 N          -1.6411    3.4598   23.7195 N.ar    1  UNL1       -0.2471
     37 C          -0.8964    2.8207   24.8540 C.ar    1  UNL1        0.0695
@<TRIPOS>BOND
     1    26    27    1
     2    27    25    1
     3     1    25    1
     4     1     2    1
     5     2     3    1
     6     3     4   ar
     7     4     5   ar
     8     5     6   ar
     9     6     7   ar
    10     7     8   ar
    11     8    12    1
    12    12    13    1
    13    13    14    1
    14    14    15    1
    15    15    18    1
    16    18    19    1
    17    19    20   ar
    18    20    21   ar
    19    21    22   ar
    20    22    23   ar
    21    23    24   ar
    22    15    16    1
    23    16    17    1
    24     4     9    1
    25     9    10    1
    26    28    27    1
    27    28    29    1
    28    29    30    1
    29    30    31    1
    30    31    32    1
    31    32    33   ar
    32    33    34   ar
    33    34    35   ar
    34    35    36   ar
    35    36    37   ar
    36    10     1    1
    37    37    28    1
    38     8     3   ar
    39    17    12    1
    40    37    32   ar
    41    24    19   ar
    42    10    11    1
@<TRIPOS>MOLECULE
*****
 37 42 0 0 0
SMALL
GASTEIGER

@<TRIPOS>ATOM
      1 C           6.8762   -4.0518   24.6749 C.3     1  UNL1        0.0749
      2 C           7.3209   -4.5055   26.0337 C.3     1  UNL1        0.0444
      3 C           8.0586   -5.8024   26.1871 C.ar    1  UNL1       -0.0101
      4 C           8.3518   -6.6457   24.9817 C.ar    1  UNL1       -0.0091
      5 C           9.0896   -7.9427   25.1351 C.ar    1  UNL1       -0.0032
      6 C           9.5343   -8.3964   26.4939 C.ar    1  UNL1        0.0010
      7 C           9.2411   -7.5531   27.6994 C.ar    1  UNL1        0.0142
      8 C           8.5033   -6.2562   27.5460 C.ar    1  UNL1        0.0436
      9 C           7.9072   -6.1919   23.6229 C.3     1  UNL1        0.0954
     10 N           7.1694   -4.8950   23.4695 N.3     1  UNL1       -0.2934
     11 H           6.2713   -5.1162   23.0394 H       1  UNL1        0.1236
     12 N           8.2102   -5.4130   28.7514 N.pl3   1  UNL1       -0.3049
     13 C           7.1213   -5.8154   29.7014 C.3     1  UNL1        0.1081
     14 C           6.8281   -4.9722   30.9068 C.3     1  UNL1        0.0941
     15 N           7.6239   -3.7265   31.1622 N.3     1  UNL1       -0.2647
     16 C           8.7127   -3.3242   30.2123 C.3     1  UNL1        0.0941
     17 C           9.0059   -4.1674   29.0069 C.3     1  UNL1        0.1081
     18 C           7.3307   -2.8833   32.3676 C.3     1  UNL1        0.1187
     19 C           6.3225   -1.7760   32.2811 C.ar    1  UNL1        0.0752
     20 C           6.7725   -0.3718   32.0062 C.ar    1  UNL1        0.0161
     21 C           5.7642    0.7355   31.9197 C.ar    1  UNL1        0.0028
     22 C           4.3061    0.4384   32.1081 C.ar    1  UNL1        0.0207
     23 C           3.8561   -0.9658   32.3831 C.ar    1  UNL1        0.0985
     24 N           4.8643   -2.0730   32.4696 N.ar    1  UNL1       -0.2468
     25 C           6.1384   -2.7548   24.5215 C.3     1  UNL1        0.0886
     26 C           7.6289   -1.3757   22.9008 C.3     1  UNL1        0.0899
     27 N           6.2915   -1.9488   23.2657 N.3     1  UNL1       -0.2667
     28 C           5.1074   -1.7160   22.3749 C.3     1  UNL1        0.0978
     29 C           4.1913   -0.5566   22.6328 C.3     1  UNL1        0.0224
     30 C           3.0071   -0.3237   21.7420 C.3     1  UNL1        0.0065
     31 C           2.7391   -1.2502   20.5932 C.3     1  UNL1        0.0277
     32 C           3.6553   -2.4097   20.3352 C.ar    1  UNL1       -0.0073
     33 C           3.3873   -3.3361   19.1864 C.ar    1  UNL1       -0.0015
     34 C           4.3034   -4.4955   18.9285 C.ar    1  UNL1        0.0203
     35 C           5.4875   -4.7284   19.8194 C.ar    1  UNL1        0.0985
     36 N           5.7555   -3.8019   20.9681 N.ar    1  UNL1       -0.2471
     37 C           4.8394   -2.6425   21.2261 C.ar    1  UNL1        0.0695
@<TRIPOS>BOND
     1    26    27    1
     2    27    25    1
     3     1    25    1
     4     1     2    1
     5     2     3    1
     6     3     4   ar
     7     4     5   ar
     8     5     6   ar
     9     6     7   ar
    10     7     8   ar
    11     8    12    1
    12    12    13    1
    13    13    14    1
    14    14    15    1
    15    15    18    1
    16    18    19    1
    17    19    20   ar
    18    20    21   ar
    19    21    22   ar
    20    22    23   ar
    21    23    24   ar
    22    15    16    1
    23    16    17    1
    24     4     9    1
    25     9    10    1
    26    28    27    1
    27    28    29    1
    28    29    30    1
    29    30    31    1
    30    31    32    1
    31    32    33   ar
    32    33    34   ar
    33    34    35   ar
    34    35    36   ar
    35    36    37   ar
    36    10     1    1
    37    37    28    1
    38     8     3   ar
    39    17    12    1
    40    37    32   ar
    41    24    19   ar
    42    10    11    1
@<TRIPOS>MOLECULE
*****
 37 42 0 0 0
SMALL
GASTEIGER

@<TRIPOS>ATOM
      1 C           1.7957    0.4483   30.0055 C.3     1  UNL1        0.0749
      2 C           2.8975    0.0257   30.9315 C.3     1  UNL1        0.0444
      3 C           3.0149    0.6486   32.2909 C.ar    1  UNL1       -0.0101
      4 C           2.0305    1.6940   32.7245 C.ar    1  UNL1       -0.0091
      5 C           2.1479    2.3169   34.0840 C.ar    1  UNL1       -0.0032
      6 C           3.2497    1.8943   35.0100 C.ar    1  UNL1        0.0010
      7 C           4.2341    0.8488   34.5764 C.ar    1  UNL1        0.0142
      8 C           4.1167    0.2259   33.2170 C.ar    1  UNL1        0.0436
      9 C           0.9287    2.1166   31.7986 C.3     1  UNL1        0.0954
     10 N           0.8113    1.4938   30.4391 N.3     1  UNL1       -0.2934
     11 H           0.8708    2.2534   29.7610 H       1  UNL1        0.1236
     12 N           5.1011   -0.8195   32.7834 N.pl3   1  UNL1       -0.3049
     13 C           6.3633   -0.4157   32.0806 C.3     1  UNL1        0.1081
     14 C           7.3477   -1.4611   31.6470 C.3     1  UNL1        0.0941
     15 N           7.0699   -2.9104   31.9163 N.3     1  UNL1       -0.2647
     16 C           5.8078   -3.3142   32.6191 C.3     1  UNL1        0.0941
     17 C           4.8234   -2.2687   33.0527 C.3     1  UNL1        0.1081
     18 C           8.0543   -3.9559   31.4828 C.3     1  UNL1        0.1187
     19 C           8.0354   -4.4647   30.0718 C.ar    1  UNL1        0.0752
     20 C           6.8352   -5.2024   29.5566 C.ar    1  UNL1        0.0161
     21 C           6.8163   -5.7112   28.1457 C.ar    1  UNL1        0.0028
     22 C           7.9975   -5.4822   27.2499 C.ar    1  UNL1        0.0207
     23 C           9.1976   -4.7445   27.7651 C.ar    1  UNL1        0.0985
     24 N           9.2165   -4.2358   29.1760 N.ar    1  UNL1       -0.2468
     25 C           1.6782   -0.1745   28.6460 C.3     1  UNL1        0.0886
     26 C           2.4330    1.5757   26.8805 C.3     1  UNL1        0.0899
     27 N           2.6092    0.2433   27.5466 N.3     1  UNL1       -0.2667
     28 C           3.7165   -0.6712   27.1134 C.3     1  UNL1        0.0978
     29 C           4.6779   -1.2175   28.1268 C.3     1  UNL1        0.0224
     30 C           5.7851   -2.1320   27.6936 C.3     1  UNL1        0.0065
     31 C           5.9309   -2.5002   26.2468 C.3     1  UNL1        0.0277
     32 C           4.9695   -1.9539   25.2333 C.ar    1  UNL1       -0.0073
     33 C           5.1154   -2.3221   23.7865 C.ar    1  UNL1       -0.0015
     34 C           4.1540   -1.7757   22.7730 C.ar    1  UNL1        0.0203
     35 C           3.0467   -0.8612   23.2063 C.ar    1  UNL1        0.0985
     36 N           2.9009   -0.4931   24.6530 N.ar    1  UNL1       -0.2471
     37 C           3.8623   -1.0394   25.6665 C.ar    1  UNL1        0.0695
@<TRIPOS>BOND
     1    26    27    1
     2    27    25    1
     3     1    25    1
     4     1     2    1
     5     2     3    1
     6     3     4   ar
     7     4     5   ar
     8     5     6   ar
     9     6     7   ar
    10     7     8   ar
    11     8    12    1
    12    12    13    1
    13    13    14    1
    14    14    15    1
    15    15    18    1
    16    18    19    1
    17    19    20   ar
    18    20    21   ar
    19    21    22   ar
    20    22    23   ar
    21    23    24   ar
    22    15    16    1
    23    16    17    1
    24     4     9    1
    25     9    10    1
    26    28    27    1
    27    28    29    1
    28    29    30    1
    29    30    31    1
    30    31    32    1
    31    32    33   ar
    32    33    34   ar
    33    34    35   ar
    34    35    36   ar
    35    36    37   ar
    36    10     1    1
    37    37    28    1
    38     8     3   ar
    39    17    12    1
    40    37    32   ar
    41    24    19   ar
    42    10    11    1
