@<TRIPOS>MOLECULE
*****
 29 33 0 0 0
SMALL
GASTEIGER

@<TRIPOS>ATOM
      1 O           5.1568   -0.1558   16.4549 O.2     1  UNL1       -0.2895
      2 C           4.1963   -0.4849   17.5591 C.2     1  UNL1        0.1970
      3 C           3.1171    0.4888   17.9294 C.3     1  UNL1        0.1109
      4 C           2.1566    0.1597   19.0336 C.3     1  UNL1        0.1438
      5 C           1.1962   -0.1694   20.1378 C.3     1  UNL1        0.0620
      6 C           0.1170    0.8043   20.5082 C.3     1  UNL1        0.0985
      7 N          -0.0017    2.1072   19.7743 N.am    1  UNL1       -0.2640
      8 C          -1.0810    3.0809   20.1447 C.2     1  UNL1        0.3039
      9 O          -1.1997    4.3838   19.4109 O.2     1  UNL1       -0.2526
     10 N          -2.0414    2.7518   21.2489 N.am    1  UNL1       -0.2901
     11 C           0.9587    2.4363   18.6702 C.3     1  UNL1        0.0985
     12 C           2.0379    1.4626   18.2998 C.3     1  UNL1        0.0620
     13 O           2.2753   -1.1431   19.7675 O.3     1  UNL1       -0.4804
     14 C           3.3546   -2.1169   19.3970 C.ar    1  UNL1        0.1585
     15 C           3.4733   -3.4198   20.1309 C.ar    1  UNL1        0.0401
     16 C           4.5525   -4.3935   19.7605 C.ar    1  UNL1        0.0238
     17 C           5.5130   -4.0644   18.6563 C.ar    1  UNL1        0.0992
     18 N           5.3942   -2.7615   17.9225 N.ar    1  UNL1       -0.2379
     19 C           4.3150   -1.7878   18.2929 C.ar    1  UNL1        0.1497
     20 H          -1.9635    1.8967   21.7305 H       1  UNL1        0.1509
     21 C          -3.1206    3.7256   21.6193 C.3     1  UNL1        0.0774
     22 C          -4.1494    4.7399   21.2160 C.3     1  UNL1        0.0259
     23 C          -3.9611    4.3977   22.6642 C.3     1  UNL1        0.0420
     24 C          -4.3377    4.5882   24.1036 C.ar    1  UNL1       -0.0208
     25 C          -3.6223    3.8187   25.1741 C.ar    1  UNL1       -0.0042
     26 C          -3.9989    4.0092   26.6135 C.ar    1  UNL1       -0.0003
     27 C          -5.0909    4.9692   26.9824 C.ar    1  UNL1       -0.0000
     28 C          -5.8062    5.7387   25.9118 C.ar    1  UNL1       -0.0003
     29 C          -5.4296    5.5482   24.4724 C.ar    1  UNL1       -0.0042
@<TRIPOS>BOND
     1     1     2    2
     2     2     3    1
     3     3     4    1
     4     4     5    1
     5     5     6    1
     6     6     7    1
     7     7     8   am
     8     8     9    2
     9     8    10   am
    10    21    10    1
    11    21    22    1
    12    22    23    1
    13    23    24    1
    14    24    25   ar
    15    25    26   ar
    16    26    27   ar
    17    27    28   ar
    18    28    29   ar
    19     7    11    1
    20    11    12    1
    21     4    13    1
    22    13    14    1
    23    14    15   ar
    24    15    16   ar
    25    16    17   ar
    26    17    18   ar
    27    18    19   ar
    28    19     2    1
    29    12     4    1
    30    19    14   ar
    31    23    21    1
    32    29    24   ar
    33    10    20    1
@<TRIPOS>MOLECULE
*****
 29 33 0 0 0
SMALL
GASTEIGER

@<TRIPOS>ATOM
      1 O           4.4291   -0.8293   16.3530 O.2     1  UNL1       -0.2895
      2 C           3.7943   -0.8428   17.7120 C.2     1  UNL1        0.1970
      3 C           2.6858    0.1159   18.0315 C.3     1  UNL1        0.1109
      4 C           2.0510    0.1024   19.3906 C.3     1  UNL1        0.1438
      5 C           1.4162    0.0889   20.7495 C.3     1  UNL1        0.0620
      6 C           0.3078    1.0477   21.0691 C.3     1  UNL1        0.0985
      7 N          -0.1659    2.0199   20.0297 N.am    1  UNL1       -0.2640
      8 C          -1.2744    2.9786   20.3493 C.2     1  UNL1        0.3039
      9 O          -1.7481    3.9509   19.3098 O.2     1  UNL1       -0.2526
     10 N          -1.9092    2.9651   21.7082 N.am    1  UNL1       -0.2901
     11 C           0.4689    2.0334   18.6707 C.3     1  UNL1        0.0985
     12 C           1.5773    1.0747   18.3511 C.3     1  UNL1        0.0620
     13 O           2.5247   -0.8698   20.4300 O.3     1  UNL1       -0.4804
     14 C           3.6332   -1.8285   20.1104 C.ar    1  UNL1        0.1585
     15 C           4.1069   -2.8008   21.1498 C.ar    1  UNL1        0.0401
     16 C           5.2153   -3.7595   20.8303 C.ar    1  UNL1        0.0238
     17 C           5.8502   -3.7460   19.4713 C.ar    1  UNL1        0.0992
     18 N           5.3765   -2.7738   18.4318 N.ar    1  UNL1       -0.2379
     19 C           4.2680   -1.8150   18.7514 C.ar    1  UNL1        0.1497
     20 H          -1.5983    2.3270   22.3904 H       1  UNL1        0.1509
     21 C          -3.0177    3.9239   22.0278 C.3     1  UNL1        0.0774
     22 C          -3.6265    4.9490   22.9380 C.3     1  UNL1        0.0259
     23 C          -4.3288    4.5593   21.6712 C.3     1  UNL1        0.0420
     24 C          -5.4913    4.7012   20.7339 C.ar    1  UNL1       -0.0208
     25 C          -5.7441    3.6552   19.6890 C.ar    1  UNL1       -0.0042
     26 C          -6.9066    3.7970   18.7517 C.ar    1  UNL1       -0.0003
     27 C          -7.8162    4.9849   18.8594 C.ar    1  UNL1       -0.0000
     28 C          -7.5634    6.0309   19.9043 C.ar    1  UNL1       -0.0003
     29 C          -6.4008    5.8890   20.8416 C.ar    1  UNL1       -0.0042
@<TRIPOS>BOND
     1     1     2    2
     2     2     3    1
     3     3     4    1
     4     4     5    1
     5     5     6    1
     6     6     7    1
     7     7     8   am
     8     8     9    2
     9     8    10   am
    10    21    10    1
    11    21    22    1
    12    22    23    1
    13    23    24    1
    14    24    25   ar
    15    25    26   ar
    16    26    27   ar
    17    27    28   ar
    18    28    29   ar
    19     7    11    1
    20    11    12    1
    21     4    13    1
    22    13    14    1
    23    14    15   ar
    24    15    16   ar
    25    16    17   ar
    26    17    18   ar
    27    18    19   ar
    28    19     2    1
    29    12     4    1
    30    19    14   ar
    31    23    21    1
    32    29    24   ar
    33    10    20    1
@<TRIPOS>MOLECULE
*****
 29 33 0 0 0
SMALL
GASTEIGER

@<TRIPOS>ATOM
      1 O           5.1140   -2.1027   23.6759 O.2     1  UNL1       -0.2895
      2 C           4.2131   -1.8895   22.4956 C.2     1  UNL1        0.1970
      3 C           3.1605   -0.8218   22.5386 C.3     1  UNL1        0.1109
      4 C           2.2596   -0.6086   21.3584 C.3     1  UNL1        0.1438
      5 C           1.3588   -0.3956   20.1781 C.3     1  UNL1        0.0620
      6 C           0.3062    0.6722   20.2212 C.3     1  UNL1        0.0985
      7 N           0.1545    1.5269   21.4445 N.am    1  UNL1       -0.2640
      8 C          -0.8981    2.5948   21.4875 C.2     1  UNL1        0.3039
      9 O          -1.0498    3.4495   22.7108 O.2     1  UNL1       -0.2526
     10 N          -1.7990    2.8078   20.3072 N.am    1  UNL1       -0.2901
     11 C           1.0554    1.3139   22.6247 C.3     1  UNL1        0.0985
     12 C           2.1079    0.2461   22.5816 C.3     1  UNL1        0.0620
     13 O           2.4113   -1.4634   20.1351 O.3     1  UNL1       -0.4804
     14 C           3.4640   -2.5312   20.0921 C.ar    1  UNL1        0.1585
     15 C           3.6157   -3.3859   18.8688 C.ar    1  UNL1        0.0401
     16 C           4.6682   -4.4537   18.8257 C.ar    1  UNL1        0.0238
     17 C           5.5692   -4.6668   20.0060 C.ar    1  UNL1        0.0992
     18 N           5.4175   -3.8121   21.2293 N.ar    1  UNL1       -0.2379
     19 C           4.3648   -2.7443   21.2723 C.ar    1  UNL1        0.1497
     20 H          -1.6994    2.2468   19.5043 H       1  UNL1        0.1509
     21 C          -2.8516    3.8757   20.3502 C.3     1  UNL1        0.0774
     22 C          -3.5072    5.0788   19.7398 C.3     1  UNL1        0.0259
     23 C          -4.0192    4.5220   21.0351 C.3     1  UNL1        0.0420
     24 C          -4.9889    4.5736   22.1783 C.ar    1  UNL1       -0.0208
     25 C          -6.4446    4.3017   21.9399 C.ar    1  UNL1       -0.0042
     26 C          -7.4143    4.3533   23.0831 C.ar    1  UNL1       -0.0003
     27 C          -6.9282    4.6769   24.4649 C.ar    1  UNL1       -0.0000
     28 C          -5.4725    4.9489   24.7033 C.ar    1  UNL1       -0.0003
     29 C          -4.5028    4.8972   23.5600 C.ar    1  UNL1       -0.0042
@<TRIPOS>BOND
     1     1     2    2
     2     2     3    1
     3     3     4    1
     4     4     5    1
     5     5     6    1
     6     6     7    1
     7     7     8   am
     8     8     9    2
     9     8    10   am
    10    21    10    1
    11    21    22    1
    12    22    23    1
    13    23    24    1
    14    24    25   ar
    15    25    26   ar
    16    26    27   ar
    17    27    28   ar
    18    28    29   ar
    19     7    11    1
    20    11    12    1
    21     4    13    1
    22    13    14    1
    23    14    15   ar
    24    15    16   ar
    25    16    17   ar
    26    17    18   ar
    27    18    19   ar
    28    19     2    1
    29    12     4    1
    30    19    14   ar
    31    23    21    1
    32    29    24   ar
    33    10    20    1
@<TRIPOS>MOLECULE
*****
 29 33 0 0 0
SMALL
GASTEIGER

@<TRIPOS>ATOM
      1 O           6.5048   -2.5125   30.7695 O.2     1  UNL1       -0.2895
      2 C           6.8319   -3.3735   29.5855 C.2     1  UNL1        0.1970
      3 C           6.3570   -2.9803   28.2181 C.3     1  UNL1        0.1109
      4 C           6.6841   -3.8413   27.0341 C.3     1  UNL1        0.1438
      5 C           7.0112   -4.7022   25.8502 C.3     1  UNL1        0.0620
      6 C           6.5363   -4.3090   24.4828 C.3     1  UNL1        0.0985
      7 N           5.7343   -3.0547   24.2993 N.am    1  UNL1       -0.2640
      8 C           5.2594   -2.6615   22.9319 C.2     1  UNL1        0.3039
      9 O           4.4573   -1.4073   22.7484 O.2     1  UNL1       -0.2526
     10 N           5.5865   -3.5225   21.7480 N.am    1  UNL1       -0.2901
     11 C           5.4071   -2.1938   25.4832 C.3     1  UNL1        0.0985
     12 C           5.8821   -2.5870   26.8506 C.3     1  UNL1        0.0620
     13 O           7.4862   -5.0955   27.2175 O.3     1  UNL1       -0.4804
     14 C           7.9611   -5.4887   28.5850 C.ar    1  UNL1        0.1585
     15 C           8.7631   -6.7429   28.7685 C.ar    1  UNL1        0.0401
     16 C           9.2380   -7.1362   30.1359 C.ar    1  UNL1        0.0238
     17 C           8.9109   -6.2752   31.3199 C.ar    1  UNL1        0.0992
     18 N           8.1089   -5.0210   31.1364 N.ar    1  UNL1       -0.2379
     19 C           7.6339   -4.6277   29.7689 C.ar    1  UNL1        0.1497
     20 H           6.1129   -4.3457   21.8684 H       1  UNL1        0.1509
     21 C           5.1116   -3.1292   20.3805 C.3     1  UNL1        0.0774
     22 C           5.1596   -3.2968   18.8907 C.3     1  UNL1        0.0259
     23 C           4.2410   -2.2806   19.5018 C.3     1  UNL1        0.0420
     24 C           3.2081   -1.2040   19.3475 C.ar    1  UNL1       -0.0208
     25 C           1.9445   -1.2557   20.1541 C.ar    1  UNL1       -0.0042
     26 C           0.9116   -0.1791   19.9997 C.ar    1  UNL1       -0.0003
     27 C           1.1423    0.9494   19.0387 C.ar    1  UNL1       -0.0000
     28 C           2.4059    1.0011   18.2321 C.ar    1  UNL1       -0.0003
     29 C           3.4388   -0.0756   18.3865 C.ar    1  UNL1       -0.0042
@<TRIPOS>BOND
     1     1     2    2
     2     2     3    1
     3     3     4    1
     4     4     5    1
     5     5     6    1
     6     6     7    1
     7     7     8   am
     8     8     9    2
     9     8    10   am
    10    21    10    1
    11    21    22    1
    12    22    23    1
    13    23    24    1
    14    24    25   ar
    15    25    26   ar
    16    26    27   ar
    17    27    28   ar
    18    28    29   ar
    19     7    11    1
    20    11    12    1
    21     4    13    1
    22    13    14    1
    23    14    15   ar
    24    15    16   ar
    25    16    17   ar
    26    17    18   ar
    27    18    19   ar
    28    19     2    1
    29    12     4    1
    30    19    14   ar
    31    23    21    1
    32    29    24   ar
    33    10    20    1
@<TRIPOS>MOLECULE
*****
 29 33 0 0 0
SMALL
GASTEIGER

@<TRIPOS>ATOM
      1 O           5.8008   -4.6719   20.0589 O.2     1  UNL1       -0.2895
      2 C           5.3450   -3.7705   21.1679 C.2     1  UNL1        0.1970
      3 C           4.2936   -2.7330   20.9070 C.3     1  UNL1        0.1109
      4 C           3.8378   -1.8316   22.0160 C.3     1  UNL1        0.1438
      5 C           3.3821   -0.9302   23.1249 C.3     1  UNL1        0.0620
      6 C           2.3307    0.1072   22.8640 C.3     1  UNL1        0.0985
      7 N           1.7349    0.2433   21.4941 N.am    1  UNL1       -0.2640
      8 C           0.6835    1.2809   21.2332 C.2     1  UNL1        0.3039
      9 O           0.0877    1.4170   19.8633 O.2     1  UNL1       -0.2526
     10 N           0.2277    2.1822   22.3422 N.am    1  UNL1       -0.2901
     11 C           2.1907   -0.6580   20.3851 C.3     1  UNL1        0.0985
     12 C           3.2421   -1.6955   20.6461 C.3     1  UNL1        0.0620
     13 O           4.4335   -1.9677   23.3858 O.3     1  UNL1       -0.4804
     14 C           5.4850   -3.0052   23.6467 C.ar    1  UNL1        0.1585
     15 C           6.0807   -3.1413   25.0166 C.ar    1  UNL1        0.0401
     16 C           7.1321   -4.1788   25.2776 C.ar    1  UNL1        0.0238
     17 C           7.5879   -5.0802   24.1686 C.ar    1  UNL1        0.0992
     18 N           6.9922   -4.9441   22.7987 N.ar    1  UNL1       -0.2379
     19 C           5.9407   -3.9066   22.5378 C.ar    1  UNL1        0.1497
     20 H           0.6187    2.0929   23.2413 H       1  UNL1        0.1509
     21 C          -0.8237    3.2197   22.0813 C.3     1  UNL1        0.0774
     22 C          -1.3308    4.3828   21.2811 C.3     1  UNL1        0.0259
     23 C          -2.1378    3.8537   22.4295 C.3     1  UNL1        0.0420
     24 C          -3.3624    3.9143   23.2936 C.ar    1  UNL1       -0.0208
     25 C          -3.2273    3.9088   24.7875 C.ar    1  UNL1       -0.0042
     26 C          -4.4518    3.9694   25.6515 C.ar    1  UNL1       -0.0003
     27 C          -5.8117    4.0354   25.0217 C.ar    1  UNL1       -0.0000
     28 C          -5.9468    4.0408   23.5279 C.ar    1  UNL1       -0.0003
     29 C          -4.7221    3.9803   22.6638 C.ar    1  UNL1       -0.0042
@<TRIPOS>BOND
     1     1     2    2
     2     2     3    1
     3     3     4    1
     4     4     5    1
     5     5     6    1
     6     6     7    1
     7     7     8   am
     8     8     9    2
     9     8    10   am
    10    21    10    1
    11    21    22    1
    12    22    23    1
    13    23    24    1
    14    24    25   ar
    15    25    26   ar
    16    26    27   ar
    17    27    28   ar
    18    28    29   ar
    19     7    11    1
    20    11    12    1
    21     4    13    1
    22    13    14    1
    23    14    15   ar
    24    15    16   ar
    25    16    17   ar
    26    17    18   ar
    27    18    19   ar
    28    19     2    1
    29    12     4    1
    30    19    14   ar
    31    23    21    1
    32    29    24   ar
    33    10    20    1
@<TRIPOS>MOLECULE
*****
 29 33 0 0 0
SMALL
GASTEIGER

@<TRIPOS>ATOM
      1 O           2.0807   -0.1725   21.6599 O.2     1  UNL1       -0.2895
      2 C           3.1693   -1.1182   22.0732 C.2     1  UNL1        0.1970
      3 C           3.5935   -1.1915   23.5101 C.3     1  UNL1        0.1109
      4 C           4.6821   -2.1372   23.9234 C.3     1  UNL1        0.1438
      5 C           5.7706   -3.0828   24.3367 C.3     1  UNL1        0.0620
      6 C           6.1948   -3.1561   25.7736 C.3     1  UNL1        0.0985
      7 N           5.5305   -2.2838   26.7972 N.am    1  UNL1       -0.2640
      8 C           5.9547   -2.3572   28.2341 C.2     1  UNL1        0.3039
      9 O           5.2904   -1.4849   29.2577 O.2     1  UNL1       -0.2526
     10 N           7.0433   -3.3028   28.6474 N.am    1  UNL1       -0.2901
     11 C           4.4420   -1.3382   26.3839 C.3     1  UNL1        0.0985
     12 C           4.0178   -1.2648   24.9470 C.3     1  UNL1        0.0620
     13 O           5.3464   -3.0095   22.8999 O.3     1  UNL1       -0.4804
     14 C           4.9222   -2.9361   21.4629 C.ar    1  UNL1        0.1585
     15 C           5.5865   -3.8084   20.4393 C.ar    1  UNL1        0.0401
     16 C           5.1623   -3.7351   19.0025 C.ar    1  UNL1        0.0238
     17 C           4.0738   -2.7894   18.5891 C.ar    1  UNL1        0.0992
     18 N           3.4094   -1.9171   19.6127 N.ar    1  UNL1       -0.2379
     19 C           3.8337   -1.9905   21.0496 C.ar    1  UNL1        0.1497
     20 H           7.4793   -3.8753   27.9756 H       1  UNL1        0.1509
     21 C           7.4675   -3.3762   30.0843 C.3     1  UNL1        0.0774
     22 C           8.4019   -3.8921   31.1382 C.3     1  UNL1        0.0259
     23 C           7.2679   -2.9873   31.5192 C.3     1  UNL1        0.0420
     24 C           6.4980   -2.2403   32.5676 C.ar    1  UNL1       -0.0208
     25 C           7.1484   -1.1152   33.3168 C.ar    1  UNL1       -0.0042
     26 C           6.3784   -0.3683   34.3652 C.ar    1  UNL1       -0.0003
     27 C           4.9580   -0.7464   34.6645 C.ar    1  UNL1       -0.0000
     28 C           4.3076   -1.8714   33.9153 C.ar    1  UNL1       -0.0003
     29 C           5.0776   -2.6184   32.8669 C.ar    1  UNL1       -0.0042
@<TRIPOS>BOND
     1     1     2    2
     2     2     3    1
     3     3     4    1
     4     4     5    1
     5     5     6    1
     6     6     7    1
     7     7     8   am
     8     8     9    2
     9     8    10   am
    10    21    10    1
    11    21    22    1
    12    22    23    1
    13    23    24    1
    14    24    25   ar
    15    25    26   ar
    16    26    27   ar
    17    27    28   ar
    18    28    29   ar
    19     7    11    1
    20    11    12    1
    21     4    13    1
    22    13    14    1
    23    14    15   ar
    24    15    16   ar
    25    16    17   ar
    26    17    18   ar
    27    18    19   ar
    28    19     2    1
    29    12     4    1
    30    19    14   ar
    31    23    21    1
    32    29    24   ar
    33    10    20    1
@<TRIPOS>MOLECULE
*****
 29 33 0 0 0
SMALL
GASTEIGER

@<TRIPOS>ATOM
      1 O           8.6605   -8.0019   28.3004 O.2     1  UNL1       -0.2895
      2 C           8.0270   -6.6727   28.0143 C.2     1  UNL1        0.1970
      3 C           7.8254   -6.2277   26.5961 C.3     1  UNL1        0.1109
      4 C           7.1918   -4.8985   26.3099 C.3     1  UNL1        0.1438
      5 C           6.5583   -3.5693   26.0238 C.3     1  UNL1        0.0620
      6 C           6.3567   -3.1243   24.6056 C.3     1  UNL1        0.0985
      7 N           6.7886   -4.0085   23.4735 N.am    1  UNL1       -0.2640
      8 C           6.5870   -3.5635   22.0553 C.2     1  UNL1        0.3039
      9 O           7.0189   -4.4477   20.9232 O.2     1  UNL1       -0.2526
     10 N           5.9535   -2.2343   21.7692 N.am    1  UNL1       -0.2901
     11 C           7.4221   -5.3377   23.7596 C.3     1  UNL1        0.0985
     12 C           7.6237   -5.7827   25.1778 C.3     1  UNL1        0.0620
     13 O           6.7599   -4.0142   27.4420 O.3     1  UNL1       -0.4804
     14 C           6.9616   -4.4593   28.8603 C.ar    1  UNL1        0.1585
     15 C           6.5297   -3.5751   29.9923 C.ar    1  UNL1        0.0401
     16 C           6.7313   -4.0200   31.4105 C.ar    1  UNL1        0.0238
     17 C           7.3648   -5.3493   31.6967 C.ar    1  UNL1        0.0992
     18 N           7.7967   -6.2335   30.5646 N.ar    1  UNL1       -0.2379
     19 C           7.5951   -5.7885   29.1464 C.ar    1  UNL1        0.1497
     20 H           5.6700   -1.6540   22.5122 H       1  UNL1        0.1509
     21 C           5.7518   -1.7893   20.3509 C.3     1  UNL1        0.0774
     22 C           6.1296   -1.8602   18.9010 C.3     1  UNL1        0.0259
     23 C           5.0248   -0.9476   19.3444 C.3     1  UNL1        0.0420
     24 C           3.9672    0.0652   19.0193 C.ar    1  UNL1       -0.0208
     25 C           4.3464    1.4982   18.7896 C.ar    1  UNL1       -0.0042
     26 C           3.2888    2.5110   18.4645 C.ar    1  UNL1       -0.0003
     27 C           1.8520    2.0908   18.3692 C.ar    1  UNL1       -0.0000
     28 C           1.4728    0.6578   18.5989 C.ar    1  UNL1       -0.0003
     29 C           2.5305   -0.3550   18.9240 C.ar    1  UNL1       -0.0042
@<TRIPOS>BOND
     1     1     2    2
     2     2     3    1
     3     3     4    1
     4     4     5    1
     5     5     6    1
     6     6     7    1
     7     7     8   am
     8     8     9    2
     9     8    10   am
    10    21    10    1
    11    21    22    1
    12    22    23    1
    13    23    24    1
    14    24    25   ar
    15    25    26   ar
    16    26    27   ar
    17    27    28   ar
    18    28    29   ar
    19     7    11    1
    20    11    12    1
    21     4    13    1
    22    13    14    1
    23    14    15   ar
    24    15    16   ar
    25    16    17   ar
    26    17    18   ar
    27    18    19   ar
    28    19     2    1
    29    12     4    1
    30    19    14   ar
    31    23    21    1
    32    29    24   ar
    33    10    20    1
@<TRIPOS>MOLECULE
*****
 29 33 0 0 0
SMALL
GASTEIGER

@<TRIPOS>ATOM
      1 O           2.0566    2.5836   31.5840 O.2     1  UNL1       -0.2895
      2 C           2.7948    1.3922   31.0495 C.2     1  UNL1        0.1970
      3 C           2.7868    1.1033   29.5776 C.3     1  UNL1        0.1109
      4 C           3.5250   -0.0880   29.0430 C.3     1  UNL1        0.1438
      5 C           4.2632   -1.2794   28.5085 C.3     1  UNL1        0.0620
      6 C           4.2552   -1.5682   27.0367 C.3     1  UNL1        0.0985
      7 N           3.5089   -0.6658   26.0993 N.am    1  UNL1       -0.2640
      8 C           3.5008   -0.9548   24.6274 C.2     1  UNL1        0.3039
      9 O           2.7545   -0.0523   23.6900 O.2     1  UNL1       -0.2526
     10 N           4.2390   -2.1461   24.0929 N.am    1  UNL1       -0.2901
     11 C           2.7707    0.5255   26.6338 C.3     1  UNL1        0.0985
     12 C           2.7787    0.8144   28.1056 C.3     1  UNL1        0.0620
     13 O           4.2713   -0.9905   29.9804 O.3     1  UNL1       -0.4804
     14 C           4.2793   -0.7015   31.4523 C.ar    1  UNL1        0.1585
     15 C           5.0256   -1.6040   32.3897 C.ar    1  UNL1        0.0401
     16 C           5.0337   -1.3151   33.8616 C.ar    1  UNL1        0.0238
     17 C           4.2955   -0.1237   34.3961 C.ar    1  UNL1        0.0992
     18 N           3.5492    0.7787   33.4588 N.ar    1  UNL1       -0.2379
     19 C           3.5411    0.4898   31.9868 C.ar    1  UNL1        0.1497
     20 H           4.7288   -2.7384   24.7081 H       1  UNL1        0.1509
     21 C           4.2310   -2.4350   22.6209 C.3     1  UNL1        0.0774
     22 C           4.6509   -3.2908   21.4628 C.3     1  UNL1        0.0259
     23 C           3.7972   -2.0797   21.2297 C.3     1  UNL1        0.0420
     24 C           3.0539   -1.1753   20.2919 C.ar    1  UNL1       -0.0208
     25 C           3.7393   -0.6315   19.0735 C.ar    1  UNL1       -0.0042
     26 C           2.9959    0.2729   18.1357 C.ar    1  UNL1       -0.0003
     27 C           1.5672    0.6335   18.4163 C.ar    1  UNL1       -0.0000
     28 C           0.8818    0.0897   19.6347 C.ar    1  UNL1       -0.0003
     29 C           1.6252   -0.8147   20.5725 C.ar    1  UNL1       -0.0042
@<TRIPOS>BOND
     1     1     2    2
     2     2     3    1
     3     3     4    1
     4     4     5    1
     5     5     6    1
     6     6     7    1
     7     7     8   am
     8     8     9    2
     9     8    10   am
    10    21    10    1
    11    21    22    1
    12    22    23    1
    13    23    24    1
    14    24    25   ar
    15    25    26   ar
    16    26    27   ar
    17    27    28   ar
    18    28    29   ar
    19     7    11    1
    20    11    12    1
    21     4    13    1
    22    13    14    1
    23    14    15   ar
    24    15    16   ar
    25    16    17   ar
    26    17    18   ar
    27    18    19   ar
    28    19     2    1
    29    12     4    1
    30    19    14   ar
    31    23    21    1
    32    29    24   ar
    33    10    20    1
@<TRIPOS>MOLECULE
*****
 29 33 0 0 0
SMALL
GASTEIGER

@<TRIPOS>ATOM
      1 O           3.8478   -1.8729   33.6051 O.2     1  UNL1       -0.2895
      2 C           4.1939   -1.6182   32.1679 C.2     1  UNL1        0.1970
      3 C           3.2114   -0.9249   31.2713 C.3     1  UNL1        0.1109
      4 C           3.5575   -0.6702   29.8341 C.3     1  UNL1        0.1438
      5 C           3.9036   -0.4156   28.3970 C.3     1  UNL1        0.0620
      6 C           2.9210    0.2777   27.5005 C.3     1  UNL1        0.0985
      7 N           1.5923    0.7163   28.0410 N.am    1  UNL1       -0.2640
      8 C           0.6097    1.4096   27.1444 C.2     1  UNL1        0.3039
      9 O          -0.7190    1.8482   27.6849 O.2     1  UNL1       -0.2526
     10 N           0.9558    1.6643   25.7073 N.am    1  UNL1       -0.2901
     11 C           1.2462    0.4616   29.4781 C.3     1  UNL1        0.0985
     12 C           2.2288   -0.2316   30.3747 C.3     1  UNL1        0.0620
     13 O           4.8862   -1.1088   29.2936 O.3     1  UNL1       -0.4804
     14 C           5.8687   -1.8022   30.1902 C.ar    1  UNL1        0.1585
     15 C           7.1974   -2.2408   29.6497 C.ar    1  UNL1        0.0401
     16 C           8.1800   -2.9340   30.5463 C.ar    1  UNL1        0.0238
     17 C           7.8339   -3.1888   31.9834 C.ar    1  UNL1        0.0992
     18 N           6.5052   -2.7501   32.5240 N.ar    1  UNL1       -0.2379
     19 C           5.5226   -2.0568   31.6273 C.ar    1  UNL1        0.1497
     20 H           1.8279    1.3764   25.3525 H       1  UNL1        0.1509
     21 C          -0.0268    2.3576   24.8106 C.3     1  UNL1        0.0774
     22 C          -0.4270    2.8373   23.4469 C.3     1  UNL1        0.0259
     23 C          -1.3283    3.0788   24.6213 C.3     1  UNL1        0.0420
     24 C          -2.6001    3.6346   25.1901 C.ar    1  UNL1       -0.0208
     25 C          -2.5652    4.4524   26.4471 C.ar    1  UNL1       -0.0042
     26 C          -3.8370    5.0082   27.0158 C.ar    1  UNL1       -0.0003
     27 C          -5.1438    4.7462   26.3277 C.ar    1  UNL1       -0.0000
     28 C          -5.1788    3.9284   25.0707 C.ar    1  UNL1       -0.0003
     29 C          -3.9069    3.3726   24.5019 C.ar    1  UNL1       -0.0042
@<TRIPOS>BOND
     1     1     2    2
     2     2     3    1
     3     3     4    1
     4     4     5    1
     5     5     6    1
     6     6     7    1
     7     7     8   am
     8     8     9    2
     9     8    10   am
    10    21    10    1
    11    21    22    1
    12    22    23    1
    13    23    24    1
    14    24    25   ar
    15    25    26   ar
    16    26    27   ar
    17    27    28   ar
    18    28    29   ar
    19     7    11    1
    20    11    12    1
    21     4    13    1
    22    13    14    1
    23    14    15   ar
    24    15    16   ar
    25    16    17   ar
    26    17    18   ar
    27    18    19   ar
    28    19     2    1
    29    12     4    1
    30    19    14   ar
    31    23    21    1
    32    29    24   ar
    33    10    20    1
