@<TRIPOS>MOLECULE
*****
 40 44 0 0 0
SMALL
GASTEIGER

@<TRIPOS>ATOM
      1 N           6.7376   -5.0415   31.9265 N.am    1  UNL1       -0.2903
      2 C           6.2075   -3.6432   32.0438 C.2     1  UNL1        0.3044
      3 O           6.8151   -2.5400   31.2291 O.2     1  UNL1       -0.2525
      4 N           5.0699   -3.3481   32.9759 N.am    1  UNL1       -0.2682
      5 H           6.3388   -5.7656   32.4612 H       1  UNL1        0.1509
      6 H           4.6711   -4.0722   33.5106 H       1  UNL1        0.1564
      7 C           4.5399   -1.9498   33.0932 C.ar    1  UNL1        0.0546
      8 C           3.7312   -1.3581   31.9768 C.ar    1  UNL1        0.0339
      9 C           3.2012    0.0402   32.0942 C.ar    1  UNL1        0.0856
     10 C           3.4797    0.8468   33.3277 C.ar    1  UNL1        0.0384
     11 C           4.2883    0.2552   34.4440 C.ar    1  UNL1        0.0856
     12 C           4.8184   -1.1432   34.3267 C.ar    1  UNL1        0.0339
     13 N           2.3926    0.6318   30.9779 N.ar    1  UNL1       -0.2281
     14 C           2.4360    2.0590   30.5180 C.ar    1  UNL1        0.1020
     15 C           1.4689    2.2094   29.3814 C.ar    1  UNL1        0.0431
     16 C           0.8276    0.8752   29.1387 C.ar    1  UNL1        0.1221
     17 N           1.3985   -0.0998   30.1254 N.ar    1  UNL1       -0.1635
     18 N           4.5668    1.0619   35.6776 N.ar    1  UNL1       -0.2281
     19 C           4.4979    0.5639   37.0909 C.ar    1  UNL1        0.1020
     20 C           4.8517    1.7024   38.0012 C.ar    1  UNL1        0.0431
     21 C           5.1392    2.9040   37.1506 C.ar    1  UNL1        0.1221
     22 N           4.9631    2.5081   35.7145 N.ar    1  UNL1       -0.1635
     23 C           9.2580   -4.8575   31.3235 C.3     1  UNL1        0.0214
     24 C           7.8752   -5.3366   30.9945 C.3     1  UNL1        0.0745
     25 C           7.6301   -6.1109   29.7333 C.3     1  UNL1        0.0369
     26 C           6.9477   -5.4537   28.5704 C.3     1  UNL1        0.0738
     27 N           7.3024   -5.8536   27.1688 N.3     1  UNL1       -0.2726
     28 C           7.5146   -7.2999   26.8326 C.3     1  UNL1        0.0721
     29 C           7.8693   -7.6998   25.4311 C.3     1  UNL1        0.0174
     30 C           8.0118   -6.6534   24.3658 C.3     1  UNL1        0.0031
     31 C           7.7996   -5.2071   24.7021 C.3     1  UNL1        0.0204
     32 C           7.4449   -4.8072   26.1036 C.3     1  UNL1        0.0724
     33 C           7.9421   -4.1606   23.6369 C.3     1  UNL1        0.0277
     34 C           6.8433   -3.9537   22.6370 C.ar    1  UNL1       -0.0220
     35 C           5.4453   -3.6774   23.1054 C.ar    1  UNL1       -0.0020
     36 C           4.3465   -3.4705   22.1055 C.ar    1  UNL1        0.0293
     37 C           4.6456   -3.5399   20.6373 C.ar    1  UNL1        0.1401
     38 F           3.5467   -3.3330   19.6374 F       1  UNL1       -0.2042
     39 C           6.0436   -3.8162   20.1689 C.ar    1  UNL1        0.0293
     40 C           7.1424   -4.0231   21.1688 C.ar    1  UNL1       -0.0020
@<TRIPOS>BOND
     1    24    23    1
     2    24    25    1
     3    25    26    1
     4    26    27    1
     5    27    28    1
     6    28    29    1
     7    29    30    1
     8    30    31    1
     9    31    33    1
    10    33    34    1
    11    34    35   ar
    12    35    36   ar
    13    36    37   ar
    14    37    38    1
    15    37    39   ar
    16    39    40   ar
    17    31    32    1
    18    24     1    1
    19     1     2   am
    20     2     3    2
    21     2     4   am
    22     4     7    1
    23     7     8   ar
    24     8     9   ar
    25     9    13    1
    26    13    14   ar
    27    14    15   ar
    28    15    16   ar
    29    16    17   ar
    30     9    10   ar
    31    10    11   ar
    32    11    18    1
    33    18    19   ar
    34    19    20   ar
    35    20    21   ar
    36    21    22   ar
    37    11    12   ar
    38    32    27    1
    39    12     7   ar
    40    40    34   ar
    41    17    13   ar
    42    22    18   ar
    43     1     5    1
    44     4     6    1
@<TRIPOS>MOLECULE
*****
 40 44 0 0 0
SMALL
GASTEIGER

@<TRIPOS>ATOM
      1 N           6.7346   -5.0031   31.9167 N.am    1  UNL1       -0.2903
      2 C           6.2012   -3.6072   32.0464 C.2     1  UNL1        0.3044
      3 O           6.8189   -2.4919   31.2563 O.2     1  UNL1       -0.2525
      4 N           5.0501   -3.3266   32.9663 N.am    1  UNL1       -0.2682
      5 H           6.3291   -5.7352   32.4353 H       1  UNL1        0.1509
      6 H           4.6446   -4.0587   33.4849 H       1  UNL1        0.1564
      7 C           4.5167   -1.9307   33.0961 C.ar    1  UNL1        0.0546
      8 C           4.7640   -1.1469   34.3509 C.ar    1  UNL1        0.0339
      9 C           4.2306    0.2490   34.4806 C.ar    1  UNL1        0.0856
     10 C           3.4499    0.8612   33.3556 C.ar    1  UNL1        0.0384
     11 C           3.2025    0.0774   32.1008 C.ar    1  UNL1        0.0856
     12 C           3.7359   -1.3185   31.9710 C.ar    1  UNL1        0.0339
     13 N           4.4780    1.0328   35.7354 N.ar    1  UNL1       -0.2281
     14 C           5.5472    0.7572   36.7508 C.ar    1  UNL1        0.1020
     15 C           5.4296    1.7838   37.8381 C.ar    1  UNL1        0.0431
     16 C           4.2878    2.6939   37.4948 C.ar    1  UNL1        0.1221
     17 N           3.6996    2.2298   36.1952 N.ar    1  UNL1       -0.1635
     18 N           2.4218    0.6896   30.9758 N.ar    1  UNL1       -0.2281
     19 C           2.5883    2.0816   30.4422 C.ar    1  UNL1        0.1020
     20 C           1.6068    2.2695   29.3234 C.ar    1  UNL1        0.0431
     21 C           0.8338    0.9938   29.1657 C.ar    1  UNL1        0.1221
     22 N           1.3375    0.0173   30.1869 N.ar    1  UNL1       -0.1635
     23 C           9.2569   -4.7790   31.3358 C.3     1  UNL1        0.0214
     24 C           7.8857   -5.2837   30.9968 C.3     1  UNL1        0.0745
     25 C           7.6655   -6.0690   29.7378 C.3     1  UNL1        0.0369
     26 C           6.9750   -5.4327   28.5681 C.3     1  UNL1        0.0738
     27 N           7.3272   -5.8505   27.1711 N.3     1  UNL1       -0.2726
     28 C           7.5309   -7.3018   26.8512 C.3     1  UNL1        0.0721
     29 C           7.8830   -7.7195   25.4543 C.3     1  UNL1        0.0174
     30 C           8.0315   -6.6860   24.3773 C.3     1  UNL1        0.0031
     31 C           7.8278   -5.2348   24.6972 C.3     1  UNL1        0.0204
     32 C           7.4757   -4.8171   26.0942 C.3     1  UNL1        0.0724
     33 C           7.9763   -4.2013   23.6203 C.3     1  UNL1        0.0277
     34 C           6.8675   -3.9808   22.6345 C.ar    1  UNL1       -0.0220
     35 C           7.1537   -4.0201   21.1625 C.ar    1  UNL1       -0.0020
     36 C           6.0449   -3.7995   20.1767 C.ar    1  UNL1        0.0293
     37 C           4.6498   -3.5396   20.6628 C.ar    1  UNL1        0.1401
     38 F           3.5410   -3.3190   19.6769 F       1  UNL1       -0.2042
     39 C           4.3636   -3.5003   22.1347 C.ar    1  UNL1        0.0293
     40 C           5.4724   -3.7208   23.1206 C.ar    1  UNL1       -0.0020
@<TRIPOS>BOND
     1    24    23    1
     2    24    25    1
     3    25    26    1
     4    26    27    1
     5    27    28    1
     6    28    29    1
     7    29    30    1
     8    30    31    1
     9    31    33    1
    10    33    34    1
    11    34    35   ar
    12    35    36   ar
    13    36    37   ar
    14    37    38    1
    15    37    39   ar
    16    39    40   ar
    17    31    32    1
    18    24     1    1
    19     1     2   am
    20     2     3    2
    21     2     4   am
    22     4     7    1
    23     7     8   ar
    24     8     9   ar
    25     9    13    1
    26    13    14   ar
    27    14    15   ar
    28    15    16   ar
    29    16    17   ar
    30     9    10   ar
    31    10    11   ar
    32    11    18    1
    33    18    19   ar
    34    19    20   ar
    35    20    21   ar
    36    21    22   ar
    37    11    12   ar
    38    32    27    1
    39    12     7   ar
    40    40    34   ar
    41    17    13   ar
    42    22    18   ar
    43     1     5    1
    44     4     6    1
@<TRIPOS>MOLECULE
*****
 40 44 0 0 0
SMALL
GASTEIGER

@<TRIPOS>ATOM
      1 N           1.9020   -0.5676   29.4209 N.am    1  UNL1       -0.2903
      2 C           1.4034    0.4589   28.4475 C.2     1  UNL1        0.3044
      3 O           2.1488    1.7483   28.2698 O.2     1  UNL1       -0.2525
      4 N           0.1593    0.1959   27.6517 N.am    1  UNL1       -0.2682
      5 H           1.4127   -1.4140   29.5376 H       1  UNL1        0.1509
      6 H          -0.3299   -0.6504   27.7684 H       1  UNL1        0.1564
      7 C          -0.3393    1.2224   26.6783 C.ar    1  UNL1        0.0546
      8 C           0.2288    1.2789   25.2911 C.ar    1  UNL1        0.0339
      9 C          -0.2698    2.3054   24.3177 C.ar    1  UNL1        0.0856
     10 C          -1.3364    3.2755   24.7313 C.ar    1  UNL1        0.0384
     11 C          -1.9045    3.2191   26.1184 C.ar    1  UNL1        0.0856
     12 C          -1.4059    2.1926   27.0919 C.ar    1  UNL1        0.0339
     13 N           0.2983    2.3618   22.9306 N.ar    1  UNL1       -0.2281
     14 C           1.1636    3.4544   22.3759 C.ar    1  UNL1        0.1020
     15 C           1.5009    3.1034   20.9571 C.ar    1  UNL1        0.0431
     16 C           0.8442    1.7938   20.6348 C.ar    1  UNL1        0.1221
     17 N           0.1009    1.3355   21.8545 N.ar    1  UNL1       -0.1635
     18 N          -2.9712    4.1892   26.5320 N.ar    1  UNL1       -0.2281
     19 C          -2.7458    5.5735   27.0642 C.ar    1  UNL1        0.1020
     20 C          -4.0859    6.1851   27.3472 C.ar    1  UNL1        0.0431
     21 C          -5.1395    5.1790   26.9899 C.ar    1  UNL1        0.1221
     22 N          -4.4505    3.9455   26.4861 N.ar    1  UNL1       -0.1635
     23 C           3.0481    0.3180   31.5778 C.3     1  UNL1        0.0214
     24 C           3.1460   -0.3047   30.2167 C.3     1  UNL1        0.0745
     25 C           4.4880   -0.6645   29.6513 C.3     1  UNL1        0.0369
     26 C           4.5826   -1.3365   28.3136 C.3     1  UNL1        0.0738
     27 N           4.5388   -0.5171   27.0579 N.3     1  UNL1       -0.2726
     28 C           5.3399    0.7471   26.9590 C.3     1  UNL1        0.0721
     29 C           5.2960    1.5664   25.7033 C.3     1  UNL1        0.0174
     30 C           4.4511    1.1214   24.5465 C.3     1  UNL1        0.0031
     31 C           3.6501   -0.1429   24.6454 C.3     1  UNL1        0.0204
     32 C           3.6939   -0.9622   25.9011 C.3     1  UNL1        0.0724
     33 C           2.8052   -0.5879   23.4887 C.3     1  UNL1        0.0277
     34 C           3.3924   -1.4689   22.4261 C.ar    1  UNL1       -0.0220
     35 C           4.2611   -2.6300   22.8101 C.ar    1  UNL1       -0.0020
     36 C           4.8483   -3.5109   21.7476 C.ar    1  UNL1        0.0293
     37 C           4.5669   -3.2309   20.3011 C.ar    1  UNL1        0.1401
     38 F           5.1542   -4.1119   19.2385 F       1  UNL1       -0.2042
     39 C           3.6983   -2.0699   19.9171 C.ar    1  UNL1        0.0293
     40 C           3.1110   -1.1888   20.9796 C.ar    1  UNL1       -0.0020
@<TRIPOS>BOND
     1    24    23    1
     2    24    25    1
     3    25    26    1
     4    26    27    1
     5    27    28    1
     6    28    29    1
     7    29    30    1
     8    30    31    1
     9    31    33    1
    10    33    34    1
    11    34    35   ar
    12    35    36   ar
    13    36    37   ar
    14    37    38    1
    15    37    39   ar
    16    39    40   ar
    17    31    32    1
    18    24     1    1
    19     1     2   am
    20     2     3    2
    21     2     4   am
    22     4     7    1
    23     7     8   ar
    24     8     9   ar
    25     9    13    1
    26    13    14   ar
    27    14    15   ar
    28    15    16   ar
    29    16    17   ar
    30     9    10   ar
    31    10    11   ar
    32    11    18    1
    33    18    19   ar
    34    19    20   ar
    35    20    21   ar
    36    21    22   ar
    37    11    12   ar
    38    32    27    1
    39    12     7   ar
    40    40    34   ar
    41    17    13   ar
    42    22    18   ar
    43     1     5    1
    44     4     6    1
@<TRIPOS>MOLECULE
*****
 40 44 0 0 0
SMALL
GASTEIGER

@<TRIPOS>ATOM
      1 N          -0.3396    0.9092   25.9907 N.am    1  UNL1       -0.2903
      2 C           0.4539    1.1368   27.2430 C.2     1  UNL1        0.3044
      3 O           1.4437    2.2619   27.3096 O.2     1  UNL1       -0.2525
      4 N           0.2577    0.2393   28.4288 N.am    1  UNL1       -0.2682
      5 H          -0.9893    0.1708   25.9470 H       1  UNL1        0.1509
      6 H          -0.3919   -0.4991   28.3851 H       1  UNL1        0.1564
      7 C           1.0513    0.4669   29.6811 C.ar    1  UNL1        0.0546
      8 C           2.1527   -0.4808   30.0538 C.ar    1  UNL1        0.0339
      9 C           2.9463   -0.2532   31.3061 C.ar    1  UNL1        0.0856
     10 C           2.6385    0.9220   32.1859 C.ar    1  UNL1        0.0384
     11 C           1.5371    1.8697   31.8133 C.ar    1  UNL1        0.0856
     12 C           0.7435    1.6422   30.5609 C.ar    1  UNL1        0.0339
     13 N           4.0476   -1.2009   31.6787 N.ar    1  UNL1       -0.2281
     14 C           5.3723   -1.3291   30.9866 C.ar    1  UNL1        0.1020
     15 C           6.1611   -2.3942   31.6889 C.ar    1  UNL1        0.0431
     16 C           5.3240   -2.9244   32.8151 C.ar    1  UNL1        0.1221
     17 N           4.0178   -2.1869   32.8087 N.ar    1  UNL1       -0.1635
     18 N           1.2293    3.0450   32.6931 N.ar    1  UNL1       -0.2281
     19 C           1.9267    3.3937   33.9746 C.ar    1  UNL1        0.1020
     20 C           1.2985    4.6421   34.5193 C.ar    1  UNL1        0.0431
     21 C           0.2128    5.0650   33.5746 C.ar    1  UNL1        0.1221
     22 N           0.1701    4.0779   32.4459 N.ar    1  UNL1       -0.1635
     23 C          -0.7608    3.1736   24.7886 C.3     1  UNL1        0.0214
     24 C          -0.1434    1.8067   24.8049 C.3     1  UNL1        0.0745
     25 C           0.6703    1.3372   23.6355 C.3     1  UNL1        0.0369
     26 C           2.1664    1.2919   23.7327 C.3     1  UNL1        0.0738
     27 N           2.9008    0.0238   23.4121 N.3     1  UNL1       -0.2726
     28 C           3.5902   -0.7401   24.5034 C.3     1  UNL1        0.0721
     29 C           4.3245   -2.0081   24.1828 C.3     1  UNL1        0.0174
     30 C           4.3694   -2.5123   22.7708 C.3     1  UNL1        0.0031
     31 C           3.6800   -1.7484   21.6794 C.3     1  UNL1        0.0204
     32 C           2.9457   -0.4804   22.0000 C.3     1  UNL1        0.0724
     33 C           3.7248   -2.2526   20.2674 C.3     1  UNL1        0.0277
     34 C           4.5670   -1.5476   19.2457 C.ar    1  UNL1       -0.0220
     35 C           3.9182   -0.8866   18.0658 C.ar    1  UNL1       -0.0020
     36 C           4.7603   -0.1817   17.0441 C.ar    1  UNL1        0.0293
     37 C           6.2513   -0.1377   17.2023 C.ar    1  UNL1        0.1401
     38 F           7.0935    0.5672   16.1806 F       1  UNL1       -0.2042
     39 C           6.9001   -0.7987   18.3822 C.ar    1  UNL1        0.0293
     40 C           6.0580   -1.5037   19.4039 C.ar    1  UNL1       -0.0020
@<TRIPOS>BOND
     1    24    23    1
     2    24    25    1
     3    25    26    1
     4    26    27    1
     5    27    28    1
     6    28    29    1
     7    29    30    1
     8    30    31    1
     9    31    33    1
    10    33    34    1
    11    34    35   ar
    12    35    36   ar
    13    36    37   ar
    14    37    38    1
    15    37    39   ar
    16    39    40   ar
    17    31    32    1
    18    24     1    1
    19     1     2   am
    20     2     3    2
    21     2     4   am
    22     4     7    1
    23     7     8   ar
    24     8     9   ar
    25     9    13    1
    26    13    14   ar
    27    14    15   ar
    28    15    16   ar
    29    16    17   ar
    30     9    10   ar
    31    10    11   ar
    32    11    18    1
    33    18    19   ar
    34    19    20   ar
    35    20    21   ar
    36    21    22   ar
    37    11    12   ar
    38    32    27    1
    39    12     7   ar
    40    40    34   ar
    41    17    13   ar
    42    22    18   ar
    43     1     5    1
    44     4     6    1
@<TRIPOS>MOLECULE
*****
 40 44 0 0 0
SMALL
GASTEIGER

@<TRIPOS>ATOM
      1 N          -0.2595    0.7663   26.4312 N.am    1  UNL1       -0.2903
      2 C           0.6208    0.9706   27.6283 C.2     1  UNL1        0.3044
      3 O           1.5489    2.1477   27.6846 O.2     1  UNL1       -0.2525
      4 N           0.5731   -0.0020   28.7692 N.am    1  UNL1       -0.2682
      5 H          -0.8687   -0.0063   26.3942 H       1  UNL1        0.1509
      6 H          -0.0361   -0.7745   28.7323 H       1  UNL1        0.1564
      7 C           1.4534    0.2024   29.9664 C.ar    1  UNL1        0.0546
      8 C           1.1651    1.3171   30.9278 C.ar    1  UNL1        0.0339
      9 C           2.0454    1.5215   32.1250 C.ar    1  UNL1        0.0856
     10 C           3.2140    0.6111   32.3607 C.ar    1  UNL1        0.0384
     11 C           3.5024   -0.5035   31.3994 C.ar    1  UNL1        0.0856
     12 C           2.6220   -0.7080   30.2021 C.ar    1  UNL1        0.0339
     13 N           1.7571    2.6362   33.0863 N.ar    1  UNL1       -0.2281
     14 C           1.0504    3.9191   32.7626 C.ar    1  UNL1        0.1020
     15 C           0.9813    4.7395   34.0164 C.ar    1  UNL1        0.0431
     16 C           1.6454    3.9637   35.1152 C.ar    1  UNL1        0.1221
     17 N           2.1248    2.6637   34.5403 N.ar    1  UNL1       -0.1635
     18 N           4.6710   -1.4139   31.6352 N.ar    1  UNL1       -0.2281
     19 C           4.7699   -2.4633   32.7025 C.ar    1  UNL1        0.1020
     20 C           6.1060   -3.1326   32.5719 C.ar    1  UNL1        0.0431
     21 C           6.8328   -2.4969   31.4240 C.ar    1  UNL1        0.1221
     22 N           5.9459   -1.4347   30.8451 N.ar    1  UNL1       -0.1635
     23 C          -0.9630    3.0343   25.3771 C.3     1  UNL1        0.0214
     24 C          -0.2117    1.7389   25.2903 C.3     1  UNL1        0.0745
     25 C           0.5874    1.4162   24.0625 C.3     1  UNL1        0.0369
     26 C           0.5804    2.3570   22.8943 C.3     1  UNL1        0.0738
     27 N           1.0624    1.8904   21.5526 N.3     1  UNL1       -0.2726
     28 C           0.1833    2.0397   20.3464 C.3     1  UNL1        0.0721
     29 C           0.6652    1.5731   19.0048 C.3     1  UNL1        0.0174
     30 C           2.0263    0.9573   18.8694 C.3     1  UNL1        0.0031
     31 C           2.9053    0.8080   20.0755 C.3     1  UNL1        0.0204
     32 C           2.4234    1.2746   21.4172 C.3     1  UNL1        0.0724
     33 C           4.2663    0.1921   19.9401 C.3     1  UNL1        0.0277
     34 C           4.4022   -1.2442   19.5296 C.ar    1  UNL1       -0.0220
     35 C           3.4794   -2.2786   20.1029 C.ar    1  UNL1       -0.0020
     36 C           3.6152   -3.7149   19.6924 C.ar    1  UNL1        0.0293
     37 C           4.6737   -4.1169   18.7086 C.ar    1  UNL1        0.1401
     38 F           4.8095   -5.5533   18.2981 F       1  UNL1       -0.2042
     39 C           5.5964   -3.0826   18.1353 C.ar    1  UNL1        0.0293
     40 C           5.4607   -1.6462   18.5458 C.ar    1  UNL1       -0.0020
@<TRIPOS>BOND
     1    24    23    1
     2    24    25    1
     3    25    26    1
     4    26    27    1
     5    27    28    1
     6    28    29    1
     7    29    30    1
     8    30    31    1
     9    31    33    1
    10    33    34    1
    11    34    35   ar
    12    35    36   ar
    13    36    37   ar
    14    37    38    1
    15    37    39   ar
    16    39    40   ar
    17    31    32    1
    18    24     1    1
    19     1     2   am
    20     2     3    2
    21     2     4   am
    22     4     7    1
    23     7     8   ar
    24     8     9   ar
    25     9    13    1
    26    13    14   ar
    27    14    15   ar
    28    15    16   ar
    29    16    17   ar
    30     9    10   ar
    31    10    11   ar
    32    11    18    1
    33    18    19   ar
    34    19    20   ar
    35    20    21   ar
    36    21    22   ar
    37    11    12   ar
    38    32    27    1
    39    12     7   ar
    40    40    34   ar
    41    17    13   ar
    42    22    18   ar
    43     1     5    1
    44     4     6    1
@<TRIPOS>MOLECULE
*****
 40 44 0 0 0
SMALL
GASTEIGER

@<TRIPOS>ATOM
      1 N           3.5192    0.5567   27.8521 N.am    1  UNL1       -0.2903
      2 C           3.3161    0.7852   26.3836 C.2     1  UNL1        0.3044
      3 O           3.9705    1.9541   25.7089 O.2     1  UNL1       -0.2525
      4 N           2.4586   -0.1553   25.5898 N.am    1  UNL1       -0.2682
      5 H           3.0897   -0.2105   28.2950 H       1  UNL1        0.1509
      6 H           2.0290   -0.9225   26.0327 H       1  UNL1        0.1564
      7 C           2.2555    0.0731   24.1213 C.ar    1  UNL1        0.0546
      8 C           1.2638    1.0958   23.6515 C.ar    1  UNL1        0.0339
      9 C           1.0606    1.3242   22.1830 C.ar    1  UNL1        0.0856
     10 C           1.8492    0.5300   21.1843 C.ar    1  UNL1        0.0384
     11 C           2.8409   -0.4926   21.6541 C.ar    1  UNL1        0.0856
     12 C           3.0440   -0.7211   23.1226 C.ar    1  UNL1        0.0339
     13 N           0.0690    2.3468   21.7132 N.ar    1  UNL1       -0.2281
     14 C           0.0524    3.7982   22.0921 C.ar    1  UNL1        0.1020
     15 C          -1.1071    4.4461   21.3951 C.ar    1  UNL1        0.0431
     16 C          -1.8071    3.3952   20.5853 C.ar    1  UNL1        0.1221
     17 N          -1.0803    2.0978   20.7819 N.ar    1  UNL1       -0.1635
     18 N           3.6295   -1.2869   20.6554 N.ar    1  UNL1       -0.2281
     19 C           5.0953   -1.1407   20.3723 C.ar    1  UNL1        0.1020
     20 C           5.4624   -2.1302   19.3063 C.ar    1  UNL1        0.0431
     21 C           4.2235   -2.8879   18.9307 C.ar    1  UNL1        0.1221
     22 N           3.0907   -2.3667   19.7644 N.ar    1  UNL1       -0.1635
     23 C           5.7780    1.1069   29.0118 C.3     1  UNL1        0.0214
     24 C           4.3767    1.4972   28.6459 C.3     1  UNL1        0.0745
     25 C           3.8329    2.8282   29.0737 C.3     1  UNL1        0.0369
     26 C           2.4921    2.9111   29.7410 C.3     1  UNL1        0.0738
     27 N           1.2742    2.3783   29.0461 N.3     1  UNL1       -0.2726
     28 C           0.5211    1.2218   29.6337 C.3     1  UNL1        0.0721
     29 C          -0.6968    0.6891   28.9387 C.3     1  UNL1        0.0174
     30 C          -1.1615    1.3129   27.6561 C.3     1  UNL1        0.0031
     31 C          -0.4083    2.4693   27.0685 C.3     1  UNL1        0.0204
     32 C           0.8095    3.0020   27.7635 C.3     1  UNL1        0.0724
     33 C          -0.8730    3.0930   25.7859 C.3     1  UNL1        0.0277
     34 C          -2.3186    3.4506   25.6064 C.ar    1  UNL1       -0.0220
     35 C          -2.9905    3.2178   24.2856 C.ar    1  UNL1       -0.0020
     36 C          -4.4361    3.5754   24.1061 C.ar    1  UNL1        0.0293
     37 C          -5.2100    4.1658   25.2474 C.ar    1  UNL1        0.1401
     38 F          -6.6557    4.5234   25.0679 F       1  UNL1       -0.2042
     39 C          -4.5382    4.3986   26.5682 C.ar    1  UNL1        0.0293
     40 C          -3.0925    4.0410   26.7478 C.ar    1  UNL1       -0.0020
@<TRIPOS>BOND
     1    24    23    1
     2    24    25    1
     3    25    26    1
     4    26    27    1
     5    27    28    1
     6    28    29    1
     7    29    30    1
     8    30    31    1
     9    31    33    1
    10    33    34    1
    11    34    35   ar
    12    35    36   ar
    13    36    37   ar
    14    37    38    1
    15    37    39   ar
    16    39    40   ar
    17    31    32    1
    18    24     1    1
    19     1     2   am
    20     2     3    2
    21     2     4   am
    22     4     7    1
    23     7     8   ar
    24     8     9   ar
    25     9    13    1
    26    13    14   ar
    27    14    15   ar
    28    15    16   ar
    29    16    17   ar
    30     9    10   ar
    31    10    11   ar
    32    11    18    1
    33    18    19   ar
    34    19    20   ar
    35    20    21   ar
    36    21    22   ar
    37    11    12   ar
    38    32    27    1
    39    12     7   ar
    40    40    34   ar
    41    17    13   ar
    42    22    18   ar
    43     1     5    1
    44     4     6    1
@<TRIPOS>MOLECULE
*****
 40 44 0 0 0
SMALL
GASTEIGER

@<TRIPOS>ATOM
      1 N           0.5319    1.9480   29.2316 N.am    1  UNL1       -0.2903
      2 C           1.3352    1.3037   30.3222 C.2     1  UNL1        0.3044
      3 O           1.4124   -0.1915   30.4136 O.2     1  UNL1       -0.2525
      4 N           2.0615    2.1547   31.3214 N.am    1  UNL1       -0.2682
      5 H           0.4812    2.9293   29.1716 H       1  UNL1        0.1509
      6 H           2.0109    3.1360   31.2614 H       1  UNL1        0.1564
      7 C           2.8649    1.5104   32.4120 C.ar    1  UNL1        0.0546
      8 C           3.8734    0.4523   32.0756 C.ar    1  UNL1        0.0339
      9 C           4.6768   -0.1920   33.1662 C.ar    1  UNL1        0.0856
     10 C           4.4717    0.2219   34.5933 C.ar    1  UNL1        0.0384
     11 C           3.4631    1.2800   34.9298 C.ar    1  UNL1        0.0856
     12 C           2.6597    1.9243   33.8391 C.ar    1  UNL1        0.0339
     13 N           5.6853   -1.2501   32.8297 N.ar    1  UNL1       -0.2281
     14 C           5.3831   -2.6782   32.4841 C.ar    1  UNL1        0.1020
     15 C           6.6842   -3.3766   32.2205 C.ar    1  UNL1        0.0431
     16 C           7.7905   -2.3803   32.4032 C.ar    1  UNL1        0.1221
     17 N           7.1732   -1.0660   32.7797 N.ar    1  UNL1       -0.1635
     18 N           3.2580    1.6938   36.3569 N.ar    1  UNL1       -0.2281
     19 C           3.9160    1.0789   37.5565 C.ar    1  UNL1        0.1020
     20 C           3.4235    1.8003   38.7760 C.ar    1  UNL1        0.0431
     21 C           2.4611    2.8610   38.3301 C.ar    1  UNL1        0.1221
     22 N           2.3589    2.7952   36.8350 N.ar    1  UNL1       -0.1635
     23 C          -1.3415    0.2368   28.6728 C.3     1  UNL1        0.0214
     24 C          -0.1944    1.0970   28.2323 C.3     1  UNL1        0.0745
     25 C           0.2266    1.1063   26.7926 C.3     1  UNL1        0.0369
     26 C           1.6494    1.4120   26.4292 C.3     1  UNL1        0.0738
     27 N           2.3912    0.5149   25.4830 N.3     1  UNL1       -0.2726
     28 C           3.4763   -0.3841   25.9971 C.3     1  UNL1        0.0721
     29 C           4.2180   -1.2811   25.0510 C.3     1  UNL1        0.0174
     30 C           3.8746   -1.2791   23.5908 C.3     1  UNL1        0.0031
     31 C           2.7895   -0.3801   23.0768 C.3     1  UNL1        0.0204
     32 C           2.0478    0.5169   24.0229 C.3     1  UNL1        0.0724
     33 C           2.4461   -0.3782   21.6166 C.3     1  UNL1        0.0277
     34 C           3.3950   -0.9786   20.6222 C.ar    1  UNL1       -0.0220
     35 C           3.1585   -2.3659   20.1027 C.ar    1  UNL1       -0.0020
     36 C           4.1074   -2.9663   19.1083 C.ar    1  UNL1        0.0293
     37 C           5.2929   -2.1796   18.6332 C.ar    1  UNL1        0.1401
     38 F           6.2418   -2.7801   17.6387 F       1  UNL1       -0.2042
     39 C           5.5294   -0.7924   19.1526 C.ar    1  UNL1        0.0293
     40 C           4.5805   -0.1919   20.1471 C.ar    1  UNL1       -0.0020
@<TRIPOS>BOND
     1    24    23    1
     2    24    25    1
     3    25    26    1
     4    26    27    1
     5    27    28    1
     6    28    29    1
     7    29    30    1
     8    30    31    1
     9    31    33    1
    10    33    34    1
    11    34    35   ar
    12    35    36   ar
    13    36    37   ar
    14    37    38    1
    15    37    39   ar
    16    39    40   ar
    17    31    32    1
    18    24     1    1
    19     1     2   am
    20     2     3    2
    21     2     4   am
    22     4     7    1
    23     7     8   ar
    24     8     9   ar
    25     9    13    1
    26    13    14   ar
    27    14    15   ar
    28    15    16   ar
    29    16    17   ar
    30     9    10   ar
    31    10    11   ar
    32    11    18    1
    33    18    19   ar
    34    19    20   ar
    35    20    21   ar
    36    21    22   ar
    37    11    12   ar
    38    32    27    1
    39    12     7   ar
    40    40    34   ar
    41    17    13   ar
    42    22    18   ar
    43     1     5    1
    44     4     6    1
@<TRIPOS>MOLECULE
*****
 40 44 0 0 0
SMALL
GASTEIGER

@<TRIPOS>ATOM
      1 N           5.6737   -3.2485   20.3629 N.am    1  UNL1       -0.2903
      2 C           5.5755   -3.5565   21.8276 C.2     1  UNL1        0.3044
      3 O           4.3792   -4.2869   22.3618 O.2     1  UNL1       -0.2525
      4 N           6.6736   -3.1342   22.7581 N.am    1  UNL1       -0.2682
      5 H           6.4589   -2.7691   20.0123 H       1  UNL1        0.1509
      6 H           7.4588   -2.6549   22.4075 H       1  UNL1        0.1564
      7 C           6.5755   -3.4423   24.2228 C.ar    1  UNL1        0.0546
      8 C           5.8920   -2.4791   25.1477 C.ar    1  UNL1        0.0339
      9 C           5.7938   -2.7872   26.6124 C.ar    1  UNL1        0.0856
     10 C           6.3791   -4.0584   27.1523 C.ar    1  UNL1        0.0384
     11 C           7.0625   -5.0215   26.2276 C.ar    1  UNL1        0.0856
     12 C           7.1607   -4.7135   24.7628 C.ar    1  UNL1        0.0339
     13 N           5.1104   -1.8240   27.5371 N.ar    1  UNL1       -0.2281
     14 C           5.7868   -0.9113   28.5167 C.ar    1  UNL1        0.1020
     15 C           4.7250   -0.1277   29.2297 C.ar    1  UNL1        0.0431
     16 C           3.3922   -0.5560   28.6908 C.ar    1  UNL1        0.1221
     17 N           3.6304   -1.6044   27.6448 N.ar    1  UNL1       -0.1635
     18 N           7.6478   -6.2927   26.7675 N.ar    1  UNL1       -0.2281
     19 C           7.7237   -7.6051   26.0449 C.ar    1  UNL1        0.1020
     20 C           8.3828   -8.5981   26.9557 C.ar    1  UNL1        0.0431
     21 C           8.7141   -7.8996   28.2411 C.ar    1  UNL1        0.1221
     22 N           8.2598   -6.4748   28.1248 N.ar    1  UNL1       -0.1635
     23 C           4.6230   -5.0206   18.7801 C.3     1  UNL1        0.0214
     24 C           4.5756   -3.6708   19.4324 C.3     1  UNL1        0.0745
     25 C           3.4301   -2.7431   19.1543 C.3     1  UNL1        0.0369
     26 C           3.6549   -1.2603   19.1291 C.3     1  UNL1        0.0738
     27 N           3.9990   -0.5323   20.3947 N.3     1  UNL1       -0.2726
     28 C           5.1104    0.4750   20.4020 C.3     1  UNL1        0.0721
     29 C           5.4545    1.2029   21.6675 C.3     1  UNL1        0.0174
     30 C           4.6871    0.9237   22.9258 C.3     1  UNL1        0.0031
     31 C           3.5756   -0.0835   22.9184 C.3     1  UNL1        0.0204
     32 C           3.2315   -0.8115   21.6529 C.3     1  UNL1        0.0724
     33 C           2.8082   -0.3628   24.1766 C.3     1  UNL1        0.0277
     34 C           2.0399    0.7377   24.8464 C.ar    1  UNL1       -0.0220
     35 C           2.6917    1.5650   25.9145 C.ar    1  UNL1       -0.0020
     36 C           1.9235    2.6655   26.5843 C.ar    1  UNL1        0.0293
     37 C           0.5033    2.9388   26.1860 C.ar    1  UNL1        0.1401
     38 F          -0.2649    4.0393   26.8558 F       1  UNL1       -0.2042
     39 C          -0.1485    2.1115   25.1180 C.ar    1  UNL1        0.0293
     40 C           0.6198    1.0110   24.4481 C.ar    1  UNL1       -0.0020
@<TRIPOS>BOND
     1    24    23    1
     2    24    25    1
     3    25    26    1
     4    26    27    1
     5    27    28    1
     6    28    29    1
     7    29    30    1
     8    30    31    1
     9    31    33    1
    10    33    34    1
    11    34    35   ar
    12    35    36   ar
    13    36    37   ar
    14    37    38    1
    15    37    39   ar
    16    39    40   ar
    17    31    32    1
    18    24     1    1
    19     1     2   am
    20     2     3    2
    21     2     4   am
    22     4     7    1
    23     7     8   ar
    24     8     9   ar
    25     9    13    1
    26    13    14   ar
    27    14    15   ar
    28    15    16   ar
    29    16    17   ar
    30     9    10   ar
    31    10    11   ar
    32    11    18    1
    33    18    19   ar
    34    19    20   ar
    35    20    21   ar
    36    21    22   ar
    37    11    12   ar
    38    32    27    1
    39    12     7   ar
    40    40    34   ar
    41    17    13   ar
    42    22    18   ar
    43     1     5    1
    44     4     6    1
@<TRIPOS>MOLECULE
*****
 40 44 0 0 0
SMALL
GASTEIGER

@<TRIPOS>ATOM
      1 N           0.8631    2.3125   26.7350 N.am    1  UNL1       -0.2903
      2 C           0.5255    2.0903   25.2905 C.2     1  UNL1        0.3044
      3 O           0.1294    0.7242   24.8145 O.2     1  UNL1       -0.2525
      4 N           0.5839    3.2343   24.3221 N.am    1  UNL1       -0.2682
      5 H           1.1231    3.2092   27.0475 H       1  UNL1        0.1509
      6 H           0.8439    4.1310   24.6346 H       1  UNL1        0.1564
      7 C           0.2463    3.0122   22.8776 C.ar    1  UNL1        0.0546
      8 C          -1.1434    3.2828   22.3820 C.ar    1  UNL1        0.0339
      9 C          -1.4810    3.0606   20.9375 C.ar    1  UNL1        0.0856
     10 C          -0.4290    2.5678   19.9886 C.ar    1  UNL1        0.0384
     11 C           0.9606    2.2972   20.4841 C.ar    1  UNL1        0.0856
     12 C           1.2983    2.5194   21.9287 C.ar    1  UNL1        0.0339
     13 N          -2.8706    3.3312   20.4419 N.ar    1  UNL1       -0.2281
     14 C          -4.1333    3.1977   21.2407 C.ar    1  UNL1        0.1020
     15 C          -5.2847    3.5668   20.3530 C.ar    1  UNL1        0.0431
     16 C          -4.7337    3.9285   19.0055 C.ar    1  UNL1        0.1221
     17 N          -3.2418    3.7829   19.0605 N.ar    1  UNL1       -0.1635
     18 N           2.0126    1.8044   19.5352 N.ar    1  UNL1       -0.2281
     19 C           1.9107    0.5916   18.6584 C.ar    1  UNL1        0.1020
     20 C           3.1864    0.4755   17.8778 C.ar    1  UNL1        0.0431
     21 C           4.0766    1.6166   18.2721 C.ar    1  UNL1        0.1221
     22 N           3.3512    2.4378   19.2965 N.ar    1  UNL1       -0.1635
     23 C          -0.4821    0.8419   28.4017 C.3     1  UNL1        0.0214
     24 C           0.8047    1.1685   27.7035 C.3     1  UNL1        0.0745
     25 C           2.0331    0.3511   27.9736 C.3     1  UNL1        0.0369
     26 C           3.3014    0.6330   27.2241 C.3     1  UNL1        0.0738
     27 N           3.7770   -0.3212   26.1689 N.3     1  UNL1       -0.2726
     28 C           4.8148   -1.3516   26.5023 C.3     1  UNL1        0.0721
     29 C           5.2904   -2.3057   25.4471 C.3     1  UNL1        0.0174
     30 C           4.7280   -2.2296   24.0586 C.3     1  UNL1        0.0031
     31 C           3.6901   -1.1993   23.7253 C.3     1  UNL1        0.0204
     32 C           3.2146   -0.2451   24.7804 C.3     1  UNL1        0.0724
     33 C           3.1277   -1.1232   22.3368 C.3     1  UNL1        0.0277
     34 C           3.9864   -1.4783   21.1593 C.ar    1  UNL1       -0.0220
     35 C           3.5606   -2.5698   20.2226 C.ar    1  UNL1       -0.0020
     36 C           4.4193   -2.9249   19.0451 C.ar    1  UNL1        0.0293
     37 C           5.7037   -2.1886   18.8043 C.ar    1  UNL1        0.1401
     38 F           6.5624   -2.5438   17.6267 F       1  UNL1       -0.2042
     39 C           6.1295   -1.0972   19.7409 C.ar    1  UNL1        0.0293
     40 C           5.2708   -0.7420   20.9185 C.ar    1  UNL1       -0.0020
@<TRIPOS>BOND
     1    24    23    1
     2    24    25    1
     3    25    26    1
     4    26    27    1
     5    27    28    1
     6    28    29    1
     7    29    30    1
     8    30    31    1
     9    31    33    1
    10    33    34    1
    11    34    35   ar
    12    35    36   ar
    13    36    37   ar
    14    37    38    1
    15    37    39   ar
    16    39    40   ar
    17    31    32    1
    18    24     1    1
    19     1     2   am
    20     2     3    2
    21     2     4   am
    22     4     7    1
    23     7     8   ar
    24     8     9   ar
    25     9    13    1
    26    13    14   ar
    27    14    15   ar
    28    15    16   ar
    29    16    17   ar
    30     9    10   ar
    31    10    11   ar
    32    11    18    1
    33    18    19   ar
    34    19    20   ar
    35    20    21   ar
    36    21    22   ar
    37    11    12   ar
    38    32    27    1
    39    12     7   ar
    40    40    34   ar
    41    17    13   ar
    42    22    18   ar
    43     1     5    1
    44     4     6    1
