@<TRIPOS>MOLECULE
*****
 29 31 0 0 0
SMALL
GASTEIGER

@<TRIPOS>ATOM
      1 C          -9.4242  -19.8809   22.8727 C.3     1  UNL1        0.0239
      2 C          -8.2373  -19.6101   21.9963 C.3     1  UNL1        0.0240
      3 C          -9.6061  -19.7192   21.3926 C.3     1  UNL1        0.0057
      4 C          -9.2723  -19.4923   19.9478 C.3     1  UNL1        0.0004
      5 C         -11.0908  -19.9072   21.2905 C.3     1  UNL1        0.0004
      6 C          -6.7618  -19.3907   21.8389 C.ar    1  UNL1       -0.0224
      7 C          -5.9808  -20.2171   20.8606 C.ar    1  UNL1       -0.0029
      8 C          -4.5053  -19.9977   20.7033 C.ar    1  UNL1        0.0196
      9 C          -3.8108  -18.9519   21.5242 C.ar    1  UNL1        0.1217
     10 C          -4.5918  -18.1255   22.5025 C.ar    1  UNL1        0.0196
     11 C          -6.0673  -18.3449   22.6598 C.ar    1  UNL1       -0.0029
     12 S          -2.3353  -18.7325   21.3668 S.O2    1  UNL1        0.0572
     13 N          -0.8598  -18.5131   21.2094 N.3     1  UNL1       -0.2035
     14 O          -2.0905  -20.1885   21.6316 O.2     1  UNL1       -0.1532
     15 O          -2.5801  -17.2765   21.1019 O.2     1  UNL1       -0.1532
     16 H          -0.3685  -19.3968   21.3435 H       1  UNL1        0.1442
     17 H          -0.5405  -17.8377   21.9039 H       1  UNL1        0.1442
     18 C         -10.0044  -20.1305   24.2332 C.3     1  UNL1        0.0874
     19 N         -10.5156  -18.9829   25.0527 N.pl3   1  UNL1       -0.3302
     20 H         -11.3813  -19.0559   25.5159 H       1  UNL1        0.1469
     21 C          -9.8109  -16.6684   24.1057 C.ar    1  UNL1        0.1517
     22 C          -9.0032  -15.4096   24.2194 C.ar    1  UNL1        0.0390
     23 C          -8.0925  -15.2064   25.3939 C.ar    1  UNL1        0.0146
     24 C          -7.9895  -16.2620   26.4546 C.ar    1  UNL1        0.0591
     25 CL         -7.0788  -16.0587   27.6290 Cl      1  UNL1       -0.0822
     26 C          -8.7972  -17.5208   26.3408 C.ar    1  UNL1        0.0288
     27 C          -9.7079  -17.7240   25.1664 C.ar    1  UNL1        0.0799
     28 C         -10.4329  -16.1831   21.6303 C.3     1  UNL1        0.2525
     29 O         -10.7216  -16.8717   22.9312 O.3     1  UNL1       -0.4702
@<TRIPOS>BOND
     1    28    29    1
     2    29    21    1
     3    21    22   ar
     4    22    23   ar
     5    23    24   ar
     6    24    25    1
     7    24    26   ar
     8    26    27   ar
     9    27    19    1
    10    19    18    1
    11    18     1    1
    12     1     2    1
    13     2     6    1
    14     6     7   ar
    15     7     8   ar
    16     8     9   ar
    17     9    12    1
    18    12    13    1
    19    12    14    2
    20    12    15    2
    21     9    10   ar
    22    10    11   ar
    23     2     3    1
    24     3     4    1
    25     3     5    1
    26    27    21   ar
    27     3     1    1
    28    11     6   ar
    29    19    20    1
    30    13    16    1
    31    13    17    1
@<TRIPOS>MOLECULE
*****
 29 31 0 0 0
SMALL
GASTEIGER

@<TRIPOS>ATOM
      1 C          -6.6912  -15.4949   24.4040 C.3     1  UNL1        0.0239
      2 C          -5.3382  -16.1122   24.2079 C.3     1  UNL1        0.0240
      3 C          -5.8309  -15.8092   25.5918 C.3     1  UNL1        0.0057
      4 C          -4.6580  -16.2863   26.3961 C.3     1  UNL1        0.0004
      5 C          -6.7309  -15.3406   26.6966 C.3     1  UNL1        0.0004
      6 C          -4.2726  -16.6435   23.2956 C.ar    1  UNL1       -0.0224
      7 C          -3.3139  -15.6995   22.6324 C.ar    1  UNL1       -0.0029
      8 C          -2.2483  -16.2309   21.7202 C.ar    1  UNL1        0.0196
      9 C          -2.1414  -17.7062   21.4712 C.ar    1  UNL1        0.1217
     10 C          -3.1001  -18.6502   22.1344 C.ar    1  UNL1        0.0196
     11 C          -4.1656  -18.1188   23.0466 C.ar    1  UNL1       -0.0029
     12 S          -1.0758  -18.2375   20.5589 S.O2    1  UNL1        0.0572
     13 N          -0.0102  -18.7688   19.6467 N.3     1  UNL1       -0.2035
     14 O          -1.4884  -19.6402   20.8938 O.2     1  UNL1       -0.1532
     15 O          -0.6631  -16.8348   20.2240 O.2     1  UNL1       -0.1532
     16 H          -0.0332  -19.7885   19.6546 H       1  UNL1        0.1442
     17 H           0.9031  -18.4468   19.9669 H       1  UNL1        0.1442
     18 C          -7.9689  -14.9570   23.8313 C.3     1  UNL1        0.0874
     19 N          -8.4582  -15.4452   22.5000 N.pl3   1  UNL1       -0.3302
     20 H          -8.2534  -14.9352   21.6832 H       1  UNL1        0.1469
     21 C          -8.6794  -17.9212   21.7447 C.ar    1  UNL1        0.1517
     22 C          -9.4808  -19.1862   21.6581 C.ar    1  UNL1        0.0390
     23 C         -10.8622  -19.2403   22.2401 C.ar    1  UNL1        0.0146
     24 C         -11.4423  -18.0294   22.9087 C.ar    1  UNL1        0.0591
     25 CL        -12.8238  -18.0835   23.4907 Cl      1  UNL1       -0.0822
     26 C         -10.6410  -16.7644   22.9953 C.ar    1  UNL1        0.0288
     27 C          -9.2596  -16.7103   22.4134 C.ar    1  UNL1        0.0799
     28 C          -6.7564  -19.0434   20.4059 C.3     1  UNL1        0.2525
     29 O          -7.2980  -17.8671   21.1628 O.3     1  UNL1       -0.4702
@<TRIPOS>BOND
     1    28    29    1
     2    29    21    1
     3    21    22   ar
     4    22    23   ar
     5    23    24   ar
     6    24    25    1
     7    24    26   ar
     8    26    27   ar
     9    27    19    1
    10    19    18    1
    11    18     1    1
    12     1     2    1
    13     2     6    1
    14     6     7   ar
    15     7     8   ar
    16     8     9   ar
    17     9    12    1
    18    12    13    1
    19    12    14    2
    20    12    15    2
    21     9    10   ar
    22    10    11   ar
    23     2     3    1
    24     3     4    1
    25     3     5    1
    26    27    21   ar
    27     3     1    1
    28    11     6   ar
    29    19    20    1
    30    13    16    1
    31    13    17    1
@<TRIPOS>MOLECULE
*****
 29 31 0 0 0
SMALL
GASTEIGER

@<TRIPOS>ATOM
      1 C          -8.4490  -19.7752   22.1761 C.3     1  UNL1        0.0239
      2 C          -7.3124  -19.5084   21.2342 C.3     1  UNL1        0.0240
      3 C          -8.7157  -19.5939   20.7112 C.3     1  UNL1        0.0057
      4 C          -8.4648  -19.3540   19.2519 C.3     1  UNL1        0.0004
      5 C         -10.2061  -19.7628   20.6950 C.3     1  UNL1        0.0004
      6 C          -5.8461  -19.3050   20.9923 C.ar    1  UNL1       -0.0224
      7 C          -5.3256  -19.1940   19.5899 C.ar    1  UNL1       -0.0029
      8 C          -3.8593  -18.9906   19.3481 C.ar    1  UNL1        0.0196
      9 C          -2.9134  -18.8982   20.5087 C.ar    1  UNL1        0.1217
     10 C          -3.4339  -19.0092   21.9110 C.ar    1  UNL1        0.0196
     11 C          -4.9002  -19.2126   22.1529 C.ar    1  UNL1       -0.0029
     12 S          -1.4471  -18.6948   20.2668 S.O2    1  UNL1        0.0572
     13 N           0.0192  -18.4914   20.0249 N.3     1  UNL1       -0.2035
     14 O          -1.1717  -18.9534   21.7184 O.2     1  UNL1       -0.1532
     15 O          -1.7224  -18.4362   18.8152 O.2     1  UNL1       -0.1532
     16 H           0.5281  -18.6111   20.9007 H       1  UNL1        0.1442
     17 H           0.1772  -17.5498   19.6658 H       1  UNL1        0.1442
     18 C          -8.9511  -20.0338   23.5656 C.3     1  UNL1        0.0874
     19 N          -9.5077  -18.9066   24.3839 N.pl3   1  UNL1       -0.3302
     20 H          -9.0844  -18.6631   25.2388 H       1  UNL1        0.1469
     21 C         -10.5341  -16.9414   23.0295 C.ar    1  UNL1        0.1517
     22 C         -11.7358  -16.1854   22.5454 C.ar    1  UNL1        0.0390
     23 C         -13.1126  -16.6384   22.9316 C.ar    1  UNL1        0.0146
     24 C         -13.2878  -17.8475   23.8018 C.ar    1  UNL1        0.0591
     25 CL        -14.6647  -18.3005   24.1880 Cl      1  UNL1       -0.0822
     26 C         -12.0862  -18.6035   24.2859 C.ar    1  UNL1        0.0288
     27 C         -10.7094  -18.1505   23.8998 C.ar    1  UNL1        0.0799
     28 C          -8.3010  -15.7607   23.6369 C.3     1  UNL1        0.2525
     29 O          -9.1573  -16.4884   22.6434 O.3     1  UNL1       -0.4702
@<TRIPOS>BOND
     1    28    29    1
     2    29    21    1
     3    21    22   ar
     4    22    23   ar
     5    23    24   ar
     6    24    25    1
     7    24    26   ar
     8    26    27   ar
     9    27    19    1
    10    19    18    1
    11    18     1    1
    12     1     2    1
    13     2     6    1
    14     6     7   ar
    15     7     8   ar
    16     8     9   ar
    17     9    12    1
    18    12    13    1
    19    12    14    2
    20    12    15    2
    21     9    10   ar
    22    10    11   ar
    23     2     3    1
    24     3     4    1
    25     3     5    1
    26    27    21   ar
    27     3     1    1
    28    11     6   ar
    29    19    20    1
    30    13    16    1
    31    13    17    1
@<TRIPOS>MOLECULE
*****
 29 31 0 0 0
SMALL
GASTEIGER

@<TRIPOS>ATOM
      1 C          -7.1556  -15.9933   24.0806 C.3     1  UNL1        0.0239
      2 C          -5.6936  -16.3037   23.9541 C.3     1  UNL1        0.0240
      3 C          -6.2422  -15.7932   25.2534 C.3     1  UNL1        0.0057
      4 C          -4.9868  -15.7672   26.0740 C.3     1  UNL1        0.0004
      5 C          -7.2268  -15.2915   26.2678 C.3     1  UNL1        0.0004
      6 C          -4.5326  -16.7778   23.1309 C.ar    1  UNL1       -0.0224
      7 C          -4.3999  -18.2323   22.7890 C.ar    1  UNL1       -0.0029
      8 C          -3.2390  -18.7063   21.9659 C.ar    1  UNL1        0.0196
      9 C          -2.2109  -17.7258   21.4846 C.ar    1  UNL1        0.1217
     10 C          -2.3436  -16.2714   21.8265 C.ar    1  UNL1        0.0196
     11 C          -3.5045  -15.7974   22.6496 C.ar    1  UNL1       -0.0029
     12 S          -1.0499  -18.1999   20.6614 S.O2    1  UNL1        0.0572
     13 N           0.1109  -18.6739   19.8382 N.3     1  UNL1       -0.2035
     14 O          -1.4467  -19.6229   20.9212 O.2     1  UNL1       -0.1532
     15 O          -0.6531  -16.7769   20.4016 O.2     1  UNL1       -0.1532
     16 H           0.1197  -19.6936   19.8182 H       1  UNL1        0.1442
     17 H           0.9805  -18.3344   20.2495 H       1  UNL1        0.1442
     18 C          -8.5271  -15.9296   23.4765 C.3     1  UNL1        0.0874
     19 N          -9.3153  -17.1891   23.2708 N.pl3   1  UNL1       -0.3302
     20 H          -9.9537  -17.4880   23.9580 H       1  UNL1        0.1469
     21 C         -10.2804  -18.1850   21.0738 C.ar    1  UNL1        0.1517
     22 C         -10.0958  -18.9890   19.8210 C.ar    1  UNL1        0.0390
     23 C          -8.7617  -19.6012   19.5124 C.ar    1  UNL1        0.0146
     24 C          -7.6120  -19.4094   20.4566 C.ar    1  UNL1        0.0591
     25 CL         -6.2779  -20.0216   20.1480 Cl      1  UNL1       -0.0822
     26 C          -7.7966  -18.6053   21.7094 C.ar    1  UNL1        0.0288
     27 C          -9.1308  -17.9931   22.0179 C.ar    1  UNL1        0.0799
     28 C         -11.9630  -16.2197   20.8370 C.3     1  UNL1        0.2525
     29 O         -11.6146  -17.5728   21.3824 O.3     1  UNL1       -0.4702
@<TRIPOS>BOND
     1    28    29    1
     2    29    21    1
     3    21    22   ar
     4    22    23   ar
     5    23    24   ar
     6    24    25    1
     7    24    26   ar
     8    26    27   ar
     9    27    19    1
    10    19    18    1
    11    18     1    1
    12     1     2    1
    13     2     6    1
    14     6     7   ar
    15     7     8   ar
    16     8     9   ar
    17     9    12    1
    18    12    13    1
    19    12    14    2
    20    12    15    2
    21     9    10   ar
    22    10    11   ar
    23     2     3    1
    24     3     4    1
    25     3     5    1
    26    27    21   ar
    27     3     1    1
    28    11     6   ar
    29    19    20    1
    30    13    16    1
    31    13    17    1
@<TRIPOS>MOLECULE
*****
 29 31 0 0 0
SMALL
GASTEIGER

@<TRIPOS>ATOM
      1 C          -9.3632  -18.5252   22.6056 C.3     1  UNL1        0.0239
      2 C          -8.0192  -19.1774   22.4701 C.3     1  UNL1        0.0240
      3 C          -9.1221  -19.8781   23.2067 C.3     1  UNL1        0.0057
      4 C          -8.4123  -21.1400   23.5993 C.3     1  UNL1        0.0004
      5 C         -10.4714  -20.1407   23.8070 C.3     1  UNL1        0.0004
      6 C          -6.6065  -19.1494   21.9665 C.ar    1  UNL1       -0.0224
      7 C          -5.5395  -18.4600   22.7642 C.ar    1  UNL1       -0.0029
      8 C          -4.1269  -18.4320   22.2606 C.ar    1  UNL1        0.0196
      9 C          -3.7812  -19.0934   20.9594 C.ar    1  UNL1        0.1217
     10 C          -4.8482  -19.7827   20.1617 C.ar    1  UNL1        0.0196
     11 C          -6.2608  -19.8107   20.6653 C.ar    1  UNL1       -0.0029
     12 S          -2.3685  -19.0653   20.4558 S.O2    1  UNL1        0.0572
     13 N          -0.9558  -19.0373   19.9523 N.3     1  UNL1       -0.2035
     14 O          -1.9963  -20.1341   21.4403 O.2     1  UNL1       -0.1532
     15 O          -2.7406  -17.9966   19.4714 O.2     1  UNL1       -0.1532
     16 H          -0.3970  -19.7162   20.4693 H       1  UNL1        0.1442
     17 H          -0.5659  -18.1042   20.0853 H       1  UNL1        0.1442
     18 C         -10.2783  -17.3675   22.3368 C.3     1  UNL1        0.0874
     19 N         -10.1510  -16.1082   23.1418 N.pl3   1  UNL1       -0.3302
     20 H         -10.9123  -15.4876   23.2086 H       1  UNL1        0.1469
     21 C          -7.6484  -15.4160   23.0514 C.ar    1  UNL1        0.1517
     22 C          -6.3612  -15.1024   23.7546 C.ar    1  UNL1        0.0390
     23 C          -6.2892  -15.1672   25.2515 C.ar    1  UNL1        0.0146
     24 C          -7.5044  -15.5456   26.0452 C.ar    1  UNL1        0.0591
     25 CL         -7.4324  -15.6104   27.5420 Cl      1  UNL1       -0.0822
     26 C          -8.7917  -15.8593   25.3419 C.ar    1  UNL1        0.0288
     27 C          -8.8637  -15.7945   23.8451 C.ar    1  UNL1        0.0799
     28 C          -8.4926  -14.2517   20.8877 C.3     1  UNL1        0.2525
     29 O          -7.7204  -15.3513   21.5545 O.3     1  UNL1       -0.4702
@<TRIPOS>BOND
     1    28    29    1
     2    29    21    1
     3    21    22   ar
     4    22    23   ar
     5    23    24   ar
     6    24    25    1
     7    24    26   ar
     8    26    27   ar
     9    27    19    1
    10    19    18    1
    11    18     1    1
    12     1     2    1
    13     2     6    1
    14     6     7   ar
    15     7     8   ar
    16     8     9   ar
    17     9    12    1
    18    12    13    1
    19    12    14    2
    20    12    15    2
    21     9    10   ar
    22    10    11   ar
    23     2     3    1
    24     3     4    1
    25     3     5    1
    26    27    21   ar
    27     3     1    1
    28    11     6   ar
    29    19    20    1
    30    13    16    1
    31    13    17    1
@<TRIPOS>MOLECULE
*****
 29 31 0 0 0
SMALL
GASTEIGER

@<TRIPOS>ATOM
      1 C          -8.6131  -18.8618   23.1422 C.3     1  UNL1        0.0239
      2 C          -7.2781  -18.2691   22.8010 C.3     1  UNL1        0.0240
      3 C          -8.3095  -17.4384   23.5053 C.3     1  UNL1        0.0057
      4 C          -7.5568  -16.1479   23.6402 C.3     1  UNL1        0.0004
      5 C          -9.6023  -17.0559   24.1628 C.3     1  UNL1        0.0004
      6 C          -5.9117  -18.4065   22.1975 C.ar    1  UNL1       -0.0224
      7 C          -5.7560  -18.9602   20.8121 C.ar    1  UNL1       -0.0029
      8 C          -4.3897  -19.0976   20.2086 C.ar    1  UNL1        0.0196
      9 C          -3.1791  -18.6813   20.9904 C.ar    1  UNL1        0.1217
     10 C          -3.3348  -18.1277   22.3757 C.ar    1  UNL1        0.0196
     11 C          -4.7011  -17.9903   22.9793 C.ar    1  UNL1       -0.0029
     12 S          -1.8127  -18.8188   20.3868 S.O2    1  UNL1        0.0572
     13 N          -0.4464  -18.9561   19.7832 N.3     1  UNL1       -0.2035
     14 O          -1.6134  -20.1058   21.1310 O.2     1  UNL1       -0.1532
     15 O          -2.0121  -17.5317   19.6427 O.2     1  UNL1       -0.1532
     16 H          -0.0089  -19.8124   20.1235 H       1  UNL1        0.1442
     17 H           0.1247  -18.1538   20.0486 H       1  UNL1        0.1442
     18 C          -9.5592  -20.0257   23.1294 C.3     1  UNL1        0.0874
     19 N         -10.8030  -19.9721   22.2928 N.pl3   1  UNL1       -0.3302
     20 H         -11.1995  -20.8040   21.9464 H       1  UNL1        0.1469
     21 C         -12.4005  -18.0348   22.9601 C.ar    1  UNL1        0.1517
     22 C         -13.0402  -16.7138   22.6512 C.ar    1  UNL1        0.0390
     23 C         -12.7221  -16.0087   21.3660 C.ar    1  UNL1        0.0146
     24 C         -11.7643  -16.6248   20.3897 C.ar    1  UNL1        0.0591
     25 CL        -11.4462  -15.9197   19.1045 Cl      1  UNL1       -0.0822
     26 C         -11.1247  -17.9459   20.6987 C.ar    1  UNL1        0.0288
     27 C         -11.4427  -18.6509   21.9839 C.ar    1  UNL1        0.0799
     28 C         -13.9975  -18.4392   24.9691 C.3     1  UNL1        0.2525
     29 O         -12.7186  -18.7399   24.2453 O.3     1  UNL1       -0.4702
@<TRIPOS>BOND
     1    28    29    1
     2    29    21    1
     3    21    22   ar
     4    22    23   ar
     5    23    24   ar
     6    24    25    1
     7    24    26   ar
     8    26    27   ar
     9    27    19    1
    10    19    18    1
    11    18     1    1
    12     1     2    1
    13     2     6    1
    14     6     7   ar
    15     7     8   ar
    16     8     9   ar
    17     9    12    1
    18    12    13    1
    19    12    14    2
    20    12    15    2
    21     9    10   ar
    22    10    11   ar
    23     2     3    1
    24     3     4    1
    25     3     5    1
    26    27    21   ar
    27     3     1    1
    28    11     6   ar
    29    19    20    1
    30    13    16    1
    31    13    17    1
@<TRIPOS>MOLECULE
*****
 29 31 0 0 0
SMALL
GASTEIGER

@<TRIPOS>ATOM
      1 C          -8.4416  -19.6389   19.7883 C.3     1  UNL1        0.0239
      2 C          -7.4736  -19.1512   20.8253 C.3     1  UNL1        0.0240
      3 C          -7.1359  -20.3495   19.9886 C.3     1  UNL1        0.0057
      4 C          -5.7845  -20.6844   20.5468 C.3     1  UNL1        0.0004
      5 C          -7.2675  -21.4316   18.9581 C.3     1  UNL1        0.0004
      6 C          -7.1097  -18.1778   21.9070 C.ar    1  UNL1       -0.0224
      7 C          -5.7111  -18.1463   22.4482 C.ar    1  UNL1       -0.0029
      8 C          -5.3473  -17.1729   23.5299 C.ar    1  UNL1        0.0196
      9 C          -6.3820  -16.2310   24.0703 C.ar    1  UNL1        0.1217
     10 C          -7.7806  -16.2625   23.5292 C.ar    1  UNL1        0.0196
     11 C          -8.1444  -17.2359   22.4475 C.ar    1  UNL1       -0.0029
     12 S          -6.0181  -15.2576   25.1521 S.O2    1  UNL1        0.0572
     13 N          -5.6542  -14.2842   26.2337 N.3     1  UNL1       -0.2035
     14 O          -7.0945  -15.8278   26.0274 O.2     1  UNL1       -0.1532
     15 O          -4.9417  -14.6874   24.2768 O.2     1  UNL1       -0.1532
     16 H          -6.2618  -14.4292   27.0401 H       1  UNL1        0.1442
     17 H          -5.7703  -13.3319   25.8873 H       1  UNL1        0.1442
     18 C          -9.7543  -19.5102   19.0741 C.3     1  UNL1        0.0874
     19 N         -11.0388  -19.6928   19.8269 N.pl3   1  UNL1       -0.3302
     20 H         -11.8045  -20.1349   19.3939 H       1  UNL1        0.1469
     21 C         -11.8405  -17.8978   21.5255 C.ar    1  UNL1        0.1517
     22 C         -11.9584  -17.4069   22.9379 C.ar    1  UNL1        0.0390
     23 C         -11.3923  -18.2199   24.0642 C.ar    1  UNL1        0.0146
     24 C         -10.7085  -19.5239   23.7781 C.ar    1  UNL1        0.0591
     25 CL        -10.1425  -20.3369   24.9044 Cl      1  UNL1       -0.0822
     26 C         -10.5907  -20.0149   22.3657 C.ar    1  UNL1        0.0288
     27 C         -11.1567  -19.2018   21.2394 C.ar    1  UNL1        0.0799
     28 C         -11.5712  -16.0236   19.7466 C.3     1  UNL1        0.2525
     29 O         -12.4065  -17.0848   20.3992 O.3     1  UNL1       -0.4702
@<TRIPOS>BOND
     1    28    29    1
     2    29    21    1
     3    21    22   ar
     4    22    23   ar
     5    23    24   ar
     6    24    25    1
     7    24    26   ar
     8    26    27   ar
     9    27    19    1
    10    19    18    1
    11    18     1    1
    12     1     2    1
    13     2     6    1
    14     6     7   ar
    15     7     8   ar
    16     8     9   ar
    17     9    12    1
    18    12    13    1
    19    12    14    2
    20    12    15    2
    21     9    10   ar
    22    10    11   ar
    23     2     3    1
    24     3     4    1
    25     3     5    1
    26    27    21   ar
    27     3     1    1
    28    11     6   ar
    29    19    20    1
    30    13    16    1
    31    13    17    1
@<TRIPOS>MOLECULE
*****
 29 31 0 0 0
SMALL
GASTEIGER

@<TRIPOS>ATOM
      1 C          -9.4721  -18.8088   19.9646 C.3     1  UNL1        0.0239
      2 C          -8.0466  -19.2753   19.9475 C.3     1  UNL1        0.0240
      3 C          -9.0672  -19.9507   19.0803 C.3     1  UNL1        0.0057
      4 C          -8.2036  -20.9825   18.4172 C.3     1  UNL1        0.0004
      5 C         -10.3877  -20.2678   18.4433 C.3     1  UNL1        0.0004
      6 C          -6.6343  -19.1546   20.4384 C.ar    1  UNL1       -0.0224
      7 C          -5.5052  -19.0508   19.4563 C.ar    1  UNL1       -0.0029
      8 C          -4.0930  -18.9302   19.9472 C.ar    1  UNL1        0.0196
      9 C          -3.8098  -18.9134   21.4201 C.ar    1  UNL1        0.1217
     10 C          -4.9388  -19.0172   22.4022 C.ar    1  UNL1        0.0196
     11 C          -6.3511  -19.1378   21.9113 C.ar    1  UNL1       -0.0029
     12 S          -2.3975  -18.7928   21.9110 S.O2    1  UNL1        0.0572
     13 N          -0.9852  -18.6723   22.4018 N.3     1  UNL1       -0.2035
     14 O          -2.6826  -17.4001   22.3894 O.2     1  UNL1       -0.1532
     15 O          -2.1123  -20.1856   21.4327 O.2     1  UNL1       -0.1532
     16 H          -0.8479  -17.7520   22.8198 H       1  UNL1        0.1442
     17 H          -0.3420  -18.7895   21.6189 H       1  UNL1        0.1442
     18 C         -10.5289  -17.8801   20.4850 C.3     1  UNL1        0.0874
     19 N         -10.1451  -16.5338   21.0235 N.pl3   1  UNL1       -0.3302
     20 H         -10.3807  -15.7185   20.5244 H       1  UNL1        0.1469
     21 C         -10.0487  -16.8909   23.5952 C.ar    1  UNL1        0.1517
     22 C          -9.3060  -16.7867   24.8942 C.ar    1  UNL1        0.0390
     23 C          -7.9171  -16.2209   24.9207 C.ar    1  UNL1        0.0146
     24 C          -7.2708  -15.7595   23.6482 C.ar    1  UNL1        0.0591
     25 CL         -5.8818  -15.1938   23.6747 Cl      1  UNL1       -0.0822
     26 C          -8.0134  -15.8638   22.3492 C.ar    1  UNL1        0.0288
     27 C          -9.4024  -16.4295   22.3227 C.ar    1  UNL1        0.0799
     28 C         -11.7674  -18.6739   24.3808 C.3     1  UNL1        0.2525
     29 O         -11.4377  -17.4567   23.5687 O.3     1  UNL1       -0.4702
@<TRIPOS>BOND
     1    28    29    1
     2    29    21    1
     3    21    22   ar
     4    22    23   ar
     5    23    24   ar
     6    24    25    1
     7    24    26   ar
     8    26    27   ar
     9    27    19    1
    10    19    18    1
    11    18     1    1
    12     1     2    1
    13     2     6    1
    14     6     7   ar
    15     7     8   ar
    16     8     9   ar
    17     9    12    1
    18    12    13    1
    19    12    14    2
    20    12    15    2
    21     9    10   ar
    22    10    11   ar
    23     2     3    1
    24     3     4    1
    25     3     5    1
    26    27    21   ar
    27     3     1    1
    28    11     6   ar
    29    19    20    1
    30    13    16    1
    31    13    17    1
@<TRIPOS>MOLECULE
*****
 29 31 0 0 0
SMALL
GASTEIGER

@<TRIPOS>ATOM
      1 C          -9.0104  -17.7220   22.9773 C.3     1  UNL1        0.0239
      2 C          -7.8253  -18.5610   22.6010 C.3     1  UNL1        0.0240
      3 C          -9.0544  -19.2094   23.1656 C.3     1  UNL1        0.0057
      4 C          -8.6190  -20.6449   23.1568 C.3     1  UNL1        0.0004
      5 C         -10.4347  -19.3594   23.7333 C.3     1  UNL1        0.0004
      6 C          -6.4314  -18.6711   22.0578 C.ar    1  UNL1       -0.0224
      7 C          -6.2141  -19.0159   20.6142 C.ar    1  UNL1       -0.0029
      8 C          -4.8203  -19.1259   20.0711 C.ar    1  UNL1        0.0196
      9 C          -3.6437  -18.8912   20.9715 C.ar    1  UNL1        0.1217
     10 C          -3.8610  -18.5464   22.4150 C.ar    1  UNL1        0.0196
     11 C          -5.2549  -18.4364   22.9582 C.ar    1  UNL1       -0.0029
     12 S          -2.2498  -19.0013   20.4282 S.O2    1  UNL1        0.0572
     13 N          -0.8560  -19.1113   19.8851 N.3     1  UNL1       -0.2035
     14 O          -2.7593  -18.6768   19.0552 O.2     1  UNL1       -0.1532
     15 O          -1.7404  -19.3257   21.8012 O.2     1  UNL1       -0.1532
     16 H          -0.8667  -18.9283   18.8817 H       1  UNL1        0.1442
     17 H          -0.4979  -20.0511   20.0554 H       1  UNL1        0.1442
     18 C          -9.6691  -16.3788   23.0858 C.3     1  UNL1        0.0874
     19 N          -9.2347  -15.4141   24.1491 N.pl3   1  UNL1       -0.3302
     20 H          -9.8906  -14.8050   24.5589 H       1  UNL1        0.1469
     21 C          -7.4567  -15.5275   26.0401 C.ar    1  UNL1        0.1517
     22 C          -6.0228  -15.4908   26.4788 C.ar    1  UNL1        0.0390
     23 C          -4.9329  -15.3039   25.4653 C.ar    1  UNL1        0.0146
     24 C          -5.2769  -15.1537   24.0130 C.ar    1  UNL1        0.0591
     25 CL         -4.1870  -14.9668   22.9995 Cl      1  UNL1       -0.0822
     26 C          -6.7108  -15.1904   23.5743 C.ar    1  UNL1        0.0288
     27 C          -7.8007  -15.3773   24.5878 C.ar    1  UNL1        0.0799
     28 C          -8.8330  -14.6347   28.0547 C.3     1  UNL1        0.2525
     29 O          -8.5466  -15.7144   27.0536 O.3     1  UNL1       -0.4702
@<TRIPOS>BOND
     1    28    29    1
     2    29    21    1
     3    21    22   ar
     4    22    23   ar
     5    23    24   ar
     6    24    25    1
     7    24    26   ar
     8    26    27   ar
     9    27    19    1
    10    19    18    1
    11    18     1    1
    12     1     2    1
    13     2     6    1
    14     6     7   ar
    15     7     8   ar
    16     8     9   ar
    17     9    12    1
    18    12    13    1
    19    12    14    2
    20    12    15    2
    21     9    10   ar
    22    10    11   ar
    23     2     3    1
    24     3     4    1
    25     3     5    1
    26    27    21   ar
    27     3     1    1
    28    11     6   ar
    29    19    20    1
    30    13    16    1
    31    13    17    1
