@<TRIPOS>MOLECULE
*****
 35 38 0 0 0
SMALL
GASTEIGER

@<TRIPOS>ATOM
      1 C          -5.8769  -20.6223   20.4827 C.2     1  UNL1        0.2015
      2 O          -5.7572  -21.9670   19.8292 O.2     1  UNL1       -0.2864
      3 C          -4.6725  -19.7361   20.6013 C.ar    1  UNL1        0.0611
      4 C          -3.4274  -19.8245   19.7695 C.ar    1  UNL1        0.1037
      5 N          -2.4872  -18.7489   20.2268 N.ar    1  UNL1       -0.2269
      6 C          -3.1512  -17.9957   21.3411 C.ar    1  UNL1        0.1407
      7 N          -2.7005  -16.8332   22.1749 N.ar    1  UNL1       -0.3374
      8 C          -3.6004  -16.2807   23.2402 C.ar    1  UNL1        0.0735
      9 C          -4.9510  -16.8908   23.4717 C.ar    1  UNL1        0.0186
     10 C          -5.4017  -18.0534   22.6379 C.ar    1  UNL1        0.0047
     11 C          -4.5018  -18.6058   21.5726 C.ar    1  UNL1        0.0386
     12 H          -1.8140  -16.4327   22.0230 H       1  UNL1        0.1674
     13 C          -5.8509  -16.3383   24.5371 C.ar    1  UNL1        0.0207
     14 C          -5.2761  -15.9007   25.8517 C.ar    1  UNL1        0.0040
     15 C          -6.1761  -15.3482   26.9171 C.ar    1  UNL1        0.0308
     16 C          -7.6507  -15.2333   26.6678 C.ar    1  UNL1        0.1384
     17 CL         -8.5506  -14.6808   27.7331 Cl      1  UNL1       -0.0613
     18 N          -8.2255  -15.6710   25.3532 N.ar    1  UNL1       -0.2324
     19 C          -7.3256  -16.2234   24.2879 C.ar    1  UNL1        0.0998
     20 C          -9.4449  -18.8964   20.6860 C.ar    1  UNL1        0.0920
     21 C          -9.8496  -19.2464   22.0874 C.ar    1  UNL1        0.0204
     22 C          -8.9301  -20.0550   22.9538 C.ar    1  UNL1        0.0312
     23 C          -7.6059  -20.5136   22.4190 C.ar    1  UNL1        0.1454
     24 F          -6.6864  -21.3222   23.2854 F       1  UNL1       -0.2040
     25 C          -7.2012  -20.1636   21.0176 C.ar    1  UNL1        0.0951
     26 C          -8.1207  -19.3551   20.1512 C.ar    1  UNL1        0.1598
     27 F          -7.7159  -19.0051   18.7498 F       1  UNL1       -0.2026
     28 N         -10.3644  -18.0878   19.8196 N.pl3   1  UNL1       -0.2166
     29 H         -10.3252  -18.1795   18.8402 H       1  UNL1        0.1734
     30 S         -11.3437  -17.1396   20.4455 S.O2    1  UNL1        0.0540
     31 O         -12.4104  -18.1915   20.3702 O.2     1  UNL1       -0.1545
     32 O         -10.2770  -16.0877   20.5208 O.2     1  UNL1       -0.1545
     33 C         -12.3229  -16.1912   21.0713 C.3     1  UNL1        0.1724
     34 C         -12.9685  -17.3370   23.3120 C.3     1  UNL1        0.0019
     35 C         -12.4665  -16.1380   22.5635 C.3     1  UNL1        0.0273
@<TRIPOS>BOND
     1    34    35    1
     2    35    33    1
     3    33    30    1
     4    30    31    2
     5    30    32    2
     6    30    28    1
     7    28    20    1
     8    20    21   ar
     9    21    22   ar
    10    22    23   ar
    11    23    24    1
    12    23    25   ar
    13    25     1    1
    14     1     2    2
    15     1     3    1
    16     3     4   ar
    17     4     5   ar
    18     5     6   ar
    19     6     7   ar
    20     7     8   ar
    21     8     9   ar
    22     9    13    1
    23    13    14   ar
    24    14    15   ar
    25    15    16   ar
    26    16    17    1
    27    16    18   ar
    28    18    19   ar
    29     9    10   ar
    30    10    11   ar
    31    25    26   ar
    32    26    27    1
    33    26    20   ar
    34    11     3   ar
    35    11     6    1
    36    19    13   ar
    37    28    29    1
    38     7    12    1
@<TRIPOS>MOLECULE
*****
 35 38 0 0 0
SMALL
GASTEIGER

@<TRIPOS>ATOM
      1 C          -5.9335  -20.5943   20.2881 C.2     1  UNL1        0.2015
      2 O          -5.8065  -22.0100   19.8091 O.2     1  UNL1       -0.2864
      3 C          -4.7130  -19.7304   20.4073 C.ar    1  UNL1        0.0611
      4 C          -3.4800  -19.8245   19.5584 C.ar    1  UNL1        0.1037
      5 N          -2.5163  -18.7730   20.0227 N.ar    1  UNL1       -0.2269
      6 C          -3.1538  -18.0290   21.1585 C.ar    1  UNL1        0.1407
      7 N          -2.6734  -16.8892   22.0071 N.ar    1  UNL1       -0.3374
      8 C          -3.5507  -16.3412   23.0933 C.ar    1  UNL1        0.0735
      9 C          -4.9084  -16.9329   23.3310 C.ar    1  UNL1        0.0186
     10 C          -5.3888  -18.0727   22.4824 C.ar    1  UNL1        0.0047
     11 C          -4.5115  -18.6208   21.3962 C.ar    1  UNL1        0.0386
     12 H          -1.7823  -16.5009   21.8511 H       1  UNL1        0.1674
     13 C          -5.7857  -16.3848   24.4172 C.ar    1  UNL1        0.0207
     14 C          -5.2072  -16.0829   25.7678 C.ar    1  UNL1        0.0040
     15 C          -6.0845  -15.5347   26.8541 C.ar    1  UNL1        0.0308
     16 C          -7.5404  -15.2886   26.5897 C.ar    1  UNL1        0.1384
     17 CL         -8.4177  -14.7405   27.6759 Cl      1  UNL1       -0.0613
     18 N          -8.1189  -15.5905   25.2390 N.ar    1  UNL1       -0.2324
     19 C          -7.2416  -16.1386   24.1529 C.ar    1  UNL1        0.0998
     20 C          -9.1178  -19.5702   22.4239 C.ar    1  UNL1        0.0920
     21 C          -9.9761  -18.9388   21.3682 C.ar    1  UNL1        0.0204
     22 C          -9.4869  -18.8592   19.9525 C.ar    1  UNL1        0.0312
     23 C          -8.1394  -19.4110   19.5924 C.ar    1  UNL1        0.1454
     24 F          -7.6502  -19.3314   18.1767 F       1  UNL1       -0.2040
     25 C          -7.2811  -20.0424   20.6482 C.ar    1  UNL1        0.0951
     26 C          -7.7703  -20.1220   22.0639 C.ar    1  UNL1        0.1598
     27 F          -6.9120  -20.7535   23.1196 F       1  UNL1       -0.2026
     28 N          -9.6071  -19.6498   23.8397 N.pl3   1  UNL1       -0.2166
     29 H          -9.0387  -20.0533   24.5349 H       1  UNL1        0.1734
     30 S         -10.9623  -19.1146   24.1960 S.O2    1  UNL1        0.0540
     31 O         -11.5936  -20.3798   23.6953 O.2     1  UNL1       -0.1545
     32 O         -10.3310  -17.8495   24.6967 O.2     1  UNL1       -0.1545
     33 C         -12.3174  -18.5794   24.5525 C.3     1  UNL1        0.1724
     34 C         -12.6639  -16.8073   22.6843 C.3     1  UNL1        0.0019
     35 C         -13.1809  -17.9591   23.4943 C.3     1  UNL1        0.0273
@<TRIPOS>BOND
     1    34    35    1
     2    35    33    1
     3    33    30    1
     4    30    31    2
     5    30    32    2
     6    30    28    1
     7    28    20    1
     8    20    21   ar
     9    21    22   ar
    10    22    23   ar
    11    23    24    1
    12    23    25   ar
    13    25     1    1
    14     1     2    2
    15     1     3    1
    16     3     4   ar
    17     4     5   ar
    18     5     6   ar
    19     6     7   ar
    20     7     8   ar
    21     8     9   ar
    22     9    13    1
    23    13    14   ar
    24    14    15   ar
    25    15    16   ar
    26    16    17    1
    27    16    18   ar
    28    18    19   ar
    29     9    10   ar
    30    10    11   ar
    31    25    26   ar
    32    26    27    1
    33    26    20   ar
    34    11     3   ar
    35    11     6    1
    36    19    13   ar
    37    28    29    1
    38     7    12    1
@<TRIPOS>MOLECULE
*****
 35 38 0 0 0
SMALL
GASTEIGER

@<TRIPOS>ATOM
      1 C         -13.9043   -2.8077   20.2005 C.2     1  UNL1        0.2015
      2 O         -13.7456   -2.9811   21.6819 O.2     1  UNL1       -0.2864
      3 C         -15.2681   -2.6011   19.6113 C.ar    1  UNL1        0.0611
      4 C         -15.9114   -1.2778   19.3196 C.ar    1  UNL1        0.1037
      5 N         -17.2690   -1.5404   18.7384 N.ar    1  UNL1       -0.2269
      6 C         -17.4649   -3.0261   18.6709 C.ar    1  UNL1        0.1407
      7 N         -18.6094   -3.8666   18.1878 N.ar    1  UNL1       -0.3374
      8 C         -18.5174   -5.3627   18.2443 C.ar    1  UNL1        0.0735
      9 C         -17.2808   -6.0182   18.7838 C.ar    1  UNL1        0.0186
     10 C         -16.1362   -5.1777   19.2668 C.ar    1  UNL1        0.0047
     11 C         -16.2282   -3.6816   19.2103 C.ar    1  UNL1        0.0386
     12 H         -19.4211   -3.4363   17.8337 H       1  UNL1        0.1674
     13 C         -17.1888   -7.5144   18.8402 C.ar    1  UNL1        0.0207
     14 C         -17.8400   -8.3465   17.7756 C.ar    1  UNL1        0.0040
     15 C         -17.7480   -9.8427   17.8321 C.ar    1  UNL1        0.0308
     16 C         -17.0048  -10.5066   18.9531 C.ar    1  UNL1        0.1384
     17 CL        -16.9127  -12.0027   19.0096 Cl      1  UNL1       -0.0613
     18 N         -16.3535   -9.6744   20.0177 N.ar    1  UNL1       -0.2324
     19 C         -16.4455   -8.1783   19.9612 C.ar    1  UNL1        0.0998
     20 C         -10.7409   -4.1566   18.2195 C.ar    1  UNL1        0.0920
     21 C         -10.2884   -2.9072   17.5236 C.ar    1  UNL1        0.0204
     22 C         -11.0411   -1.6247   17.7199 C.ar    1  UNL1        0.0312
     23 C         -12.2464   -1.5915   18.6122 C.ar    1  UNL1        0.1454
     24 F         -12.9991   -0.3090   18.8085 F       1  UNL1       -0.2040
     25 C         -12.6989   -2.8408   19.3081 C.ar    1  UNL1        0.0951
     26 C         -11.9462   -4.1233   19.1118 C.ar    1  UNL1        0.1598
     27 F         -12.3988   -5.3727   19.8077 F       1  UNL1       -0.2026
     28 N          -9.9882   -5.4391   18.0231 N.pl3   1  UNL1       -0.2166
     29 H          -9.0240   -5.4787   18.2179 H       1  UNL1        0.1734
     30 S         -10.7046   -6.6612   17.5301 S.O2    1  UNL1        0.0540
     31 O         -10.3157   -7.3935   18.7800 O.2     1  UNL1       -0.1545
     32 O         -11.0935   -5.9289   16.2801 O.2     1  UNL1       -0.1545
     33 C         -11.4210   -7.8833   17.0369 C.3     1  UNL1        0.1724
     34 C         -14.0185   -7.9347   17.0625 C.3     1  UNL1        0.0019
     35 C         -12.7302   -7.7461   16.3177 C.3     1  UNL1        0.0273
@<TRIPOS>BOND
     1    34    35    1
     2    35    33    1
     3    33    30    1
     4    30    31    2
     5    30    32    2
     6    30    28    1
     7    28    20    1
     8    20    21   ar
     9    21    22   ar
    10    22    23   ar
    11    23    24    1
    12    23    25   ar
    13    25     1    1
    14     1     2    2
    15     1     3    1
    16     3     4   ar
    17     4     5   ar
    18     5     6   ar
    19     6     7   ar
    20     7     8   ar
    21     8     9   ar
    22     9    13    1
    23    13    14   ar
    24    14    15   ar
    25    15    16   ar
    26    16    17    1
    27    16    18   ar
    28    18    19   ar
    29     9    10   ar
    30    10    11   ar
    31    25    26   ar
    32    26    27    1
    33    26    20   ar
    34    11     3   ar
    35    11     6    1
    36    19    13   ar
    37    28    29    1
    38     7    12    1
@<TRIPOS>MOLECULE
*****
 35 38 0 0 0
SMALL
GASTEIGER

@<TRIPOS>ATOM
      1 C         -10.9669  -16.4904   22.6694 C.2     1  UNL1        0.2015
      2 O         -11.8672  -15.2909   22.6894 O.2     1  UNL1       -0.2864
      3 C         -11.0579  -17.4779   21.5440 C.ar    1  UNL1        0.0611
      4 C         -12.3035  -17.8488   20.7951 C.ar    1  UNL1        0.1037
      5 N         -11.9347  -18.8680   19.7582 N.ar    1  UNL1       -0.2269
      6 C         -10.4611  -19.1270   19.8663 C.ar    1  UNL1        0.1407
      7 N          -9.5428  -20.0341   19.1023 N.ar    1  UNL1       -0.3374
      8 C          -8.0826  -20.0821   19.4420 C.ar    1  UNL1        0.0735
      9 C          -7.5407  -19.2230   20.5457 C.ar    1  UNL1        0.0186
     10 C          -8.4591  -18.3158   21.3097 C.ar    1  UNL1        0.0047
     11 C          -9.9193  -18.2679   20.9700 C.ar    1  UNL1        0.0386
     12 H          -9.8985  -20.5980   18.3778 H       1  UNL1        0.1674
     13 C          -6.0805  -19.2710   20.8855 C.ar    1  UNL1        0.0207
     14 C          -5.0532  -19.1171   19.8033 C.ar    1  UNL1        0.0040
     15 C          -3.5929  -19.1651   20.1431 C.ar    1  UNL1        0.0308
     16 C          -3.1600  -19.3670   21.5650 C.ar    1  UNL1        0.1384
     17 CL         -1.6998  -19.4151   21.9047 Cl      1  UNL1       -0.0613
     18 N          -4.1873  -19.5210   22.6471 N.ar    1  UNL1       -0.2324
     19 C          -5.6475  -19.4729   22.3074 C.ar    1  UNL1        0.0998
     20 C          -7.7247  -16.1008   24.9249 C.ar    1  UNL1        0.0920
     21 C          -7.9926  -17.1266   25.9860 C.ar    1  UNL1        0.0204
     22 C          -9.2520  -17.9403   25.9416 C.ar    1  UNL1        0.0312
     23 C         -10.2434  -17.7283   24.8361 C.ar    1  UNL1        0.1454
     24 F         -11.5027  -18.5420   24.7917 F       1  UNL1       -0.2040
     25 C          -9.9754  -16.7025   23.7750 C.ar    1  UNL1        0.0951
     26 C          -8.7161  -15.8888   23.8194 C.ar    1  UNL1        0.1598
     27 F          -8.4483  -14.8630   22.7582 F       1  UNL1       -0.2026
     28 N          -6.4654  -15.2870   24.9693 N.pl3   1  UNL1       -0.2166
     29 H          -6.4621  -14.4090   25.4146 H       1  UNL1        0.1734
     30 S          -5.2111  -15.8111   24.3351 S.O2    1  UNL1        0.0540
     31 O          -5.5787  -15.1335   23.0483 O.2     1  UNL1       -0.1545
     32 O          -4.8436  -16.4886   25.6219 O.2     1  UNL1       -0.1545
     33 C          -3.9569  -16.3351   23.7010 C.3     1  UNL1        0.1724
     34 C          -2.1123  -16.0485   21.8938 C.3     1  UNL1        0.0019
     35 C          -3.5163  -15.8122   22.3659 C.3     1  UNL1        0.0273
@<TRIPOS>BOND
     1    34    35    1
     2    35    33    1
     3    33    30    1
     4    30    31    2
     5    30    32    2
     6    30    28    1
     7    28    20    1
     8    20    21   ar
     9    21    22   ar
    10    22    23   ar
    11    23    24    1
    12    23    25   ar
    13    25     1    1
    14     1     2    2
    15     1     3    1
    16     3     4   ar
    17     4     5   ar
    18     5     6   ar
    19     6     7   ar
    20     7     8   ar
    21     8     9   ar
    22     9    13    1
    23    13    14   ar
    24    14    15   ar
    25    15    16   ar
    26    16    17    1
    27    16    18   ar
    28    18    19   ar
    29     9    10   ar
    30    10    11   ar
    31    25    26   ar
    32    26    27    1
    33    26    20   ar
    34    11     3   ar
    35    11     6    1
    36    19    13   ar
    37    28    29    1
    38     7    12    1
@<TRIPOS>MOLECULE
*****
 35 38 0 0 0
SMALL
GASTEIGER

@<TRIPOS>ATOM
      1 C           4.6683   -3.7895   21.0730 C.2     1  UNL1        0.2015
      2 O           3.9317   -5.0702   20.8142 O.2     1  UNL1       -0.2864
      3 C           5.0418   -3.4092   22.4751 C.ar    1  UNL1        0.0611
      4 C           6.0960   -4.0665   23.3158 C.ar    1  UNL1        0.1037
      5 N           6.1323   -3.3683   24.6430 N.ar    1  UNL1       -0.2269
      6 C           5.1007   -2.2796   24.6225 C.ar    1  UNL1        0.1407
      7 N           4.6879   -1.2685   25.6507 N.ar    1  UNL1       -0.3374
      8 C           3.6012   -0.2827   25.3391 C.ar    1  UNL1        0.0735
      9 C           2.9272   -0.3080   23.9993 C.ar    1  UNL1        0.0186
     10 C           3.3400   -1.3191   22.9711 C.ar    1  UNL1        0.0047
     11 C           4.4267   -2.3049   23.2827 C.ar    1  UNL1        0.0386
     12 H           5.1303   -1.2520   26.5301 H       1  UNL1        0.1674
     13 C           1.8404    0.6779   23.6878 C.ar    1  UNL1        0.0207
     14 C           1.3585    0.8419   22.2768 C.ar    1  UNL1        0.0040
     15 C           0.2717    1.8278   21.9653 C.ar    1  UNL1        0.0308
     16 C          -0.3331    2.6496   23.0647 C.ar    1  UNL1        0.1384
     17 CL         -1.4198    3.6355   22.7532 Cl      1  UNL1       -0.0613
     18 N           0.1489    2.4856   24.4757 N.ar    1  UNL1       -0.2324
     19 C           1.2356    1.4998   24.7872 C.ar    1  UNL1        0.0998
     20 C           4.3467   -1.1238   18.1506 C.ar    1  UNL1        0.0920
     21 C           5.7578   -1.0879   17.6430 C.ar    1  UNL1        0.0204
     22 C           6.8057   -1.9526   18.2788 C.ar    1  UNL1        0.0312
     23 C           6.4426   -2.8531   19.4221 C.ar    1  UNL1        0.1454
     24 F           7.4905   -3.7178   20.0579 F       1  UNL1       -0.2040
     25 C           5.0315   -2.8889   19.9296 C.ar    1  UNL1        0.0951
     26 C           3.9836   -2.0243   19.2939 C.ar    1  UNL1        0.1598
     27 F           2.5725   -2.0602   19.8015 F       1  UNL1       -0.2026
     28 N           3.2988   -0.2591   17.5148 N.pl3   1  UNL1       -0.2166
     29 H           2.9334   -0.4970   16.6321 H       1  UNL1        0.1734
     30 S           2.8076    0.9681   18.2239 S.O2    1  UNL1        0.0540
     31 O           1.4226    0.3933   18.2591 O.2     1  UNL1       -0.1545
     32 O           4.1927    1.5428   18.1886 O.2     1  UNL1       -0.1545
     33 C           2.3166    2.1953   18.9329 C.3     1  UNL1        0.1724
     34 C           0.6531    4.1890   19.0238 C.3     1  UNL1        0.0019
     35 C           1.0059    2.8124   18.5437 C.3     1  UNL1        0.0273
@<TRIPOS>BOND
     1    34    35    1
     2    35    33    1
     3    33    30    1
     4    30    31    2
     5    30    32    2
     6    30    28    1
     7    28    20    1
     8    20    21   ar
     9    21    22   ar
    10    22    23   ar
    11    23    24    1
    12    23    25   ar
    13    25     1    1
    14     1     2    2
    15     1     3    1
    16     3     4   ar
    17     4     5   ar
    18     5     6   ar
    19     6     7   ar
    20     7     8   ar
    21     8     9   ar
    22     9    13    1
    23    13    14   ar
    24    14    15   ar
    25    15    16   ar
    26    16    17    1
    27    16    18   ar
    28    18    19   ar
    29     9    10   ar
    30    10    11   ar
    31    25    26   ar
    32    26    27    1
    33    26    20   ar
    34    11     3   ar
    35    11     6    1
    36    19    13   ar
    37    28    29    1
    38     7    12    1
@<TRIPOS>MOLECULE
*****
 35 38 0 0 0
SMALL
GASTEIGER

@<TRIPOS>ATOM
      1 C           0.7957    1.3896   21.0322 C.2     1  UNL1        0.2015
      2 O          -0.5515    1.0848   20.4475 O.2     1  UNL1       -0.2864
      3 C           1.0387    1.1923   22.4992 C.ar    1  UNL1        0.0611
      4 C           0.2549    1.8179   23.6147 C.ar    1  UNL1        0.1037
      5 N           0.8400    1.3470   24.9131 N.ar    1  UNL1       -0.2269
      6 C           1.9854    0.4304   24.6001 C.ar    1  UNL1        0.1407
      7 N           2.9324   -0.3295   25.4809 N.ar    1  UNL1       -0.3374
      8 C           4.0021   -1.1850   24.8697 C.ar    1  UNL1        0.0735
      9 C           4.1249   -1.2806   23.3778 C.ar    1  UNL1        0.0186
     10 C           3.1780   -0.5207   22.4971 C.ar    1  UNL1        0.0047
     11 C           2.1082    0.3348   23.1082 C.ar    1  UNL1        0.0386
     12 H           2.8518   -0.2667   26.4600 H       1  UNL1        0.1674
     13 C           5.1948   -2.1362   22.7666 C.ar    1  UNL1        0.0207
     14 C           6.4159   -1.4996   22.1722 C.ar    1  UNL1        0.0040
     15 C           7.4858   -2.3552   21.5610 C.ar    1  UNL1        0.0308
     16 C           7.3344   -3.8474   21.5443 C.ar    1  UNL1        0.1384
     17 CL          8.4042   -4.7030   20.9332 Cl      1  UNL1       -0.0613
     18 N           6.1132   -4.4841   22.1388 N.ar    1  UNL1       -0.2324
     19 C           5.0434   -3.6285   22.7499 C.ar    1  UNL1        0.0998
     20 C           3.7326    1.4438   18.3635 C.ar    1  UNL1        0.0920
     21 C           4.1087    2.8957   18.3853 C.ar    1  UNL1        0.0204
     22 C           3.3804    3.8456   19.2895 C.ar    1  UNL1        0.0312
     23 C           2.2761    3.3436   20.1717 C.ar    1  UNL1        0.1454
     24 F           1.5479    4.2934   21.0759 F       1  UNL1       -0.2040
     25 C           1.9001    1.8917   20.1499 C.ar    1  UNL1        0.0951
     26 C           2.6283    0.9418   19.2458 C.ar    1  UNL1        0.1598
     27 F           2.2521   -0.5101   19.2240 F       1  UNL1       -0.2026
     28 N           4.4608    0.4939   17.4594 N.pl3   1  UNL1       -0.2166
     29 H           4.6329    0.7408   16.5220 H       1  UNL1        0.1734
     30 S           4.9268   -0.8320   17.9835 S.O2    1  UNL1        0.0540
     31 O           5.7742   -0.1310   19.0035 O.2     1  UNL1       -0.1545
     32 O           4.0794   -1.5330   16.9634 O.2     1  UNL1       -0.1545
     33 C           5.3927   -2.1580   18.5075 C.3     1  UNL1        0.1724
     34 C           4.5572   -4.5931   18.8574 C.3     1  UNL1        0.0019
     35 C           4.4049   -3.1203   19.0976 C.3     1  UNL1        0.0273
@<TRIPOS>BOND
     1    34    35    1
     2    35    33    1
     3    33    30    1
     4    30    31    2
     5    30    32    2
     6    30    28    1
     7    28    20    1
     8    20    21   ar
     9    21    22   ar
    10    22    23   ar
    11    23    24    1
    12    23    25   ar
    13    25     1    1
    14     1     2    2
    15     1     3    1
    16     3     4   ar
    17     4     5   ar
    18     5     6   ar
    19     6     7   ar
    20     7     8   ar
    21     8     9   ar
    22     9    13    1
    23    13    14   ar
    24    14    15   ar
    25    15    16   ar
    26    16    17    1
    27    16    18   ar
    28    18    19   ar
    29     9    10   ar
    30    10    11   ar
    31    25    26   ar
    32    26    27    1
    33    26    20   ar
    34    11     3   ar
    35    11     6    1
    36    19    13   ar
    37    28    29    1
    38     7    12    1
@<TRIPOS>MOLECULE
*****
 35 38 0 0 0
SMALL
GASTEIGER

@<TRIPOS>ATOM
      1 C           4.1707   -2.5751   19.6614 C.2     1  UNL1        0.2015
      2 O           3.3870   -3.7429   19.1402 O.2     1  UNL1       -0.2864
      3 C           5.6222   -2.4299   19.3121 C.ar    1  UNL1        0.0611
      4 C           6.1809   -1.6062   18.1898 C.ar    1  UNL1        0.1037
      5 N           7.6739   -1.7502   18.2079 N.ar    1  UNL1       -0.2269
      6 C           8.0379   -2.6628   19.3413 C.ar    1  UNL1        0.1407
      7 N           9.3601   -3.1656   19.8402 N.ar    1  UNL1       -0.3374
      8 C           9.4144   -4.0884   21.0214 C.ar    1  UNL1        0.0735
      9 C           8.1464   -4.5084   21.7039 C.ar    1  UNL1        0.0186
     10 C           6.8241   -4.0057   21.2050 C.ar    1  UNL1        0.0047
     11 C           6.7699   -3.0829   20.0238 C.ar    1  UNL1        0.0386
     12 H          10.1924   -2.8899   19.3923 H       1  UNL1        0.1674
     13 C           8.2007   -5.4313   22.8852 C.ar    1  UNL1        0.0207
     14 C           8.9597   -6.7219   22.7944 C.ar    1  UNL1        0.0040
     15 C           9.0140   -7.6448   23.9758 C.ar    1  UNL1        0.0308
     16 C           8.3092   -7.2770   25.2478 C.ar    1  UNL1        0.1384
     17 CL          8.3635   -8.1998   26.4291 Cl      1  UNL1       -0.0613
     18 N           7.5502   -5.9863   25.3385 N.ar    1  UNL1       -0.2324
     19 C           7.4959   -5.0636   24.1572 C.ar    1  UNL1        0.0998
     20 C           2.1604    0.6581   20.7822 C.ar    1  UNL1        0.0920
     21 C           2.1672    0.4933   22.2732 C.ar    1  UNL1        0.0204
     22 C           2.8417   -0.6942   22.8935 C.ar    1  UNL1        0.0312
     23 C           3.5096   -1.7170   22.0230 C.ar    1  UNL1        0.1454
     24 F           4.1841   -2.9045   22.6433 F       1  UNL1       -0.2040
     25 C           3.5028   -1.5522   20.5320 C.ar    1  UNL1        0.0951
     26 C           2.8283   -0.3647   19.9117 C.ar    1  UNL1        0.1598
     27 F           2.8216   -0.2001   18.4208 F       1  UNL1       -0.2026
     28 N           1.4859    1.8456   20.1619 N.pl3   1  UNL1       -0.2166
     29 H           1.8936    2.2936   19.3859 H       1  UNL1        0.1734
     30 S           0.1901    2.3504   20.7240 S.O2    1  UNL1        0.0540
     31 O           0.8500    3.6500   21.0782 O.2     1  UNL1       -0.1545
     32 O          -0.4699    1.0508   20.3698 O.2     1  UNL1       -0.1545
     33 C          -1.1058    2.8552   21.2861 C.3     1  UNL1        0.1724
     34 C          -3.6281    3.2917   20.8415 C.3     1  UNL1        0.0019
     35 C          -2.2066    3.2860   20.3627 C.3     1  UNL1        0.0273
@<TRIPOS>BOND
     1    34    35    1
     2    35    33    1
     3    33    30    1
     4    30    31    2
     5    30    32    2
     6    30    28    1
     7    28    20    1
     8    20    21   ar
     9    21    22   ar
    10    22    23   ar
    11    23    24    1
    12    23    25   ar
    13    25     1    1
    14     1     2    2
    15     1     3    1
    16     3     4   ar
    17     4     5   ar
    18     5     6   ar
    19     6     7   ar
    20     7     8   ar
    21     8     9   ar
    22     9    13    1
    23    13    14   ar
    24    14    15   ar
    25    15    16   ar
    26    16    17    1
    27    16    18   ar
    28    18    19   ar
    29     9    10   ar
    30    10    11   ar
    31    25    26   ar
    32    26    27    1
    33    26    20   ar
    34    11     3   ar
    35    11     6    1
    36    19    13   ar
    37    28    29    1
    38     7    12    1
@<TRIPOS>MOLECULE
*****
 35 38 0 0 0
SMALL
GASTEIGER

@<TRIPOS>ATOM
      1 C          -7.4345  -19.6160   20.3815 C.2     1  UNL1        0.2015
      2 O          -7.8625  -20.0111   18.9993 O.2     1  UNL1       -0.2864
      3 C          -6.0486  -19.0925   20.6166 C.ar    1  UNL1        0.0611
      4 C          -4.8428  -19.3787   19.7716 C.ar    1  UNL1        0.1037
      5 N          -3.6743  -18.6540   20.3709 N.ar    1  UNL1       -0.2269
      6 C          -4.1578  -17.9198   21.5862 C.ar    1  UNL1        0.1407
      7 N          -3.4515  -17.0395   22.5742 N.ar    1  UNL1       -0.3374
      8 C          -4.2127  -16.4302   23.7141 C.ar    1  UNL1        0.0735
      9 C          -5.6801  -16.7012   23.8660 C.ar    1  UNL1        0.0186
     10 C          -6.3865  -17.5815   22.8780 C.ar    1  UNL1        0.0047
     11 C          -5.6253  -18.1908   21.7381 C.ar    1  UNL1        0.0386
     12 H          -2.4884  -16.8616   22.4745 H       1  UNL1        0.1674
     13 C          -6.4413  -16.0919   25.0060 C.ar    1  UNL1        0.0207
     14 C          -7.9401  -16.0456   24.9674 C.ar    1  UNL1        0.0040
     15 C          -8.7012  -15.4363   26.1074 C.ar    1  UNL1        0.0308
     16 C          -7.9636  -14.8733   27.2858 C.ar    1  UNL1        0.1384
     17 CL         -8.7246  -14.2640   28.4258 Cl      1  UNL1       -0.0613
     18 N          -6.4647  -14.9196   27.3244 N.ar    1  UNL1       -0.2324
     19 C          -5.7036  -15.5289   26.1844 C.ar    1  UNL1        0.0998
     20 C         -10.6859  -19.1923   22.6174 C.ar    1  UNL1        0.0920
     21 C         -10.3083  -20.0011   23.8229 C.ar    1  UNL1        0.0204
     22 C          -8.9728  -20.6816   23.8812 C.ar    1  UNL1        0.0312
     23 C          -8.0149  -20.5533   22.7341 C.ar    1  UNL1        0.1454
     24 F          -6.6794  -21.2338   22.7925 F       1  UNL1       -0.2040
     25 C          -8.3925  -19.7444   21.5287 C.ar    1  UNL1        0.0951
     26 C          -9.7279  -19.0639   21.4704 C.ar    1  UNL1        0.1598
     27 F         -10.1055  -18.2550   20.2648 F       1  UNL1       -0.2026
     28 N         -12.0214  -18.5118   22.5591 N.pl3   1  UNL1       -0.2166
     29 H         -12.8075  -18.9340   22.9749 H       1  UNL1        0.1734
     30 S         -12.1590  -17.1880   21.8673 S.O2    1  UNL1        0.0540
     31 O         -11.3019  -16.5490   22.9194 O.2     1  UNL1       -0.1545
     32 O         -13.0161  -17.8270   20.8151 O.2     1  UNL1       -0.1545
     33 C         -12.2967  -15.8643   21.1754 C.3     1  UNL1        0.1724
     34 C         -11.0780  -15.2681   18.9596 C.3     1  UNL1        0.0019
     35 C         -12.2848  -15.7964   19.6769 C.3     1  UNL1        0.0273
@<TRIPOS>BOND
     1    34    35    1
     2    35    33    1
     3    33    30    1
     4    30    31    2
     5    30    32    2
     6    30    28    1
     7    28    20    1
     8    20    21   ar
     9    21    22   ar
    10    22    23   ar
    11    23    24    1
    12    23    25   ar
    13    25     1    1
    14     1     2    2
    15     1     3    1
    16     3     4   ar
    17     4     5   ar
    18     5     6   ar
    19     6     7   ar
    20     7     8   ar
    21     8     9   ar
    22     9    13    1
    23    13    14   ar
    24    14    15   ar
    25    15    16   ar
    26    16    17    1
    27    16    18   ar
    28    18    19   ar
    29     9    10   ar
    30    10    11   ar
    31    25    26   ar
    32    26    27    1
    33    26    20   ar
    34    11     3   ar
    35    11     6    1
    36    19    13   ar
    37    28    29    1
    38     7    12    1
@<TRIPOS>MOLECULE
*****
 35 38 0 0 0
SMALL
GASTEIGER

@<TRIPOS>ATOM
      1 C           6.4110   -1.7167   29.9431 C.2     1  UNL1        0.2015
      2 O           7.5722   -0.8047   29.6793 O.2     1  UNL1       -0.2864
      3 C           6.6123   -3.2032   29.9544 C.ar    1  UNL1        0.0611
      4 C           6.7118   -4.0702   31.1744 C.ar    1  UNL1        0.1037
      5 N           6.9103   -5.4863   30.7216 N.ar    1  UNL1       -0.2269
      6 C           6.9335   -5.4946   29.2218 C.ar    1  UNL1        0.1407
      7 N           7.0985   -6.6047   28.2266 N.ar    1  UNL1       -0.3374
      8 C           7.0793   -6.3036   26.7573 C.ar    1  UNL1        0.0735
      9 C           6.8951   -4.8925   26.2831 C.ar    1  UNL1        0.0186
     10 C           6.7301   -3.7824   27.2783 C.ar    1  UNL1        0.0047
     11 C           6.7493   -4.0835   28.7476 C.ar    1  UNL1        0.0386
     12 H           7.2194   -7.5308   28.5378 H       1  UNL1        0.1674
     13 C           6.8759   -4.5915   24.8137 C.ar    1  UNL1        0.0207
     14 C           6.0062   -3.4897   24.2852 C.ar    1  UNL1        0.0040
     15 C           5.9870   -3.1887   22.8157 C.ar    1  UNL1        0.0308
     16 C           6.8376   -3.9896   21.8750 C.ar    1  UNL1        0.1384
     17 CL          6.8184   -3.6887   20.4056 Cl      1  UNL1       -0.0613
     18 N           7.7073   -5.0916   22.4036 N.ar    1  UNL1       -0.2324
     19 C           7.7265   -5.3925   23.8730 C.ar    1  UNL1        0.0998
     20 C           2.6776   -0.5137   29.3392 C.ar    1  UNL1        0.0920
     21 C           2.3236    0.0062   30.7010 C.ar    1  UNL1        0.0204
     22 C           3.3320   -0.0482   31.8101 C.ar    1  UNL1        0.0312
     23 C           4.6944   -0.6225   31.5575 C.ar    1  UNL1        0.1454
     24 F           5.7028   -0.6769   32.6667 F       1  UNL1       -0.2040
     25 C           5.0485   -1.1424   30.1958 C.ar    1  UNL1        0.0951
     26 C           4.0401   -1.0880   29.0867 C.ar    1  UNL1        0.1598
     27 F           4.3942   -1.6079   27.7249 F       1  UNL1       -0.2026
     28 N           1.6692   -0.4592   28.2301 N.pl3   1  UNL1       -0.2166
     29 H           1.6504   -1.1676   27.5467 H       1  UNL1        0.1734
     30 S           0.6895    0.6746   28.1622 S.O2    1  UNL1        0.0540
     31 O           1.7896    1.5994   27.7328 O.2     1  UNL1       -0.1545
     32 O          -0.4106   -0.2503   28.5916 O.2     1  UNL1       -0.1545
     33 C          -0.2903    1.8083   28.0944 C.3     1  UNL1        0.1724
     34 C          -1.7211    3.4165   26.6394 C.3     1  UNL1        0.0019
     35 C          -0.9948    2.1147   26.8060 C.3     1  UNL1        0.0273
@<TRIPOS>BOND
     1    34    35    1
     2    35    33    1
     3    33    30    1
     4    30    31    2
     5    30    32    2
     6    30    28    1
     7    28    20    1
     8    20    21   ar
     9    21    22   ar
    10    22    23   ar
    11    23    24    1
    12    23    25   ar
    13    25     1    1
    14     1     2    2
    15     1     3    1
    16     3     4   ar
    17     4     5   ar
    18     5     6   ar
    19     6     7   ar
    20     7     8   ar
    21     8     9   ar
    22     9    13    1
    23    13    14   ar
    24    14    15   ar
    25    15    16   ar
    26    16    17    1
    27    16    18   ar
    28    18    19   ar
    29     9    10   ar
    30    10    11   ar
    31    25    26   ar
    32    26    27    1
    33    26    20   ar
    34    11     3   ar
    35    11     6    1
    36    19    13   ar
    37    28    29    1
    38     7    12    1
