@<TRIPOS>MOLECULE
*****
 30 33 0 0 0
SMALL
GASTEIGER

@<TRIPOS>ATOM
      1 N          -1.1189    3.8048   19.4533 N.ar    1  UNL1       -0.1813
      2 N          -0.6284    4.9788   18.6589 N.ar    1  UNL1       -0.0576
      3 N           0.8158    4.7441   18.3284 N.ar    1  UNL1       -0.1315
      4 C           1.2179    3.4250   18.9186 C.ar    1  UNL1        0.1138
      5 C           0.0222    2.8445   19.6138 C.ar    1  UNL1        0.0837
      6 C           0.1269    1.5164   20.3032 C.3     1  UNL1        0.0688
      7 C           1.4274    0.7688   20.2974 C.3     1  UNL1        0.1004
      8 N           2.6231    1.3493   19.6022 N.am    1  UNL1       -0.2719
      9 C           3.9235    0.6018   19.5964 C.2     1  UNL1        0.2501
     10 O           5.1192    1.1823   18.9012 O.2     1  UNL1       -0.2699
     11 C           2.5183    2.6774   18.9128 C.3     1  UNL1        0.1189
     12 C           3.7140    3.2580   18.2176 C.3     1  UNL1        0.0282
     13 C          -6.2513    3.5620   18.6795 C.3     1  UNL1        0.0523
     14 C          -5.0730    3.5016   19.6056 C.ar    1  UNL1        0.0640
     15 C          -5.2825    3.2593   21.0710 C.ar    1  UNL1        0.0355
     16 C          -4.1041    3.1989   21.9972 C.ar    1  UNL1        0.1033
     17 N          -2.7163    3.3808   21.4579 N.ar    1  UNL1       -0.2084
     18 C          -2.5067    3.6230   19.9925 C.ar    1  UNL1        0.2538
     19 N          -3.6851    3.6834   19.0663 N.ar    1  UNL1       -0.2143
     20 C           4.0282   -0.7262   20.2857 C.ar    1  UNL1        0.0641
     21 C           3.9555   -0.8024   21.7820 C.ar    1  UNL1        0.0054
     22 C           4.0602   -2.1305   22.4714 C.ar    1  UNL1        0.0001
     23 C           4.2376   -3.3824   21.6645 C.ar    1  UNL1        0.0047
     24 C           4.3103   -3.3063   20.1682 C.ar    1  UNL1        0.0821
     25 C           4.2056   -1.9783   19.4788 C.ar    1  UNL1        0.0659
     26 CL          4.2782   -1.9021   17.9825 Cl      1  UNL1       -0.0822
     27 C           4.4877   -4.5583   19.3612 C.3     1  UNL1        0.4194
     28 F           4.6650   -5.8103   18.5543 F       1  UNL1       -0.1658
     29 F           5.9533   -4.5563   19.6801 F       1  UNL1       -0.1658
     30 F           3.0220   -4.5604   19.0423 F       1  UNL1       -0.1658
@<TRIPOS>BOND
     1    13    14    1
     2    14    15   ar
     3    15    16   ar
     4    16    17   ar
     5    17    18   ar
     6    18     1    1
     7     1     2   ar
     8     2     3   ar
     9     3     4   ar
    10     4     5   ar
    11     5     6    1
    12     6     7    1
    13     7     8    1
    14     8     9   am
    15     9    10    2
    16     9    20    1
    17    20    21   ar
    18    21    22   ar
    19    22    23   ar
    20    23    24   ar
    21    24    27    1
    22    27    28    1
    23    27    29    1
    24    27    30    1
    25    24    25   ar
    26    25    26    1
    27     8    11    1
    28    11    12    1
    29    18    19   ar
    30    19    14   ar
    31     5     1   ar
    32    25    20   ar
    33    11     4    1
@<TRIPOS>MOLECULE
*****
 30 33 0 0 0
SMALL
GASTEIGER

@<TRIPOS>ATOM
      1 N         -17.4962    0.0208   20.5295 N.ar    1  UNL1       -0.1813
      2 N         -18.8662   -0.5683   20.6911 N.ar    1  UNL1       -0.0576
      3 N         -18.8337   -1.9700   20.1581 N.ar    1  UNL1       -0.1315
      4 C         -17.4437   -2.2472   19.6672 C.ar    1  UNL1        0.1138
      5 C         -16.6171   -1.0168   19.8968 C.ar    1  UNL1        0.0837
      6 C         -15.1706   -1.0002   19.5000 C.3     1  UNL1        0.0688
      7 C         -14.5508   -2.2141   18.8736 C.3     1  UNL1        0.1004
      8 N         -15.3774   -3.4445   18.6440 N.am    1  UNL1       -0.2719
      9 C         -14.7576   -4.6584   18.0177 C.2     1  UNL1        0.2501
     10 O         -15.5842   -5.8888   17.7881 O.2     1  UNL1       -0.2699
     11 C         -16.8239   -3.4611   19.0409 C.3     1  UNL1        0.1189
     12 C         -17.6505   -4.6915   18.8113 C.3     1  UNL1        0.0282
     13 C         -16.9463    3.6744   24.1832 C.3     1  UNL1        0.0523
     14 C         -16.8037    3.2315   22.7572 C.ar    1  UNL1        0.0640
     15 C         -16.2435    4.1724   21.7321 C.ar    1  UNL1        0.0355
     16 C         -16.1009    3.7295   20.3061 C.ar    1  UNL1        0.1033
     17 N         -16.5185    2.3456   19.9053 N.ar    1  UNL1       -0.2084
     18 C         -17.0787    1.4047   20.9304 C.ar    1  UNL1        0.2538
     19 N         -17.2213    1.8476   22.3564 N.ar    1  UNL1       -0.2143
     20 C         -13.3112   -4.6418   17.6209 C.ar    1  UNL1        0.0641
     21 C         -12.8808   -3.9087   16.3850 C.ar    1  UNL1        0.0054
     22 C         -11.4343   -3.8921   15.9882 C.ar    1  UNL1        0.0001
     23 C         -10.4182   -4.6086   16.8273 C.ar    1  UNL1        0.0047
     24 C         -10.8485   -5.3417   18.0631 C.ar    1  UNL1        0.0821
     25 C         -12.2950   -5.3583   18.4599 C.ar    1  UNL1        0.0659
     26 CL        -12.7253   -6.0914   19.6958 Cl      1  UNL1       -0.0822
     27 C          -9.8323   -6.0583   18.9022 C.3     1  UNL1        0.4194
     28 F          -8.8162   -6.7749   19.7412 F       1  UNL1       -0.1658
     29 F          -9.5261   -4.7794   19.6236 F       1  UNL1       -0.1658
     30 F         -10.1386   -7.3373   18.1808 F       1  UNL1       -0.1658
@<TRIPOS>BOND
     1    13    14    1
     2    14    15   ar
     3    15    16   ar
     4    16    17   ar
     5    17    18   ar
     6    18     1    1
     7     1     2   ar
     8     2     3   ar
     9     3     4   ar
    10     4     5   ar
    11     5     6    1
    12     6     7    1
    13     7     8    1
    14     8     9   am
    15     9    10    2
    16     9    20    1
    17    20    21   ar
    18    21    22   ar
    19    22    23   ar
    20    23    24   ar
    21    24    27    1
    22    27    28    1
    23    27    29    1
    24    27    30    1
    25    24    25   ar
    26    25    26    1
    27     8    11    1
    28    11    12    1
    29    18    19   ar
    30    19    14   ar
    31     5     1   ar
    32    25    20   ar
    33    11     4    1
@<TRIPOS>MOLECULE
*****
 30 33 0 0 0
SMALL
GASTEIGER

@<TRIPOS>ATOM
      1 N           3.2799   -0.4615   27.7820 N.ar    1  UNL1       -0.1813
      2 N           4.0855   -0.9471   28.9504 N.ar    1  UNL1       -0.0576
      3 N           5.2717   -1.6943   28.4169 N.ar    1  UNL1       -0.1315
      4 C           5.1991   -1.6706   26.9189 C.ar    1  UNL1        0.1138
      5 C           3.9681   -0.9086   26.5265 C.ar    1  UNL1        0.0837
      6 C           3.6329   -0.7204   25.0766 C.3     1  UNL1        0.0688
      7 C           4.5287   -1.2941   24.0190 C.3     1  UNL1        0.1004
      8 N           5.7597   -2.0561   24.4114 N.am    1  UNL1       -0.2719
      9 C           6.6556   -2.6298   23.3540 C.2     1  UNL1        0.2501
     10 O           7.8866   -3.3917   23.7463 O.2     1  UNL1       -0.2699
     11 C           6.0950   -2.2443   25.8614 C.3     1  UNL1        0.1189
     12 C           7.3260   -3.0062   26.2538 C.3     1  UNL1        0.0282
     13 C          -1.6969   -0.0597   29.2208 C.3     1  UNL1        0.0523
     14 C          -0.4793    0.5329   28.5755 C.ar    1  UNL1        0.0640
     15 C          -0.5326    1.9189   28.0044 C.ar    1  UNL1        0.0355
     16 C           0.6850    2.5114   27.3592 C.ar    1  UNL1        0.1033
     17 N           1.9558    1.7179   27.2851 N.ar    1  UNL1       -0.2084
     18 C           2.0090    0.3319   27.8562 C.ar    1  UNL1        0.2538
     19 N           0.7915   -0.2606   28.5014 N.ar    1  UNL1       -0.2143
     20 C           6.3203   -2.4416   21.9041 C.ar    1  UNL1        0.0641
     21 C           7.0947   -1.4588   21.0767 C.ar    1  UNL1        0.0054
     22 C           6.7594   -1.2706   19.6267 C.ar    1  UNL1        0.0001
     23 C           5.6498   -2.0652   19.0043 C.ar    1  UNL1        0.0047
     24 C           4.8755   -3.0479   19.8317 C.ar    1  UNL1        0.0821
     25 C           5.2107   -3.2361   21.2816 C.ar    1  UNL1        0.0659
     26 CL          4.4363   -4.2189   22.1090 Cl      1  UNL1       -0.0822
     27 C           3.7658   -3.8424   19.2092 C.3     1  UNL1        0.4194
     28 F           2.6563   -4.6370   18.5866 F       1  UNL1       -0.1658
     29 F           2.7767   -2.8023   19.6445 F       1  UNL1       -0.1658
     30 F           4.7549   -4.8826   18.7738 F       1  UNL1       -0.1658
@<TRIPOS>BOND
     1    13    14    1
     2    14    15   ar
     3    15    16   ar
     4    16    17   ar
     5    17    18   ar
     6    18     1    1
     7     1     2   ar
     8     2     3   ar
     9     3     4   ar
    10     4     5   ar
    11     5     6    1
    12     6     7    1
    13     7     8    1
    14     8     9   am
    15     9    10    2
    16     9    20    1
    17    20    21   ar
    18    21    22   ar
    19    22    23   ar
    20    23    24   ar
    21    24    27    1
    22    27    28    1
    23    27    29    1
    24    27    30    1
    25    24    25   ar
    26    25    26    1
    27     8    11    1
    28    11    12    1
    29    18    19   ar
    30    19    14   ar
    31     5     1   ar
    32    25    20   ar
    33    11     4    1
@<TRIPOS>MOLECULE
*****
 30 33 0 0 0
SMALL
GASTEIGER

@<TRIPOS>ATOM
      1 N         -18.7120   -5.5709   19.4933 N.ar    1  UNL1       -0.1813
      2 N         -19.4591   -4.4205   20.1002 N.ar    1  UNL1       -0.0576
      3 N         -18.5357   -3.2392   20.1433 N.ar    1  UNL1       -0.1315
      4 C         -17.2179   -3.6595   19.5631 C.ar    1  UNL1        0.1138
      5 C         -17.3268   -5.1006   19.1613 C.ar    1  UNL1        0.0837
      6 C         -16.1507   -5.7984   18.5452 C.3     1  UNL1        0.0688
      7 C         -14.8655   -5.0551   18.3307 C.3     1  UNL1        0.1004
      8 N         -14.7565   -3.6140   18.7325 N.am    1  UNL1       -0.2719
      9 C         -13.4715   -2.8707   18.5181 C.2     1  UNL1        0.2501
     10 O         -13.3625   -1.4296   18.9199 O.2     1  UNL1       -0.2699
     11 C         -15.9328   -2.9162   19.3487 C.3     1  UNL1        0.1189
     12 C         -15.8239   -1.4751   19.7505 C.3     1  UNL1        0.0282
     13 C         -19.6700   -9.5457   16.2866 C.3     1  UNL1        0.0523
     14 C         -19.7337   -8.9370   17.6561 C.ar    1  UNL1        0.0640
     15 C         -20.3401   -9.7070   18.7916 C.ar    1  UNL1        0.0355
     16 C         -20.4038   -9.0982   20.1610 C.ar    1  UNL1        0.1033
     17 N         -19.8611   -7.7195   20.3948 N.ar    1  UNL1       -0.2084
     18 C         -19.2547   -6.9496   19.2593 C.ar    1  UNL1        0.2538
     19 N         -19.1910   -7.5583   17.8899 N.ar    1  UNL1       -0.2143
     20 C         -12.2953   -3.5685   17.9020 C.ar    1  UNL1        0.0641
     21 C         -11.7339   -3.0833   16.5983 C.ar    1  UNL1        0.0054
     22 C         -10.5577   -3.7812   15.9822 C.ar    1  UNL1        0.0001
     23 C          -9.9429   -4.9641   16.6696 C.ar    1  UNL1        0.0047
     24 C         -10.5043   -5.4493   17.9733 C.ar    1  UNL1        0.0821
     25 C         -11.6805   -4.7515   18.5894 C.ar    1  UNL1        0.0659
     26 CL        -12.2419   -5.2366   19.8930 Cl      1  UNL1       -0.0822
     27 C          -9.8895   -6.6323   18.6607 C.3     1  UNL1        0.4194
     28 F          -9.2747   -7.8152   19.3482 F       1  UNL1       -0.1658
     29 F         -10.5762   -7.5510   17.6941 F       1  UNL1       -0.1658
     30 F          -9.2028   -5.7136   19.6273 F       1  UNL1       -0.1658
@<TRIPOS>BOND
     1    13    14    1
     2    14    15   ar
     3    15    16   ar
     4    16    17   ar
     5    17    18   ar
     6    18     1    1
     7     1     2   ar
     8     2     3   ar
     9     3     4   ar
    10     4     5   ar
    11     5     6    1
    12     6     7    1
    13     7     8    1
    14     8     9   am
    15     9    10    2
    16     9    20    1
    17    20    21   ar
    18    21    22   ar
    19    22    23   ar
    20    23    24   ar
    21    24    27    1
    22    27    28    1
    23    27    29    1
    24    27    30    1
    25    24    25   ar
    26    25    26    1
    27     8    11    1
    28    11    12    1
    29    18    19   ar
    30    19    14   ar
    31     5     1   ar
    32    25    20   ar
    33    11     4    1
@<TRIPOS>MOLECULE
*****
 30 33 0 0 0
SMALL
GASTEIGER

@<TRIPOS>ATOM
      1 N           7.7425   -5.9227   27.8481 N.ar    1  UNL1       -0.1813
      2 N           8.4204   -7.2476   27.6612 N.ar    1  UNL1       -0.0576
      3 N           8.6329   -7.4561   26.1910 N.ar    1  UNL1       -0.1315
      4 C           8.0864   -6.2600   25.4694 C.ar    1  UNL1        0.1138
      5 C           7.5360   -5.3123   26.4936 C.ar    1  UNL1        0.0837
      6 C           6.9181   -4.0160   26.0604 C.3     1  UNL1        0.0688
      7 C           6.8504   -3.6674   24.6030 C.3     1  UNL1        0.1004
      8 N           7.4007   -4.6151   23.5788 N.am    1  UNL1       -0.2719
      9 C           7.3331   -4.2665   22.1215 C.2     1  UNL1        0.2501
     10 O           7.8834   -5.2143   21.0973 O.2     1  UNL1       -0.2699
     11 C           8.0187   -5.9115   24.0120 C.3     1  UNL1        0.1189
     12 C           8.5691   -6.8592   22.9879 C.3     1  UNL1        0.0282
     13 C           6.2862   -1.7836   30.6315 C.3     1  UNL1        0.0523
     14 C           6.6133   -3.2453   30.5512 C.ar    1  UNL1        0.0640
     15 C           6.5392   -4.0991   31.7822 C.ar    1  UNL1        0.0355
     16 C           6.8663   -5.5608   31.7019 C.ar    1  UNL1        0.1033
     17 N           7.2674   -6.1686   30.3905 N.ar    1  UNL1       -0.2084
     18 C           7.3414   -5.3148   29.1595 C.ar    1  UNL1        0.2538
     19 N           7.0143   -3.8531   29.2398 N.ar    1  UNL1       -0.2143
     20 C           6.7151   -2.9702   21.6883 C.ar    1  UNL1        0.0641
     21 C           7.5526   -1.7280   21.6138 C.ar    1  UNL1        0.0054
     22 C           6.9345   -0.4317   21.1806 C.ar    1  UNL1        0.0001
     23 C           5.4790   -0.3776   20.8220 C.ar    1  UNL1        0.0047
     24 C           4.6415   -1.6198   20.8965 C.ar    1  UNL1        0.0821
     25 C           5.2595   -2.9161   21.3297 C.ar    1  UNL1        0.0659
     26 CL          4.4221   -4.1583   21.4042 Cl      1  UNL1       -0.0822
     27 C           3.1860   -1.5657   20.5379 C.3     1  UNL1        0.4194
     28 F           1.7306   -1.5116   20.1792 F       1  UNL1       -0.1658
     29 F           2.8511   -1.1968   21.9527 F       1  UNL1       -0.1658
     30 F           3.5209   -1.9346   19.1231 F       1  UNL1       -0.1658
@<TRIPOS>BOND
     1    13    14    1
     2    14    15   ar
     3    15    16   ar
     4    16    17   ar
     5    17    18   ar
     6    18     1    1
     7     1     2   ar
     8     2     3   ar
     9     3     4   ar
    10     4     5   ar
    11     5     6    1
    12     6     7    1
    13     7     8    1
    14     8     9   am
    15     9    10    2
    16     9    20    1
    17    20    21   ar
    18    21    22   ar
    19    22    23   ar
    20    23    24   ar
    21    24    27    1
    22    27    28    1
    23    27    29    1
    24    27    30    1
    25    24    25   ar
    26    25    26    1
    27     8    11    1
    28    11    12    1
    29    18    19   ar
    30    19    14   ar
    31     5     1   ar
    32    25    20   ar
    33    11     4    1
@<TRIPOS>MOLECULE
*****
 30 33 0 0 0
SMALL
GASTEIGER

@<TRIPOS>ATOM
      1 N           0.6920    1.7710   24.5649 N.ar    1  UNL1       -0.1813
      2 N          -0.1047    2.8920   23.9661 N.ar    1  UNL1       -0.0576
      3 N           0.0658    2.8378   22.4768 N.ar    1  UNL1       -0.1315
      4 C           0.9679    1.6834   22.1551 C.ar    1  UNL1        0.1138
      5 C           1.3549    1.0240   23.4457 C.ar    1  UNL1        0.0837
      6 C           2.2609   -0.1713   23.4349 C.3     1  UNL1        0.0688
      7 C           2.7800   -0.7074   22.1336 C.3     1  UNL1        0.1004
      8 N           2.3930   -0.0480   20.8431 N.am    1  UNL1       -0.2719
      9 C           2.9120   -0.5840   19.5418 C.2     1  UNL1        0.2501
     10 O           2.5249    0.0754   18.2513 O.2     1  UNL1       -0.2699
     11 C           1.4869    1.1474   20.8539 C.3     1  UNL1        0.1189
     12 C           1.0998    1.8068   19.5634 C.3     1  UNL1        0.0282
     13 C          -1.4878    0.1931   29.0099 C.3     1  UNL1        0.0523
     14 C          -0.2840    0.6638   28.2488 C.ar    1  UNL1        0.0640
     15 C           1.0337    0.8163   28.9492 C.ar    1  UNL1        0.0355
     16 C           2.2375    1.2870   28.1881 C.ar    1  UNL1        0.1033
     17 N           2.1235    1.6052   26.7266 N.ar    1  UNL1       -0.2084
     18 C           0.8059    1.4527   26.0263 C.ar    1  UNL1        0.2538
     19 N          -0.3979    0.9820   26.7874 N.ar    1  UNL1       -0.2143
     20 C           3.8180   -1.7794   19.5311 C.ar    1  UNL1        0.0641
     21 C           3.2370   -3.1602   19.4544 C.ar    1  UNL1        0.0054
     22 C           4.1432   -4.3556   19.4437 C.ar    1  UNL1        0.0001
     23 C           5.6302   -4.1701   19.5096 C.ar    1  UNL1        0.0047
     24 C           6.2111   -2.7893   19.5863 C.ar    1  UNL1        0.0821
     25 C           5.3051   -1.5940   19.5970 C.ar    1  UNL1        0.0659
     26 CL          5.8860   -0.2132   19.6737 Cl      1  UNL1       -0.0822
     27 C           7.6982   -2.6039   19.6522 C.3     1  UNL1        0.4194
     28 F           9.1852   -2.4185   19.7182 F       1  UNL1       -0.1658
     29 F           7.7441   -2.4416   18.1618 F       1  UNL1       -0.1658
     30 F           7.6523   -2.7663   21.1427 F       1  UNL1       -0.1658
@<TRIPOS>BOND
     1    13    14    1
     2    14    15   ar
     3    15    16   ar
     4    16    17   ar
     5    17    18   ar
     6    18     1    1
     7     1     2   ar
     8     2     3   ar
     9     3     4   ar
    10     4     5   ar
    11     5     6    1
    12     6     7    1
    13     7     8    1
    14     8     9   am
    15     9    10    2
    16     9    20    1
    17    20    21   ar
    18    21    22   ar
    19    22    23   ar
    20    23    24   ar
    21    24    27    1
    22    27    28    1
    23    27    29    1
    24    27    30    1
    25    24    25   ar
    26    25    26    1
    27     8    11    1
    28    11    12    1
    29    18    19   ar
    30    19    14   ar
    31     5     1   ar
    32    25    20   ar
    33    11     4    1
@<TRIPOS>MOLECULE
*****
 30 33 0 0 0
SMALL
GASTEIGER

@<TRIPOS>ATOM
      1 N           3.6046    0.3779   19.8851 N.ar    1  UNL1       -0.1813
      2 N           3.3955    1.6282   19.0831 N.ar    1  UNL1       -0.0576
      3 N           2.8151    2.6704   19.9925 N.ar    1  UNL1       -0.1315
      4 C           2.6655    2.0643   21.3564 C.ar    1  UNL1        0.1138
      5 C           3.1535    0.6474   21.2900 C.ar    1  UNL1        0.0837
      6 C           3.1239   -0.2143   22.5174 C.3     1  UNL1        0.0688
      7 C           2.6064    0.3409   23.8113 C.3     1  UNL1        0.1004
      8 N           2.1185    1.7577   23.8777 N.am    1  UNL1       -0.2719
      9 C           1.6010    2.3129   25.1715 C.2     1  UNL1        0.2501
     10 O           1.1131    3.7298   25.2379 O.2     1  UNL1       -0.2699
     11 C           2.1481    2.6194   22.6502 C.3     1  UNL1        0.1189
     12 C           1.6601    4.0363   22.7166 C.3     1  UNL1        0.0282
     13 C           3.2105   -4.7649   19.2562 C.3     1  UNL1        0.0523
     14 C           3.9693   -3.4863   19.0576 C.ar    1  UNL1        0.0640
     15 C           5.2897   -3.5006   18.3462 C.ar    1  UNL1        0.0355
     16 C           6.0485   -2.2220   18.1476 C.ar    1  UNL1        0.1033
     17 N           5.4867   -0.9292   18.6606 N.ar    1  UNL1       -0.2084
     18 C           4.1663   -0.9149   19.3721 C.ar    1  UNL1        0.2538
     19 N           3.4075   -2.1935   19.5706 N.ar    1  UNL1       -0.2143
     20 C           1.5715    1.4512   26.3989 C.ar    1  UNL1        0.0641
     21 C           2.8302    0.7973   26.8867 C.ar    1  UNL1        0.0054
     22 C           2.8006   -0.0644   28.1142 C.ar    1  UNL1        0.0001
     23 C           1.5123   -0.2722   28.8537 C.ar    1  UNL1        0.0047
     24 C           0.2536    0.3816   28.3659 C.ar    1  UNL1        0.0821
     25 C           0.2831    1.2433   27.1385 C.ar    1  UNL1        0.0659
     26 CL         -0.9757    1.8972   26.6507 Cl      1  UNL1       -0.0822
     27 C          -1.0348    0.1738   29.1056 C.3     1  UNL1        0.4194
     28 F          -2.3231   -0.0341   29.8452 F       1  UNL1       -0.1658
     29 F          -1.4094   -0.9170   28.1465 F       1  UNL1       -0.1658
     30 F          -0.6601    1.2645   30.0646 F       1  UNL1       -0.1658
@<TRIPOS>BOND
     1    13    14    1
     2    14    15   ar
     3    15    16   ar
     4    16    17   ar
     5    17    18   ar
     6    18     1    1
     7     1     2   ar
     8     2     3   ar
     9     3     4   ar
    10     4     5   ar
    11     5     6    1
    12     6     7    1
    13     7     8    1
    14     8     9   am
    15     9    10    2
    16     9    20    1
    17    20    21   ar
    18    21    22   ar
    19    22    23   ar
    20    23    24   ar
    21    24    27    1
    22    27    28    1
    23    27    29    1
    24    27    30    1
    25    24    25   ar
    26    25    26    1
    27     8    11    1
    28    11    12    1
    29    18    19   ar
    30    19    14   ar
    31     5     1   ar
    32    25    20   ar
    33    11     4    1
@<TRIPOS>MOLECULE
*****
 30 33 0 0 0
SMALL
GASTEIGER

@<TRIPOS>ATOM
      1 N           3.3910    0.0969   19.5511 N.ar    1  UNL1       -0.1813
      2 N           4.2130    0.8505   18.5479 N.ar    1  UNL1       -0.0576
      3 N           3.5000    2.1322   18.2335 N.ar    1  UNL1       -0.1315
      4 C           2.2374    2.1708   19.0424 C.ar    1  UNL1        0.1138
      5 C           2.1700    0.9129   19.8567 C.ar    1  UNL1        0.0837
      6 C           1.0056    0.6730   20.7713 C.3     1  UNL1        0.0688
      7 C          -0.0916    1.6910   20.8716 C.3     1  UNL1        0.1004
      8 N          -0.0242    2.9489   20.0572 N.am    1  UNL1       -0.2719
      9 C          -1.1213    3.9669   20.1575 C.2     1  UNL1        0.2501
     10 O          -1.0539    5.2248   19.3432 O.2     1  UNL1       -0.2699
     11 C           1.1403    3.1888   19.1426 C.3     1  UNL1        0.1189
     12 C           1.2077    4.4467   18.3283 C.3     1  UNL1        0.0282
     13 C           4.2646   -4.9927   18.9748 C.3     1  UNL1        0.0523
     14 C           4.1672   -3.7831   19.8564 C.ar    1  UNL1        0.0640
     15 C           4.4092   -3.9086   21.3314 C.ar    1  UNL1        0.0355
     16 C           4.3117   -2.6989   22.2130 C.ar    1  UNL1        0.1033
     17 N           3.9723   -1.3638   21.6195 N.ar    1  UNL1       -0.2084
     18 C           3.7304   -1.2383   20.1445 C.ar    1  UNL1        0.2538
     19 N           3.8278   -2.4479   19.2629 N.ar    1  UNL1       -0.2143
     20 C          -2.2857    3.7270   21.0721 C.ar    1  UNL1        0.0641
     21 C          -3.5750    3.1942   20.5209 C.ar    1  UNL1        0.0054
     22 C          -4.7394    2.9542   21.4355 C.ar    1  UNL1        0.0001
     23 C          -4.6146    3.2472   22.9013 C.ar    1  UNL1        0.0047
     24 C          -3.3253    3.7800   23.4525 C.ar    1  UNL1        0.0821
     25 C          -2.1609    4.0199   22.5379 C.ar    1  UNL1        0.0659
     26 CL         -0.8716    4.5528   23.0891 Cl      1  UNL1       -0.0822
     27 C          -3.2005    4.0730   24.9184 C.3     1  UNL1        0.4194
     28 F          -3.0757    4.3659   26.3842 F       1  UNL1       -0.1658
     29 F          -2.4356    2.7967   25.1084 F       1  UNL1       -0.1658
     30 F          -3.9653    5.3492   24.7284 F       1  UNL1       -0.1658
@<TRIPOS>BOND
     1    13    14    1
     2    14    15   ar
     3    15    16   ar
     4    16    17   ar
     5    17    18   ar
     6    18     1    1
     7     1     2   ar
     8     2     3   ar
     9     3     4   ar
    10     4     5   ar
    11     5     6    1
    12     6     7    1
    13     7     8    1
    14     8     9   am
    15     9    10    2
    16     9    20    1
    17    20    21   ar
    18    21    22   ar
    19    22    23   ar
    20    23    24   ar
    21    24    27    1
    22    27    28    1
    23    27    29    1
    24    27    30    1
    25    24    25   ar
    26    25    26    1
    27     8    11    1
    28    11    12    1
    29    18    19   ar
    30    19    14   ar
    31     5     1   ar
    32    25    20   ar
    33    11     4    1
@<TRIPOS>MOLECULE
*****
 30 33 0 0 0
SMALL
GASTEIGER

@<TRIPOS>ATOM
      1 N           6.6286   -4.2498   23.5712 N.ar    1  UNL1       -0.1813
      2 N           7.5192   -5.0782   22.6934 N.ar    1  UNL1       -0.0576
      3 N           7.2003   -4.7473   21.2655 N.ar    1  UNL1       -0.1315
      4 C           6.1127   -3.7143   21.2608 C.ar    1  UNL1        0.1138
      5 C           5.7593   -3.4068   22.6858 C.ar    1  UNL1        0.0837
      6 C           4.6917   -2.3990   22.9931 C.3     1  UNL1        0.0688
      7 C           3.9774   -1.6986   21.8753 C.3     1  UNL1        0.1004
      8 N           4.3308   -2.0060   20.4503 N.am    1  UNL1       -0.2719
      9 C           3.6166   -1.3057   19.3326 C.2     1  UNL1        0.2501
     10 O           3.9700   -1.6131   17.9076 O.2     1  UNL1       -0.2699
     11 C           5.3985   -3.0139   20.1431 C.3     1  UNL1        0.1189
     12 C           5.7519   -3.3214   18.7181 C.3     1  UNL1        0.0282
     13 C           6.1612   -1.7218   28.0868 C.3     1  UNL1        0.0523
     14 C           6.3767   -2.9982   27.3288 C.ar    1  UNL1        0.0640
     15 C           6.5739   -4.2868   28.0707 C.ar    1  UNL1        0.0355
     16 C           6.7894   -5.5632   27.3128 C.ar    1  UNL1        0.1033
     17 N           6.8076   -5.5508   25.8129 N.ar    1  UNL1       -0.2084
     18 C           6.6103   -4.2621   25.0710 C.ar    1  UNL1        0.2538
     19 N           6.3949   -2.9858   25.8290 N.ar    1  UNL1       -0.2143
     20 C           2.5490   -0.2978   19.6399 C.ar    1  UNL1        0.0641
     21 C           1.2173   -0.7510   20.1605 C.ar    1  UNL1        0.0054
     22 C           0.1496    0.2569   20.4678 C.ar    1  UNL1        0.0001
     23 C           0.4138    1.7179   20.2544 C.ar    1  UNL1        0.0047
     24 C           1.7455    2.1711   19.7337 C.ar    1  UNL1        0.0821
     25 C           2.8131    1.1633   19.4264 C.ar    1  UNL1        0.0659
     26 CL          4.1448    1.6165   18.9058 Cl      1  UNL1       -0.0822
     27 C           2.0096    3.6322   19.5203 C.3     1  UNL1        0.4194
     28 F           2.2736    5.0932   19.3068 F       1  UNL1       -0.1658
     29 F           2.4908    3.7521   20.9359 F       1  UNL1       -0.1658
     30 F           1.5284    3.5124   18.1047 F       1  UNL1       -0.1658
@<TRIPOS>BOND
     1    13    14    1
     2    14    15   ar
     3    15    16   ar
     4    16    17   ar
     5    17    18   ar
     6    18     1    1
     7     1     2   ar
     8     2     3   ar
     9     3     4   ar
    10     4     5   ar
    11     5     6    1
    12     6     7    1
    13     7     8    1
    14     8     9   am
    15     9    10    2
    16     9    20    1
    17    20    21   ar
    18    21    22   ar
    19    22    23   ar
    20    23    24   ar
    21    24    27    1
    22    27    28    1
    23    27    29    1
    24    27    30    1
    25    24    25   ar
    26    25    26    1
    27     8    11    1
    28    11    12    1
    29    18    19   ar
    30    19    14   ar
    31     5     1   ar
    32    25    20   ar
    33    11     4    1
