@<TRIPOS>MOLECULE
*****
 29 32 0 0 0
SMALL
GASTEIGER

@<TRIPOS>ATOM
      1 C          -7.4525  -17.0949   23.8738 C.ar    1  UNL1        0.0712
      2 C          -6.2759  -17.4121   22.9992 C.ar    1  UNL1        0.0073
      3 C          -4.9089  -16.9212   23.3739 C.ar    1  UNL1        0.0422
      4 C          -4.7185  -16.1131   24.6231 C.ar    1  UNL1        0.0028
      5 C          -5.8952  -15.7957   25.4977 C.ar    1  UNL1        0.0177
      6 C          -5.7049  -14.9876   26.7470 C.ar    1  UNL1        0.0031
      7 C          -6.8815  -14.6703   27.6215 C.ar    1  UNL1        0.0207
      8 C          -8.2485  -15.1612   27.2468 C.ar    1  UNL1        0.0988
      9 N          -8.4388  -15.9694   25.9976 N.ar    1  UNL1       -0.2437
     10 C          -7.2622  -16.2866   25.1231 C.ar    1  UNL1        0.0856
     11 N          -9.9860  -16.6430   23.5174 N.am    1  UNL1       -0.2606
     12 C          -8.8195  -17.5857   23.4991 C.2     1  UNL1        0.2524
     13 O          -9.0199  -19.0195   23.1061 O.2     1  UNL1       -0.2697
     14 H          -9.8545  -15.7021   23.7753 H       1  UNL1        0.1571
     15 C         -14.9140  -18.5117   23.8404 C.3     1  UNL1        0.0527
     16 C         -13.6182  -17.9929   23.2912 C.ar    1  UNL1        0.0678
     17 C         -13.2951  -17.7858   21.8411 C.ar    1  UNL1        0.0528
     18 S         -11.8951  -17.2549   21.7494 S.2     1  UNL1       -0.0512
     19 C         -11.3530  -17.1339   23.1427 C.ar    1  UNL1        0.1654
     20 N         -12.4179  -17.5900   24.0956 N.ar    1  UNL1       -0.2283
     21 C          -3.7322  -17.2386   22.4993 C.3     1  UNL1        0.3042
     22 F          -3.2003  -15.8523   22.7120 F       1  UNL1       -0.1947
     23 F          -4.2642  -18.6248   22.2867 F       1  UNL1       -0.1947
     24 C          -2.5557  -17.5559   21.6248 C.ar    1  UNL1        0.0801
     25 C          -2.2387  -18.9814   21.2823 C.ar    1  UNL1        0.1035
     26 N          -1.0620  -19.2989   20.4077 N.ar    1  UNL1       -0.2226
     27 C          -0.2025  -18.1907   19.8756 C.ar    1  UNL1        0.1989
     28 N          -0.5195  -16.7651   20.2181 N.ar    1  UNL1       -0.2226
     29 C          -1.6961  -16.4477   21.0927 C.ar    1  UNL1        0.1035
@<TRIPOS>BOND
     1    15    16    1
     2    16    17   ar
     3    17    18   ar
     4    18    19   ar
     5    19    11    1
     6    11    12   am
     7    12    13    2
     8    12     1    1
     9     1     2   ar
    10     2     3   ar
    11     3    21    1
    12    21    22    1
    13    21    23    1
    14    21    24    1
    15    24    25   ar
    16    25    26   ar
    17    26    27   ar
    18    27    28   ar
    19    28    29   ar
    20     3     4   ar
    21     4     5   ar
    22     5     6   ar
    23     6     7   ar
    24     7     8   ar
    25     8     9   ar
    26     9    10   ar
    27    19    20   ar
    28    20    16   ar
    29    10     1   ar
    30    29    24   ar
    31    10     5   ar
    32    11    14    1
@<TRIPOS>MOLECULE
*****
 29 32 0 0 0
SMALL
GASTEIGER

@<TRIPOS>ATOM
      1 C           3.0873   -0.4785   23.3248 C.ar    1  UNL1        0.0712
      2 C           2.1764    0.4766   22.6121 C.ar    1  UNL1        0.0073
      3 C           1.8718    0.2781   21.1568 C.ar    1  UNL1        0.0422
      4 C           2.4781   -0.8755   20.4143 C.ar    1  UNL1        0.0028
      5 C           3.3891   -1.8307   21.1270 C.ar    1  UNL1        0.0177
      6 C           3.9954   -2.9843   20.3844 C.ar    1  UNL1        0.0031
      7 C           4.9063   -3.9394   21.0971 C.ar    1  UNL1        0.0207
      8 C           5.2108   -3.7409   22.5524 C.ar    1  UNL1        0.0988
      9 N           4.6045   -2.5873   23.2949 N.ar    1  UNL1       -0.2437
     10 C           3.6936   -1.6322   22.5822 C.ar    1  UNL1        0.0856
     11 N           3.4443   -1.4610   25.7033 N.am    1  UNL1       -0.2606
     12 C           3.3918   -0.2800   24.7801 C.2     1  UNL1        0.2524
     13 O           3.6439    1.0997   25.3122 O.2     1  UNL1       -0.2697
     14 H           3.2788   -2.3665   25.3540 H       1  UNL1        0.1571
     15 C           2.8742   -0.5899   30.8799 C.3     1  UNL1        0.0527
     16 C           3.4868   -0.8621   29.5380 C.ar    1  UNL1        0.0678
     17 C           4.9482   -1.0519   29.2581 C.ar    1  UNL1        0.0528
     18 S           5.1101   -1.2994   27.7875 S.2     1  UNL1       -0.0512
     19 C           3.7488   -1.2625   27.1585 C.ar    1  UNL1        0.1654
     20 N           2.7456   -0.9922   28.2404 N.ar    1  UNL1       -0.2283
     21 C           0.9609    1.2333   20.4441 C.3     1  UNL1        0.3042
     22 F           1.9817    2.3215   20.5977 F       1  UNL1       -0.1947
     23 F          -0.0600    0.1451   20.2906 F       1  UNL1       -0.1947
     24 C           0.0499    2.1884   19.7315 C.ar    1  UNL1        0.0801
     25 C           0.3188    2.5563   18.3024 C.ar    1  UNL1        0.1035
     26 N          -0.5922    3.5114   17.5896 N.ar    1  UNL1       -0.2226
     27 C          -1.7719    4.0987   18.3060 C.ar    1  UNL1        0.1989
     28 N          -2.0407    3.7308   19.7352 N.ar    1  UNL1       -0.2226
     29 C          -1.1298    2.7757   20.4479 C.ar    1  UNL1        0.1035
@<TRIPOS>BOND
     1    15    16    1
     2    16    17   ar
     3    17    18   ar
     4    18    19   ar
     5    19    11    1
     6    11    12   am
     7    12    13    2
     8    12     1    1
     9     1     2   ar
    10     2     3   ar
    11     3    21    1
    12    21    22    1
    13    21    23    1
    14    21    24    1
    15    24    25   ar
    16    25    26   ar
    17    26    27   ar
    18    27    28   ar
    19    28    29   ar
    20     3     4   ar
    21     4     5   ar
    22     5     6   ar
    23     6     7   ar
    24     7     8   ar
    25     8     9   ar
    26     9    10   ar
    27    19    20   ar
    28    20    16   ar
    29    10     1   ar
    30    29    24   ar
    31    10     5   ar
    32    11    14    1
@<TRIPOS>MOLECULE
*****
 29 32 0 0 0
SMALL
GASTEIGER

@<TRIPOS>ATOM
      1 C           3.9329   -1.9414   21.6401 C.ar    1  UNL1        0.0712
      2 C           3.0324   -1.1373   22.5303 C.ar    1  UNL1        0.0073
      3 C           2.2644    0.0227   21.9693 C.ar    1  UNL1        0.0422
      4 C           2.3969    0.3786   20.5183 C.ar    1  UNL1        0.0028
      5 C           3.2975   -0.4255   19.6280 C.ar    1  UNL1        0.0177
      6 C           3.4301   -0.0696   18.1769 C.ar    1  UNL1        0.0031
      7 C           4.3306   -0.8737   17.2867 C.ar    1  UNL1        0.0207
      8 C           5.0986   -2.0337   17.8477 C.ar    1  UNL1        0.0988
      9 N           4.9660   -2.3896   19.2987 N.ar    1  UNL1       -0.2437
     10 C           4.0655   -1.5855   20.1889 C.ar    1  UNL1        0.0856
     11 N           5.8665   -2.8584   23.1132 N.am    1  UNL1       -0.2606
     12 C           4.7009   -3.1014   22.2010 C.2     1  UNL1        0.2524
     13 O           4.3031   -4.5044   21.8497 O.2     1  UNL1       -0.2697
     14 H           6.1275   -1.9376   23.3438 H       1  UNL1        0.1571
     15 C           8.8187   -7.2209   23.4786 C.3     1  UNL1        0.0527
     16 C           7.9915   -6.0237   23.8421 C.ar    1  UNL1        0.0678
     17 C           7.6411   -5.5833   25.2325 C.ar    1  UNL1        0.0528
     18 S           6.8024   -4.3440   25.1287 S.2     1  UNL1       -0.0512
     19 C           6.6345   -4.0184   23.6742 C.ar    1  UNL1        0.1654
     20 N           7.3694   -5.0565   22.8790 N.ar    1  UNL1       -0.2283
     21 C           1.3638    0.8268   22.8596 C.3     1  UNL1        0.3042
     22 F           0.7782    1.5036   21.6559 F       1  UNL1       -0.1947
     23 F           1.9494    0.1499   24.0633 F       1  UNL1       -0.1947
     24 C           0.4633    1.6308   23.7498 C.ar    1  UNL1        0.0801
     25 C           0.2126    1.1871   25.1606 C.ar    1  UNL1        0.1035
     26 N          -0.6879    1.9911   26.0509 N.ar    1  UNL1       -0.2226
     27 C          -1.3377    3.2389   25.5304 C.ar    1  UNL1        0.1989
     28 N          -1.0870    3.6826   24.1196 N.ar    1  UNL1       -0.2226
     29 C          -0.1865    2.8785   23.2294 C.ar    1  UNL1        0.1035
@<TRIPOS>BOND
     1    15    16    1
     2    16    17   ar
     3    17    18   ar
     4    18    19   ar
     5    19    11    1
     6    11    12   am
     7    12    13    2
     8    12     1    1
     9     1     2   ar
    10     2     3   ar
    11     3    21    1
    12    21    22    1
    13    21    23    1
    14    21    24    1
    15    24    25   ar
    16    25    26   ar
    17    26    27   ar
    18    27    28   ar
    19    28    29   ar
    20     3     4   ar
    21     4     5   ar
    22     5     6   ar
    23     6     7   ar
    24     7     8   ar
    25     8     9   ar
    26     9    10   ar
    27    19    20   ar
    28    20    16   ar
    29    10     1   ar
    30    29    24   ar
    31    10     5   ar
    32    11    14    1
@<TRIPOS>MOLECULE
*****
 29 32 0 0 0
SMALL
GASTEIGER

@<TRIPOS>ATOM
      1 C           4.1738   -2.0296   21.5561 C.ar    1  UNL1        0.0712
      2 C           3.5283   -1.4266   22.7684 C.ar    1  UNL1        0.0073
      3 C           2.6153   -0.2454   22.6226 C.ar    1  UNL1        0.0422
      4 C           2.3478    0.3328   21.2647 C.ar    1  UNL1        0.0028
      5 C           2.9934   -0.2703   20.0523 C.ar    1  UNL1        0.0177
      6 C           2.7259    0.3079   18.6943 C.ar    1  UNL1        0.0031
      7 C           3.3714   -0.2952   17.4821 C.ar    1  UNL1        0.0207
      8 C           4.2844   -1.4764   17.6278 C.ar    1  UNL1        0.0988
      9 N           4.5519   -2.0545   18.9858 N.ar    1  UNL1       -0.2437
     10 C           3.9064   -1.4515   20.1980 C.ar    1  UNL1        0.0856
     11 N           6.4673   -3.0274   22.2592 N.am    1  UNL1       -0.2606
     12 C           5.0869   -3.2108   21.7019 C.2     1  UNL1        0.2524
     13 O           4.6193   -4.5754   21.2902 O.2     1  UNL1       -0.2697
     14 H           6.7741   -2.1318   22.5294 H       1  UNL1        0.1571
     15 C           8.7058   -7.4499   24.0790 C.3     1  UNL1        0.0527
     16 C           8.4092   -6.2414   23.2414 C.ar    1  UNL1        0.0678
     17 C           9.1613   -5.8111   22.0170 C.ar    1  UNL1        0.0528
     18 S           8.5254   -4.5548   21.5000 S.2     1  UNL1       -0.0512
     19 C           7.3803   -4.2086   22.4049 C.ar    1  UNL1        0.1654
     20 N           7.3085   -5.2510   23.4812 N.ar    1  UNL1       -0.2283
     21 C           1.9698    0.3577   23.8350 C.3     1  UNL1        0.3042
     22 F           1.1522    1.2546   22.9535 F       1  UNL1       -0.1947
     23 F           2.7874   -0.5393   24.7164 F       1  UNL1       -0.1947
     24 C           1.3243    0.9606   25.0473 C.ar    1  UNL1        0.0801
     25 C          -0.0803    1.4811   24.9685 C.ar    1  UNL1        0.1035
     26 N          -0.7258    2.0841   26.1808 N.ar    1  UNL1       -0.2226
     27 C           0.0333    2.1666   27.4719 C.ar    1  UNL1        0.1989
     28 N           1.4380    1.6462   27.5507 N.ar    1  UNL1       -0.2226
     29 C           2.0834    1.0432   26.3384 C.ar    1  UNL1        0.1035
@<TRIPOS>BOND
     1    15    16    1
     2    16    17   ar
     3    17    18   ar
     4    18    19   ar
     5    19    11    1
     6    11    12   am
     7    12    13    2
     8    12     1    1
     9     1     2   ar
    10     2     3   ar
    11     3    21    1
    12    21    22    1
    13    21    23    1
    14    21    24    1
    15    24    25   ar
    16    25    26   ar
    17    26    27   ar
    18    27    28   ar
    19    28    29   ar
    20     3     4   ar
    21     4     5   ar
    22     5     6   ar
    23     6     7   ar
    24     7     8   ar
    25     8     9   ar
    26     9    10   ar
    27    19    20   ar
    28    20    16   ar
    29    10     1   ar
    30    29    24   ar
    31    10     5   ar
    32    11    14    1
@<TRIPOS>MOLECULE
*****
 29 32 0 0 0
SMALL
GASTEIGER

@<TRIPOS>ATOM
      1 C           6.8309   -4.1233   24.5197 C.ar    1  UNL1        0.0712
      2 C           6.5362   -3.6280   25.9045 C.ar    1  UNL1        0.0073
      3 C           7.1068   -4.3422   27.0938 C.ar    1  UNL1        0.0422
      4 C           7.9722   -5.5516   26.8982 C.ar    1  UNL1        0.0028
      5 C           8.2670   -6.0470   25.5133 C.ar    1  UNL1        0.0177
      6 C           9.1324   -7.2564   25.3178 C.ar    1  UNL1        0.0031
      7 C           9.4271   -7.7517   23.9330 C.ar    1  UNL1        0.0207
      8 C           8.8565   -7.0375   22.7437 C.ar    1  UNL1        0.0988
      9 N           7.9911   -5.8281   22.9393 N.ar    1  UNL1       -0.2437
     10 C           7.6963   -5.3328   24.3241 C.ar    1  UNL1        0.0856
     11 N           5.0997   -4.0003   22.5863 N.am    1  UNL1       -0.2606
     12 C           6.2603   -3.4091   23.3304 C.2     1  UNL1        0.2524
     13 O           6.8502   -2.1038   22.8853 O.2     1  UNL1       -0.2697
     14 H           4.7126   -4.8570   22.8785 H       1  UNL1        0.1571
     15 C           2.5014   -0.5100   19.5951 C.3     1  UNL1        0.0527
     16 C           3.3348   -1.6818   20.0221 C.ar    1  UNL1        0.0678
     17 C           3.9671   -2.6925   19.1118 C.ar    1  UNL1        0.0528
     18 S           4.7052   -3.6840   19.9616 S.2     1  UNL1       -0.0512
     19 C           4.5291   -3.2861   21.3971 C.ar    1  UNL1        0.1654
     20 N           3.6821   -2.0487   21.4345 N.ar    1  UNL1       -0.2283
     21 C           6.8120   -3.8468   28.4787 C.3     1  UNL1        0.3042
     22 F           6.1167   -5.1382   28.7926 F       1  UNL1       -0.1947
     23 F           7.5074   -2.5554   28.1647 F       1  UNL1       -0.1947
     24 C           6.5173   -3.3514   29.8634 C.ar    1  UNL1        0.0801
     25 C           5.9979   -1.9591   30.0671 C.ar    1  UNL1        0.1035
     26 N           5.7031   -1.4636   31.4520 N.ar    1  UNL1       -0.2226
     27 C           5.9277   -2.3606   32.6331 C.ar    1  UNL1        0.1989
     28 N           6.4472   -3.7530   32.4293 N.ar    1  UNL1       -0.2226
     29 C           6.7419   -4.2484   31.0445 C.ar    1  UNL1        0.1035
@<TRIPOS>BOND
     1    15    16    1
     2    16    17   ar
     3    17    18   ar
     4    18    19   ar
     5    19    11    1
     6    11    12   am
     7    12    13    2
     8    12     1    1
     9     1     2   ar
    10     2     3   ar
    11     3    21    1
    12    21    22    1
    13    21    23    1
    14    21    24    1
    15    24    25   ar
    16    25    26   ar
    17    26    27   ar
    18    27    28   ar
    19    28    29   ar
    20     3     4   ar
    21     4     5   ar
    22     5     6   ar
    23     6     7   ar
    24     7     8   ar
    25     8     9   ar
    26     9    10   ar
    27    19    20   ar
    28    20    16   ar
    29    10     1   ar
    30    29    24   ar
    31    10     5   ar
    32    11    14    1
@<TRIPOS>MOLECULE
*****
 29 32 0 0 0
SMALL
GASTEIGER

@<TRIPOS>ATOM
      1 C          -0.2313    2.1893   21.3076 C.ar    1  UNL1        0.0712
      2 C           0.7026    1.2969   20.5451 C.ar    1  UNL1        0.0073
      3 C           1.6740    0.4232   21.2820 C.ar    1  UNL1        0.0422
      4 C           1.7114    0.4417   22.7814 C.ar    1  UNL1        0.0028
      5 C           0.7774    1.3341   23.5440 C.ar    1  UNL1        0.0177
      6 C           0.8148    1.3526   25.0434 C.ar    1  UNL1        0.0031
      7 C          -0.1191    2.2450   25.8059 C.ar    1  UNL1        0.0207
      8 C          -1.0905    3.1188   25.0690 C.ar    1  UNL1        0.0988
      9 N          -1.1279    3.1002   23.5696 N.ar    1  UNL1       -0.2437
     10 C          -0.1939    2.2079   22.8071 C.ar    1  UNL1        0.0856
     11 N          -2.6778    2.8350   20.7182 N.am    1  UNL1       -0.2606
     12 C          -1.2027    3.0631   20.5708 C.2     1  UNL1        0.2524
     13 O          -0.6987    4.1649   19.6864 O.2     1  UNL1       -0.2697
     14 H          -3.0086    2.1118   21.2986 H       1  UNL1        0.1571
     15 C          -5.4651    5.0864   16.8397 C.3     1  UNL1        0.0527
     16 C          -4.9304    4.7437   18.1985 C.ar    1  UNL1        0.0678
     17 C          -5.3575    5.3632   19.4961 C.ar    1  UNL1        0.0528
     18 S          -4.5657    4.7236   20.5979 S.2     1  UNL1       -0.0512
     19 C          -3.6492    3.7088   19.9813 C.ar    1  UNL1        0.1654
     20 N          -3.8746    3.7212   18.4984 N.ar    1  UNL1       -0.2283
     21 C           2.6079   -0.4692   20.5194 C.3     1  UNL1        0.3042
     22 F           1.4424   -1.2894   20.0517 F       1  UNL1       -0.1947
     23 F           3.7734    0.3510   20.9872 F       1  UNL1       -0.1947
     24 C           3.5419   -1.3615   19.7569 C.ar    1  UNL1        0.0801
     25 C           4.1029   -2.5910   20.4076 C.ar    1  UNL1        0.1035
     26 N           5.0369   -3.4834   19.6451 N.ar    1  UNL1       -0.2226
     27 C           5.4099   -3.1462   18.2319 C.ar    1  UNL1        0.1989
     28 N           4.8488   -1.9166   17.5812 N.ar    1  UNL1       -0.2226
     29 C           3.9148   -1.0243   18.3437 C.ar    1  UNL1        0.1035
@<TRIPOS>BOND
     1    15    16    1
     2    16    17   ar
     3    17    18   ar
     4    18    19   ar
     5    19    11    1
     6    11    12   am
     7    12    13    2
     8    12     1    1
     9     1     2   ar
    10     2     3   ar
    11     3    21    1
    12    21    22    1
    13    21    23    1
    14    21    24    1
    15    24    25   ar
    16    25    26   ar
    17    26    27   ar
    18    27    28   ar
    19    28    29   ar
    20     3     4   ar
    21     4     5   ar
    22     5     6   ar
    23     6     7   ar
    24     7     8   ar
    25     8     9   ar
    26     9    10   ar
    27    19    20   ar
    28    20    16   ar
    29    10     1   ar
    30    29    24   ar
    31    10     5   ar
    32    11    14    1
@<TRIPOS>MOLECULE
*****
 29 32 0 0 0
SMALL
GASTEIGER

@<TRIPOS>ATOM
      1 C           1.7643    0.8986   24.4235 C.ar    1  UNL1        0.0712
      2 C           2.5262   -0.0858   23.5866 C.ar    1  UNL1        0.0073
      3 C           2.2492   -0.1930   22.1163 C.ar    1  UNL1        0.0422
      4 C           1.2103    0.6841   21.4829 C.ar    1  UNL1        0.0028
      5 C           0.4483    1.6685   22.3198 C.ar    1  UNL1        0.0177
      6 C          -0.5907    2.5456   21.6864 C.ar    1  UNL1        0.0031
      7 C          -1.3526    3.5300   22.5233 C.ar    1  UNL1        0.0207
      8 C          -1.0756    3.6372   23.9936 C.ar    1  UNL1        0.0988
      9 N          -0.0367    2.7601   24.6270 N.ar    1  UNL1       -0.2437
     10 C           0.7253    1.7758   23.7901 C.ar    1  UNL1        0.0856
     11 N           1.0107    0.5550   26.8860 N.am    1  UNL1       -0.2606
     12 C           2.0413    1.0058   25.8938 C.2     1  UNL1        0.2524
     13 O           3.3490    1.5640   26.3719 O.2     1  UNL1       -0.2697
     14 H           0.1524    0.1887   26.5722 H       1  UNL1        0.1571
     15 C           1.0093    2.2535   31.8856 C.3     1  UNL1        0.0527
     16 C           1.2871    1.4429   30.6544 C.ar    1  UNL1        0.0678
     17 C           2.1408    0.2116   30.5834 C.ar    1  UNL1        0.0528
     18 S           2.1411   -0.2708   29.1631 S.2     1  UNL1       -0.0512
     19 C           1.2877    0.6623   28.3563 C.ar    1  UNL1        0.1654
     20 N           0.7598    1.7214   29.2780 N.ar    1  UNL1       -0.2283
     21 C           3.0112   -1.1774   21.2794 C.3     1  UNL1        0.3042
     22 F           1.8687   -1.2373   20.3094 F       1  UNL1       -0.1947
     23 F           4.1538   -1.1176   22.2494 F       1  UNL1       -0.1947
     24 C           3.7732   -2.1618   20.4426 C.ar    1  UNL1        0.0801
     25 C           4.3252   -3.4086   21.0676 C.ar    1  UNL1        0.1035
     26 N           5.0873   -4.3931   20.2308 N.ar    1  UNL1       -0.2226
     27 C           5.2973   -4.1306   18.7689 C.ar    1  UNL1        0.1989
     28 N           4.7453   -2.8837   18.1439 N.ar    1  UNL1       -0.2226
     29 C           3.9833   -1.8993   18.9807 C.ar    1  UNL1        0.1035
@<TRIPOS>BOND
     1    15    16    1
     2    16    17   ar
     3    17    18   ar
     4    18    19   ar
     5    19    11    1
     6    11    12   am
     7    12    13    2
     8    12     1    1
     9     1     2   ar
    10     2     3   ar
    11     3    21    1
    12    21    22    1
    13    21    23    1
    14    21    24    1
    15    24    25   ar
    16    25    26   ar
    17    26    27   ar
    18    27    28   ar
    19    28    29   ar
    20     3     4   ar
    21     4     5   ar
    22     5     6   ar
    23     6     7   ar
    24     7     8   ar
    25     8     9   ar
    26     9    10   ar
    27    19    20   ar
    28    20    16   ar
    29    10     1   ar
    30    29    24   ar
    31    10     5   ar
    32    11    14    1
@<TRIPOS>MOLECULE
*****
 29 32 0 0 0
SMALL
GASTEIGER

@<TRIPOS>ATOM
      1 C           4.4560   -1.8882   22.5753 C.ar    1  UNL1        0.0712
      2 C           3.4039   -0.8267   22.7023 C.ar    1  UNL1        0.0073
      3 C           2.4452   -0.5822   21.5748 C.ar    1  UNL1        0.0422
      4 C           2.5387   -1.3993   20.3204 C.ar    1  UNL1        0.0028
      5 C           3.5909   -2.4608   20.1934 C.ar    1  UNL1        0.0177
      6 C           3.6844   -3.2779   18.9389 C.ar    1  UNL1        0.0031
      7 C           4.7365   -4.3394   18.8120 C.ar    1  UNL1        0.0207
      8 C           5.6952   -4.5838   19.9395 C.ar    1  UNL1        0.0988
      9 N           5.6017   -3.7668   21.1939 N.ar    1  UNL1       -0.2437
     10 C           4.5496   -2.7053   21.3208 C.ar    1  UNL1        0.0856
     11 N           5.6282   -3.5254   24.2171 N.am    1  UNL1       -0.2606
     12 C           5.4147   -2.1326   23.7028 C.2     1  UNL1        0.2524
     13 O           6.1599   -0.9842   24.3160 O.2     1  UNL1       -0.2697
     14 H           5.1391   -4.2791   23.8147 H       1  UNL1        0.1571
     15 C           7.8255   -3.5791   29.0181 C.3     1  UNL1        0.0527
     16 C           7.5969   -3.7946   27.5514 C.ar    1  UNL1        0.0678
     17 C           8.5272   -4.4976   26.6079 C.ar    1  UNL1        0.0528
     18 S           7.9030   -4.4823   25.2441 S.2     1  UNL1       -0.0512
     19 C           6.5868   -3.7699   25.3446 C.ar    1  UNL1        0.1654
     20 N           6.3976   -3.3448   26.7706 N.ar    1  UNL1       -0.2283
     21 C           1.3930    0.4793   21.7018 C.3     1  UNL1        0.3042
     22 F           2.2029    1.1545   22.7687 F       1  UNL1       -0.1947
     23 F           0.5832   -0.1958   20.6349 F       1  UNL1       -0.1947
     24 C           0.3409    1.5408   21.8288 C.ar    1  UNL1        0.0801
     25 C           0.1958    2.3032   23.1124 C.ar    1  UNL1        0.1035
     26 N          -0.8564    3.3648   23.2394 N.ar    1  UNL1       -0.2226
     27 C          -1.7635    3.6638   22.0828 C.ar    1  UNL1        0.1989
     28 N          -1.6184    2.9014   20.7991 N.ar    1  UNL1       -0.2226
     29 C          -0.5662    1.8399   20.6722 C.ar    1  UNL1        0.1035
@<TRIPOS>BOND
     1    15    16    1
     2    16    17   ar
     3    17    18   ar
     4    18    19   ar
     5    19    11    1
     6    11    12   am
     7    12    13    2
     8    12     1    1
     9     1     2   ar
    10     2     3   ar
    11     3    21    1
    12    21    22    1
    13    21    23    1
    14    21    24    1
    15    24    25   ar
    16    25    26   ar
    17    26    27   ar
    18    27    28   ar
    19    28    29   ar
    20     3     4   ar
    21     4     5   ar
    22     5     6   ar
    23     6     7   ar
    24     7     8   ar
    25     8     9   ar
    26     9    10   ar
    27    19    20   ar
    28    20    16   ar
    29    10     1   ar
    30    29    24   ar
    31    10     5   ar
    32    11    14    1
@<TRIPOS>MOLECULE
*****
 29 32 0 0 0
SMALL
GASTEIGER

@<TRIPOS>ATOM
      1 C           5.0958   -3.0688   23.3102 C.ar    1  UNL1        0.0712
      2 C           4.4726   -2.0261   24.1900 C.ar    1  UNL1        0.0073
      3 C           3.4779   -1.0596   23.6186 C.ar    1  UNL1        0.0422
      4 C           3.1064   -1.1358   22.1674 C.ar    1  UNL1        0.0028
      5 C           3.7297   -2.1786   21.2875 C.ar    1  UNL1        0.0177
      6 C           3.3582   -2.2549   19.8362 C.ar    1  UNL1        0.0031
      7 C           3.9814   -3.2977   18.9564 C.ar    1  UNL1        0.0207
      8 C           4.9761   -4.2642   19.5278 C.ar    1  UNL1        0.0988
      9 N           5.3476   -4.1879   20.9790 N.ar    1  UNL1       -0.2437
     10 C           4.7243   -3.1451   21.8589 C.ar    1  UNL1        0.0856
     11 N           6.1897   -4.2191   25.3669 N.am    1  UNL1       -0.2606
     12 C           6.0905   -4.0353   23.8816 C.2     1  UNL1        0.2524
     13 O           6.9860   -4.8181   22.9675 O.2     1  UNL1       -0.2697
     14 H           5.6019   -3.7053   25.9668 H       1  UNL1        0.1571
     15 C           8.3720   -8.6141   27.3168 C.3     1  UNL1        0.0527
     16 C           8.1875   -7.2058   26.8346 C.ar    1  UNL1        0.0678
     17 C           9.2425   -6.1400   26.8007 C.ar    1  UNL1        0.0528
     18 S           8.6225   -4.8915   26.2468 S.2     1  UNL1       -0.0512
     19 C           7.1843   -5.1856   25.9383 C.ar    1  UNL1        0.1654
     20 N           6.9155   -6.6159   26.3016 N.ar    1  UNL1       -0.2283
     21 C           2.8547   -0.0167   24.4986 C.3     1  UNL1        0.3042
     22 F           3.6079   -0.5603   25.6763 F       1  UNL1       -0.1947
     23 F           2.1015    0.5268   23.3208 F       1  UNL1       -0.1947
     24 C           2.2314    1.0260   25.3784 C.ar    1  UNL1        0.0801
     25 C           2.3227    0.9006   26.8703 C.ar    1  UNL1        0.1035
     26 N           1.6995    1.9434   27.7502 N.ar    1  UNL1       -0.2226
     27 C           0.9850    3.1116   27.1382 C.ar    1  UNL1        0.1989
     28 N           0.8937    3.2371   25.6462 N.ar    1  UNL1       -0.2226
     29 C           1.5169    2.1943   24.7663 C.ar    1  UNL1        0.1035
@<TRIPOS>BOND
     1    15    16    1
     2    16    17   ar
     3    17    18   ar
     4    18    19   ar
     5    19    11    1
     6    11    12   am
     7    12    13    2
     8    12     1    1
     9     1     2   ar
    10     2     3   ar
    11     3    21    1
    12    21    22    1
    13    21    23    1
    14    21    24    1
    15    24    25   ar
    16    25    26   ar
    17    26    27   ar
    18    27    28   ar
    19    28    29   ar
    20     3     4   ar
    21     4     5   ar
    22     5     6   ar
    23     6     7   ar
    24     7     8   ar
    25     8     9   ar
    26     9    10   ar
    27    19    20   ar
    28    20    16   ar
    29    10     1   ar
    30    29    24   ar
    31    10     5   ar
    32    11    14    1
