@<TRIPOS>MOLECULE
*****
 27 30 0 0 0
SMALL
GASTEIGER

@<TRIPOS>ATOM
      1 N          -7.7998  -17.4152   22.7331 N.ar    1  UNL1       -0.2189
      2 N          -6.3340  -17.0976   22.7095 N.ar    1  UNL1       -0.1709
      3 C          -5.7029  -16.3823   23.8670 C.ar    1  UNL1        0.0832
      4 C          -6.5376  -15.9844   25.0482 C.ar    1  UNL1        0.0202
      5 C          -5.9065  -15.2690   26.2057 C.ar    1  UNL1        0.0014
      6 C          -6.7412  -14.8712   27.3867 C.ar    1  UNL1        0.0000
      7 C          -8.2070  -15.1888   27.4103 C.ar    1  UNL1        0.0002
      8 C          -8.8381  -15.9042   26.2528 C.ar    1  UNL1        0.0048
      9 C          -8.0034  -16.3020   25.0717 C.ar    1  UNL1        0.0588
     10 C          -8.6345  -17.0174   23.9141 C.ar    1  UNL1        0.2762
     11 O         -10.1003  -17.3350   23.9377 O.2     1  UNL1       -0.2655
     12 C          -9.1820  -21.0278   17.7662 C.3     1  UNL1        0.0896
     13 N          -9.1709  -20.0648   18.9162 N.3     1  UNL1       -0.2714
     14 C         -10.4557  -19.3310   19.1631 C.3     1  UNL1        0.0722
     15 C         -10.7633  -18.3142   20.2221 C.3     1  UNL1        0.0193
     16 C          -9.8622  -17.7799   21.2957 C.3     1  UNL1        0.0259
     17 C          -8.4309  -18.1307   21.5755 C.3     1  UNL1        0.1098
     18 C          -7.5472  -19.1022   20.8508 C.3     1  UNL1        0.0418
     19 C          -7.8764  -19.9630   19.6673 C.3     1  UNL1        0.0741
     20 C          -4.2371  -16.0647   23.8434 C.3     1  UNL1        0.0738
     21 C          -3.3380  -16.7452   22.8542 C.ar    1  UNL1       -0.0161
     22 C          -2.4675  -15.9282   21.9460 C.ar    1  UNL1       -0.0030
     23 C          -1.5685  -16.6087   20.9568 C.ar    1  UNL1        0.0111
     24 C          -1.5399  -18.1062   20.8757 C.ar    1  UNL1        0.0577
     25 CL         -0.6409  -18.7868   19.8865 Cl      1  UNL1       -0.0822
     26 C          -2.4104  -18.9232   21.7839 C.ar    1  UNL1        0.0111
     27 C          -3.3095  -18.2427   22.7731 C.ar    1  UNL1       -0.0030
@<TRIPOS>BOND
     1    12    13    1
     2    13    14    1
     3    14    15    1
     4    15    16    1
     5    16    17    1
     6    17     1    1
     7     1     2   ar
     8     2     3   ar
     9     3    20    1
    10    20    21    1
    11    21    22   ar
    12    22    23   ar
    13    23    24   ar
    14    24    25    1
    15    24    26   ar
    16    26    27   ar
    17     3     4   ar
    18     4     5   ar
    19     5     6   ar
    20     6     7   ar
    21     7     8   ar
    22     8     9   ar
    23     9    10   ar
    24    10    11    2
    25    17    18    1
    26    18    19    1
    27    19    13    1
    28    10     1   ar
    29    27    21   ar
    30     9     4   ar
@<TRIPOS>MOLECULE
*****
 27 30 0 0 0
SMALL
GASTEIGER

@<TRIPOS>ATOM
      1 N          -7.4051  -17.8105   22.5622 N.ar    1  UNL1       -0.2189
      2 N          -6.2155  -18.5352   22.0057 N.ar    1  UNL1       -0.1709
      3 C          -6.3639  -19.3931   20.7843 C.ar    1  UNL1        0.0832
      4 C          -7.7019  -19.5264   20.1194 C.ar    1  UNL1        0.0202
      5 C          -7.8503  -20.3844   18.8980 C.ar    1  UNL1        0.0014
      6 C          -9.1882  -20.5176   18.2331 C.ar    1  UNL1        0.0000
      7 C         -10.3778  -19.7930   18.7897 C.ar    1  UNL1        0.0002
      8 C         -10.2294  -18.9350   20.0111 C.ar    1  UNL1        0.0048
      9 C          -8.8915  -18.8017   20.6759 C.ar    1  UNL1        0.0588
     10 C          -8.7430  -17.9437   21.8974 C.ar    1  UNL1        0.2762
     11 O          -9.9326  -17.2190   22.4539 O.2     1  UNL1       -0.2655
     12 C          -8.1049  -14.6237   27.9461 C.3     1  UNL1        0.0896
     13 N          -7.6313  -15.2463   26.6661 N.3     1  UNL1       -0.2714
     14 C          -6.2318  -14.8997   26.2526 C.3     1  UNL1        0.0722
     15 C          -5.4752  -15.3544   25.0399 C.3     1  UNL1        0.0193
     16 C          -5.9313  -16.2680   23.9410 C.3     1  UNL1        0.0259
     17 C          -7.2566  -16.9525   23.7837 C.3     1  UNL1        0.1098
     18 C          -8.4532  -16.8925   24.6862 C.3     1  UNL1        0.0418
     19 C          -8.6201  -16.1332   25.9690 C.3     1  UNL1        0.0741
     20 C          -5.1743  -20.1178   20.2277 C.3     1  UNL1        0.0738
     21 C          -3.8349  -19.4436   20.1914 C.ar    1  UNL1       -0.0161
     22 C          -3.4694  -18.5634   19.0330 C.ar    1  UNL1       -0.0030
     23 C          -2.1300  -17.8892   18.9967 C.ar    1  UNL1        0.0111
     24 C          -1.1560  -18.0952   20.1187 C.ar    1  UNL1        0.0577
     25 CL          0.1835  -17.4210   20.0823 Cl      1  UNL1       -0.0822
     26 C          -1.5214  -18.9754   21.2770 C.ar    1  UNL1        0.0111
     27 C          -2.8609  -19.6496   21.3134 C.ar    1  UNL1       -0.0030
@<TRIPOS>BOND
     1    12    13    1
     2    13    14    1
     3    14    15    1
     4    15    16    1
     5    16    17    1
     6    17     1    1
     7     1     2   ar
     8     2     3   ar
     9     3    20    1
    10    20    21    1
    11    21    22   ar
    12    22    23   ar
    13    23    24   ar
    14    24    25    1
    15    24    26   ar
    16    26    27   ar
    17     3     4   ar
    18     4     5   ar
    19     5     6   ar
    20     6     7   ar
    21     7     8   ar
    22     8     9   ar
    23     9    10   ar
    24    10    11    2
    25    17    18    1
    26    18    19    1
    27    19    13    1
    28    10     1   ar
    29    27    21   ar
    30     9     4   ar
@<TRIPOS>MOLECULE
*****
 27 30 0 0 0
SMALL
GASTEIGER

@<TRIPOS>ATOM
      1 N          -5.2328  -17.0286   23.2249 N.ar    1  UNL1       -0.2189
      2 N          -6.5194  -16.8129   22.4846 N.ar    1  UNL1       -0.1709
      3 C          -7.7153  -16.2627   23.2037 C.ar    1  UNL1        0.0832
      4 C          -7.6246  -15.9282   24.6632 C.ar    1  UNL1        0.0202
      5 C          -8.8205  -15.3780   25.3823 C.ar    1  UNL1        0.0014
      6 C          -8.7297  -15.0435   26.8416 C.ar    1  UNL1        0.0000
      7 C          -7.4431  -15.2592   27.5819 C.ar    1  UNL1        0.0002
      8 C          -6.2472  -15.8094   26.8628 C.ar    1  UNL1        0.0048
      9 C          -6.3379  -16.1439   25.4035 C.ar    1  UNL1        0.0588
     10 C          -5.1420  -16.6941   24.6843 C.ar    1  UNL1        0.2762
     11 O          -3.8554  -16.9098   25.4246 O.2     1  UNL1       -0.2655
     12 C           0.1757  -17.9840   20.1481 C.3     1  UNL1        0.0896
     13 N          -1.1412  -18.0903   20.8585 N.3     1  UNL1       -0.2714
     14 C          -1.6930  -19.4776   21.0022 C.3     1  UNL1        0.0722
     15 C          -2.9720  -19.9125   21.6541 C.3     1  UNL1        0.0193
     16 C          -4.0152  -19.0674   22.3233 C.3     1  UNL1        0.0259
     17 C          -4.0369  -17.5788   22.5057 C.3     1  UNL1        0.1098
     18 C          -3.0208  -16.5675   22.0642 C.3     1  UNL1        0.0418
     19 C          -1.7321  -16.7950   21.3311 C.3     1  UNL1        0.0741
     20 C          -9.0019  -16.0470   22.4634 C.3     1  UNL1        0.0738
     21 C         -10.2669  -16.6847   22.9564 C.ar    1  UNL1       -0.0161
     22 C         -11.5953  -16.0758   22.6177 C.ar    1  UNL1       -0.0030
     23 C         -12.8602  -16.7135   23.1107 C.ar    1  UNL1        0.0111
     24 C         -12.7969  -17.9602   23.9425 C.ar    1  UNL1        0.0577
     25 CL        -14.0619  -18.5979   24.4355 Cl      1  UNL1       -0.0822
     26 C         -11.4686  -18.5691   24.2812 C.ar    1  UNL1        0.0111
     27 C         -10.2036  -17.9314   23.7882 C.ar    1  UNL1       -0.0030
@<TRIPOS>BOND
     1    12    13    1
     2    13    14    1
     3    14    15    1
     4    15    16    1
     5    16    17    1
     6    17     1    1
     7     1     2   ar
     8     2     3   ar
     9     3    20    1
    10    20    21    1
    11    21    22   ar
    12    22    23   ar
    13    23    24   ar
    14    24    25    1
    15    24    26   ar
    16    26    27   ar
    17     3     4   ar
    18     4     5   ar
    19     5     6   ar
    20     6     7   ar
    21     7     8   ar
    22     8     9   ar
    23     9    10   ar
    24    10    11    2
    25    17    18    1
    26    18    19    1
    27    19    13    1
    28    10     1   ar
    29    27    21   ar
    30     9     4   ar
@<TRIPOS>MOLECULE
*****
 27 30 0 0 0
SMALL
GASTEIGER

@<TRIPOS>ATOM
      1 N         -14.8604   -6.9707   18.7792 N.ar    1  UNL1       -0.2189
      2 N         -14.7666   -5.6691   19.5187 N.ar    1  UNL1       -0.1709
      3 C         -13.4329   -5.0103   19.7114 C.ar    1  UNL1        0.0832
      4 C         -12.1928   -5.6531   19.1644 C.ar    1  UNL1        0.0202
      5 C         -10.8591   -4.9943   19.3570 C.ar    1  UNL1        0.0014
      6 C          -9.6192   -5.6371   18.8100 C.ar    1  UNL1        0.0000
      7 C          -9.7129   -6.9388   18.0705 C.ar    1  UNL1        0.0002
      8 C         -11.0466   -7.5976   17.8778 C.ar    1  UNL1        0.0048
      9 C         -12.2866   -6.9547   18.4248 C.ar    1  UNL1        0.0588
     10 C         -13.6204   -7.6135   18.2322 C.ar    1  UNL1        0.2762
     11 O         -13.7141   -8.9151   17.4926 O.2     1  UNL1       -0.2655
     12 C         -20.3785   -9.1613   16.6857 C.3     1  UNL1        0.0896
     13 N         -19.1485   -8.8023   17.4657 N.3     1  UNL1       -0.2714
     14 C         -19.0834   -9.3428   18.8634 C.3     1  UNL1        0.0722
     15 C         -18.0001   -9.1648   19.8854 C.3     1  UNL1        0.0193
     16 C         -16.7142   -8.4023   19.7623 C.3     1  UNL1        0.0259
     17 C         -16.1942   -7.6295   18.5865 C.3     1  UNL1        0.1098
     18 C         -16.8315   -7.4283   17.2437 C.3     1  UNL1        0.0418
     19 C         -18.1463   -7.9502   16.7448 C.3     1  UNL1        0.0741
     20 C         -13.3391   -3.7086   20.4509 C.3     1  UNL1        0.0738
     21 C         -13.5230   -2.4138   19.7165 C.ar    1  UNL1       -0.0161
     22 C         -12.3693   -1.7978   18.9819 C.ar    1  UNL1       -0.0030
     23 C         -12.5532   -0.5029   18.2475 C.ar    1  UNL1        0.0111
     24 C         -13.8907    0.1760   18.2475 C.ar    1  UNL1        0.0577
     25 CL        -14.0746    1.4709   17.5131 Cl      1  UNL1       -0.0822
     26 C         -15.0444   -0.4399   18.9821 C.ar    1  UNL1        0.0111
     27 C         -14.8606   -1.7349   19.7166 C.ar    1  UNL1       -0.0030
@<TRIPOS>BOND
     1    12    13    1
     2    13    14    1
     3    14    15    1
     4    15    16    1
     5    16    17    1
     6    17     1    1
     7     1     2   ar
     8     2     3   ar
     9     3    20    1
    10    20    21    1
    11    21    22   ar
    12    22    23   ar
    13    23    24   ar
    14    24    25    1
    15    24    26   ar
    16    26    27   ar
    17     3     4   ar
    18     4     5   ar
    19     5     6   ar
    20     6     7   ar
    21     7     8   ar
    22     8     9   ar
    23     9    10   ar
    24    10    11    2
    25    17    18    1
    26    18    19    1
    27    19    13    1
    28    10     1   ar
    29    27    21   ar
    30     9     4   ar
@<TRIPOS>MOLECULE
*****
 27 30 0 0 0
SMALL
GASTEIGER

@<TRIPOS>ATOM
      1 N          -5.1713  -16.9304   23.4332 N.ar    1  UNL1       -0.2189
      2 N          -6.5135  -16.8012   22.7760 N.ar    1  UNL1       -0.1709
      3 C          -7.6897  -16.3054   23.5638 C.ar    1  UNL1        0.0832
      4 C          -7.5238  -15.9388   25.0089 C.ar    1  UNL1        0.0202
      5 C          -8.7000  -15.4431   25.7967 C.ar    1  UNL1        0.0014
      6 C          -8.5341  -15.0765   27.2417 C.ar    1  UNL1        0.0000
      7 C          -7.1919  -15.2057   27.8989 C.ar    1  UNL1        0.0002
      8 C          -6.0157  -15.7015   27.1111 C.ar    1  UNL1        0.0048
      9 C          -6.1816  -16.0680   25.6661 C.ar    1  UNL1        0.0588
     10 C          -5.0054  -16.5638   24.8782 C.ar    1  UNL1        0.2762
     11 O          -3.6632  -16.6930   25.5354 O.2     1  UNL1       -0.2655
     12 C           0.1211  -17.6472   20.1004 C.3     1  UNL1        0.0896
     13 N          -1.1616  -17.8099   20.8610 N.3     1  UNL1       -0.2714
     14 C          -1.6752  -19.2144   20.9779 C.3     1  UNL1        0.0722
     15 C          -2.9150  -19.7024   21.6667 C.3     1  UNL1        0.0193
     16 C          -3.9475  -18.9066   22.4088 C.3     1  UNL1        0.0259
     17 C          -3.9951  -17.4262   22.6453 C.3     1  UNL1        0.1098
     18 C          -3.0219  -16.3759   22.1982 C.3     1  UNL1        0.0418
     19 C          -1.7609  -16.5466   21.4041 C.3     1  UNL1        0.0741
     20 C          -9.0319  -16.1762   22.9066 C.3     1  UNL1        0.0738
     21 C          -9.4317  -17.1334   21.8233 C.ar    1  UNL1       -0.0161
     22 C         -10.6366  -16.8473   20.9767 C.ar    1  UNL1       -0.0030
     23 C         -11.0364  -17.8045   19.8933 C.ar    1  UNL1        0.0111
     24 C         -10.2316  -19.0479   19.6564 C.ar    1  UNL1        0.0577
     25 CL        -10.6314  -20.0052   18.5731 Cl      1  UNL1       -0.0822
     26 C          -9.0268  -19.3341   20.5029 C.ar    1  UNL1        0.0111
     27 C          -8.6269  -18.3768   21.5864 C.ar    1  UNL1       -0.0030
@<TRIPOS>BOND
     1    12    13    1
     2    13    14    1
     3    14    15    1
     4    15    16    1
     5    16    17    1
     6    17     1    1
     7     1     2   ar
     8     2     3   ar
     9     3    20    1
    10    20    21    1
    11    21    22   ar
    12    22    23   ar
    13    23    24   ar
    14    24    25    1
    15    24    26   ar
    16    26    27   ar
    17     3     4   ar
    18     4     5   ar
    19     5     6   ar
    20     6     7   ar
    21     7     8   ar
    22     8     9   ar
    23     9    10   ar
    24    10    11    2
    25    17    18    1
    26    18    19    1
    27    19    13    1
    28    10     1   ar
    29    27    21   ar
    30     9     4   ar
@<TRIPOS>MOLECULE
*****
 27 30 0 0 0
SMALL
GASTEIGER

@<TRIPOS>ATOM
      1 N           1.2062    4.4002   33.0398 N.ar    1  UNL1       -0.2189
      2 N           1.9047    4.1747   34.3479 N.ar    1  UNL1       -0.1709
      3 C           1.4355    4.8877   35.5814 C.ar    1  UNL1        0.0832
      4 C           0.2677    5.8263   35.5067 C.ar    1  UNL1        0.0202
      5 C          -0.2015    6.5393   36.7401 C.ar    1  UNL1        0.0014
      6 C          -1.3691    7.4778   36.6654 C.ar    1  UNL1        0.0000
      7 C          -2.0676    7.7034   35.3573 C.ar    1  UNL1        0.0002
      8 C          -1.5984    6.9904   34.1238 C.ar    1  UNL1        0.0048
      9 C          -0.4307    6.0518   34.1985 C.ar    1  UNL1        0.0588
     10 C           0.0386    5.3388   32.9650 C.ar    1  UNL1        0.2762
     11 O          -0.6599    5.5644   31.6569 O.2     1  UNL1       -0.2655
     12 C           2.1621    0.4880   28.2012 C.3     1  UNL1        0.0896
     13 N           2.1872    1.5926   29.2158 N.3     1  UNL1       -0.2714
     14 C           3.2196    2.6577   28.9928 C.3     1  UNL1        0.0722
     15 C           3.4964    3.8792   29.8181 C.3     1  UNL1        0.0193
     16 C           2.8092    4.3374   31.0703 C.3     1  UNL1        0.0259
     17 C           1.6755    3.6872   31.8063 C.3     1  UNL1        0.1098
     18 C           0.9490    2.4182   31.4720 C.3     1  UNL1        0.0418
     19 C           1.1766    1.4860   30.3192 C.3     1  UNL1        0.0741
     20 C           2.1339    4.6621   36.8895 C.3     1  UNL1        0.0738
     21 C           1.9086    3.3892   37.6503 C.ar    1  UNL1       -0.0161
     22 C           0.7150    3.2536   38.5487 C.ar    1  UNL1       -0.0030
     23 C           0.4897    1.9806   39.3095 C.ar    1  UNL1        0.0111
     24 C           1.4579    0.8433   39.1720 C.ar    1  UNL1        0.0577
     25 CL          1.2326   -0.4297   39.9328 Cl      1  UNL1       -0.0822
     26 C           2.6515    0.9788   38.2736 C.ar    1  UNL1        0.0111
     27 C           2.8768    2.2518   37.5128 C.ar    1  UNL1       -0.0030
@<TRIPOS>BOND
     1    12    13    1
     2    13    14    1
     3    14    15    1
     4    15    16    1
     5    16    17    1
     6    17     1    1
     7     1     2   ar
     8     2     3   ar
     9     3    20    1
    10    20    21    1
    11    21    22   ar
    12    22    23   ar
    13    23    24   ar
    14    24    25    1
    15    24    26   ar
    16    26    27   ar
    17     3     4   ar
    18     4     5   ar
    19     5     6   ar
    20     6     7   ar
    21     7     8   ar
    22     8     9   ar
    23     9    10   ar
    24    10    11    2
    25    17    18    1
    26    18    19    1
    27    19    13    1
    28    10     1   ar
    29    27    21   ar
    30     9     4   ar
@<TRIPOS>MOLECULE
*****
 27 30 0 0 0
SMALL
GASTEIGER

@<TRIPOS>ATOM
      1 N          -1.0223    3.0260   20.7052 N.ar    1  UNL1       -0.2189
      2 N          -0.5688    1.6192   20.4499 N.ar    1  UNL1       -0.1709
      3 C           0.7229    1.3664   19.7304 C.ar    1  UNL1        0.0832
      4 C           1.5612    2.5205   19.2662 C.ar    1  UNL1        0.0202
      5 C           2.8528    2.2678   18.5468 C.ar    1  UNL1        0.0014
      6 C           3.6910    3.4218   18.0826 C.ar    1  UNL1        0.0000
      7 C           3.2375    4.8287   18.3379 C.ar    1  UNL1        0.0002
      8 C           1.9459    5.0814   19.0573 C.ar    1  UNL1        0.0048
      9 C           1.1077    3.9274   19.5215 C.ar    1  UNL1        0.0588
     10 C          -0.1841    4.1801   20.2410 C.ar    1  UNL1        0.2762
     11 O          -0.6375    5.5869   20.4963 O.2     1  UNL1       -0.2655
     12 C          -5.6072    4.2111   24.8530 C.3     1  UNL1        0.0896
     13 N          -4.7687    3.9132   23.6454 N.3     1  UNL1       -0.2714
     14 C          -5.5184    3.7516   22.3563 C.3     1  UNL1        0.0722
     15 C          -4.9760    3.4533   20.9901 C.3     1  UNL1        0.0193
     16 C          -3.5498    3.2428   20.5754 C.3     1  UNL1        0.0259
     17 C          -2.3140    3.2788   21.4247 C.3     1  UNL1        0.1098
     18 C          -2.1990    3.5340   22.8983 C.3     1  UNL1        0.0418
     19 C          -3.2914    3.8164   23.8867 C.3     1  UNL1        0.0741
     20 C           1.1763   -0.0404   19.4752 C.3     1  UNL1        0.0738
     21 C           2.1226   -0.7081   20.4285 C.ar    1  UNL1       -0.0161
     22 C           3.0215   -1.8078   19.9461 C.ar    1  UNL1       -0.0030
     23 C           3.9677   -2.4754   20.8994 C.ar    1  UNL1        0.0111
     24 C           4.0151   -2.0434   22.3351 C.ar    1  UNL1        0.0577
     25 CL          4.9613   -2.7111   23.2884 Cl      1  UNL1       -0.0822
     26 C           3.1162   -0.9438   22.8175 C.ar    1  UNL1        0.0111
     27 C           2.1699   -0.2761   21.8641 C.ar    1  UNL1       -0.0030
@<TRIPOS>BOND
     1    12    13    1
     2    13    14    1
     3    14    15    1
     4    15    16    1
     5    16    17    1
     6    17     1    1
     7     1     2   ar
     8     2     3   ar
     9     3    20    1
    10    20    21    1
    11    21    22   ar
    12    22    23   ar
    13    23    24   ar
    14    24    25    1
    15    24    26   ar
    16    26    27   ar
    17     3     4   ar
    18     4     5   ar
    19     5     6   ar
    20     6     7   ar
    21     7     8   ar
    22     8     9   ar
    23     9    10   ar
    24    10    11    2
    25    17    18    1
    26    18    19    1
    27    19    13    1
    28    10     1   ar
    29    27    21   ar
    30     9     4   ar
@<TRIPOS>MOLECULE
*****
 27 30 0 0 0
SMALL
GASTEIGER

@<TRIPOS>ATOM
      1 N           6.2895   -3.1907   27.0258 N.ar    1  UNL1       -0.2189
      2 N           6.5729   -2.7464   25.6214 N.ar    1  UNL1       -0.1709
      3 C           7.1467   -3.7146   24.6299 C.ar    1  UNL1        0.0832
      4 C           7.4372   -5.1272   25.0427 C.ar    1  UNL1        0.0202
      5 C           8.0110   -6.0954   24.0511 C.ar    1  UNL1        0.0014
      6 C           8.3015   -7.5079   24.4639 C.ar    1  UNL1        0.0000
      7 C           8.0181   -7.9521   25.8683 C.ar    1  UNL1        0.0002
      8 C           7.4443   -6.9839   26.8599 C.ar    1  UNL1        0.0048
      9 C           7.1538   -5.5715   26.4471 C.ar    1  UNL1        0.0588
     10 C           6.5800   -4.6031   27.4387 C.ar    1  UNL1        0.2762
     11 O           6.2966   -5.0474   28.8431 O.2     1  UNL1       -0.2655
     12 C           2.7718    0.8617   30.3175 C.3     1  UNL1        0.0896
     13 N           3.8323   -0.0528   29.7797 N.3     1  UNL1       -0.2714
     14 C           5.0848   -0.1497   30.5993 C.3     1  UNL1        0.0722
     15 C           6.3144   -0.9671   30.3351 C.3     1  UNL1        0.0193
     16 C           6.5952   -1.8896   29.1860 C.3     1  UNL1        0.0259
     17 C           5.7157   -2.2224   28.0174 C.3     1  UNL1        0.1098
     18 C           4.3382   -1.7149   27.7092 C.3     1  UNL1        0.0418
     19 C           3.4999   -0.7494   28.4934 C.3     1  UNL1        0.0741
     20 C           7.4300   -3.2703   23.2255 C.3     1  UNL1        0.0738
     21 C           6.4268   -3.5280   22.1405 C.ar    1  UNL1       -0.0161
     22 C           4.9886   -3.7702   22.4910 C.ar    1  UNL1       -0.0030
     23 C           3.9854   -4.0278   21.4060 C.ar    1  UNL1        0.0111
     24 C           4.4204   -4.0433   19.9706 C.ar    1  UNL1        0.0577
     25 CL          3.4172   -4.3009   18.8856 Cl      1  UNL1       -0.0822
     26 C           5.8586   -3.8011   19.6201 C.ar    1  UNL1        0.0111
     27 C           6.8619   -3.5434   20.7050 C.ar    1  UNL1       -0.0030
@<TRIPOS>BOND
     1    12    13    1
     2    13    14    1
     3    14    15    1
     4    15    16    1
     5    16    17    1
     6    17     1    1
     7     1     2   ar
     8     2     3   ar
     9     3    20    1
    10    20    21    1
    11    21    22   ar
    12    22    23   ar
    13    23    24   ar
    14    24    25    1
    15    24    26   ar
    16    26    27   ar
    17     3     4   ar
    18     4     5   ar
    19     5     6   ar
    20     6     7   ar
    21     7     8   ar
    22     8     9   ar
    23     9    10   ar
    24    10    11    2
    25    17    18    1
    26    18    19    1
    27    19    13    1
    28    10     1   ar
    29    27    21   ar
    30     9     4   ar
@<TRIPOS>MOLECULE
*****
 27 30 0 0 0
SMALL
GASTEIGER

@<TRIPOS>ATOM
      1 N         -14.9322   -5.8504   18.1152 N.ar    1  UNL1       -0.2189
      2 N         -15.0287   -4.3950   17.7651 N.ar    1  UNL1       -0.1709
      3 C         -13.8035   -3.5307   17.8069 C.ar    1  UNL1        0.0832
      4 C         -12.4817   -4.1218   18.1988 C.ar    1  UNL1        0.0202
      5 C         -11.2565   -3.2575   18.2406 C.ar    1  UNL1        0.0014
      6 C          -9.9348   -3.8486   18.6325 C.ar    1  UNL1        0.0000
      7 C          -9.8383   -5.3040   18.9826 C.ar    1  UNL1        0.0002
      8 C         -11.0635   -6.1683   18.9407 C.ar    1  UNL1        0.0048
      9 C         -12.3852   -5.5772   18.5489 C.ar    1  UNL1        0.0588
     10 C         -13.6105   -6.4415   18.5071 C.ar    1  UNL1        0.2762
     11 O         -13.5140   -7.8969   18.8571 O.2     1  UNL1       -0.2655
     12 C         -20.0748   -9.2708   19.3343 C.3     1  UNL1        0.0896
     13 N         -18.9108   -8.5459   18.7261 N.3     1  UNL1       -0.2714
     14 C         -18.7726   -8.6699   17.2376 C.3     1  UNL1        0.0722
     15 C         -17.7285   -8.0715   16.3423 C.3     1  UNL1        0.0193
     16 C         -16.5646   -7.2013   16.7142 C.3     1  UNL1        0.0259
     17 C         -16.1576   -6.7147   18.0734 C.3     1  UNL1        0.1098
     18 C         -16.8137   -6.9779   19.3963 C.3     1  UNL1        0.0418
     19 C         -18.0390   -7.7929   19.6868 C.3     1  UNL1        0.0741
     20 C         -13.9000   -2.0753   17.4569 C.3     1  UNL1        0.0738
     21 C         -14.6745   -1.1415   18.3390 C.ar    1  UNL1       -0.0161
     22 C         -15.6974   -1.6853   19.2919 C.ar    1  UNL1       -0.0030
     23 C         -16.4719   -0.7515   20.1740 C.ar    1  UNL1        0.0111
     24 C         -16.2236    0.7261   20.1031 C.ar    1  UNL1        0.0577
     25 CL        -16.9982    1.6599   20.9852 Cl      1  UNL1       -0.0822
     26 C         -15.2008    1.2699   19.1502 C.ar    1  UNL1        0.0111
     27 C         -14.4262    0.3361   18.2681 C.ar    1  UNL1       -0.0030
@<TRIPOS>BOND
     1    12    13    1
     2    13    14    1
     3    14    15    1
     4    15    16    1
     5    16    17    1
     6    17     1    1
     7     1     2   ar
     8     2     3   ar
     9     3    20    1
    10    20    21    1
    11    21    22   ar
    12    22    23   ar
    13    23    24   ar
    14    24    25    1
    15    24    26   ar
    16    26    27   ar
    17     3     4   ar
    18     4     5   ar
    19     5     6   ar
    20     6     7   ar
    21     7     8   ar
    22     8     9   ar
    23     9    10   ar
    24    10    11    2
    25    17    18    1
    26    18    19    1
    27    19    13    1
    28    10     1   ar
    29    27    21   ar
    30     9     4   ar
