@<TRIPOS>MOLECULE
*****
 23 25 0 0 0
SMALL
GASTEIGER

@<TRIPOS>ATOM
      1 C          -2.8797  -20.0181   20.8500 C.3     1  UNL1        0.0512
      2 C          -4.2751  -19.6170   21.2267 C.2     1  UNL1        0.0551
      3 C          -5.4456  -20.4024   20.7137 C.2     1  UNL1        0.0470
      4 S          -6.8409  -20.0012   21.0904 S.3     1  UNL1       -0.0751
      5 C          -7.0659  -18.8146   21.9800 C.3     1  UNL1        0.2085
      6 C          -5.8955  -18.0293   22.4930 C.ar    1  UNL1        0.2066
      7 N          -5.8076  -16.8225   23.3796 N.ar    1  UNL1       -0.0545
      8 O          -4.3578  -16.4779   23.5508 O.2     1  UNL1       -0.2950
      9 C          -3.5497  -17.4716   22.7701 C.ar    1  UNL1        0.4470
     10 O          -2.0539  -17.5013   22.6621 O.2     1  UNL1       -0.2203
     11 N          -4.5001  -18.4304   22.1163 N.ar    1  UNL1       -0.2279
     12 C          -8.4857  -19.2392   21.7480 C.ar    1  UNL1        0.0189
     13 C          -9.0628  -19.2029   20.3639 C.ar    1  UNL1       -0.0007
     14 C         -10.4825  -19.6274   20.1317 C.ar    1  UNL1       -0.0002
     15 C         -11.3254  -20.0884   21.2838 C.ar    1  UNL1       -0.0000
     16 C         -10.7484  -20.1248   22.6679 C.ar    1  UNL1       -0.0002
     17 C          -9.3286  -19.7002   22.9000 C.ar    1  UNL1       -0.0007
     18 O          -7.7840  -17.7756   22.7891 O.3     1  UNL1       -0.3293
     19 C          -8.4965  -16.6493   22.1008 C.3     1  UNL1        0.2470
     20 C          -9.8933  -16.2849   22.5084 C.3     1  UNL1        0.4249
     21 F         -11.2902  -15.9206   22.9160 F       1  UNL1       -0.1674
     22 F          -9.4884  -16.3468   23.9514 F       1  UNL1       -0.1674
     23 F         -10.2983  -16.2231   21.0654 F       1  UNL1       -0.1674
@<TRIPOS>BOND
     1     1     2    1
     2     2     3    2
     3     3     4    1
     4     4     5    1
     5     5    18    1
     6    18    19    1
     7    19    20    1
     8    20    21    1
     9    20    22    1
    10    20    23    1
    11     5    12    1
    12    12    13   ar
    13    13    14   ar
    14    14    15   ar
    15    15    16   ar
    16    16    17   ar
    17     5     6    1
    18     6     7   ar
    19     7     8   ar
    20     8     9   ar
    21     9    10    2
    22     9    11   ar
    23    11     2    1
    24    17    12   ar
    25    11     6   ar
@<TRIPOS>MOLECULE
*****
 23 25 0 0 0
SMALL
GASTEIGER

@<TRIPOS>ATOM
      1 C          -5.6756  -20.5342   20.3354 C.3     1  UNL1        0.0512
      2 C          -6.6183  -19.6284   21.0708 C.2     1  UNL1        0.0551
      3 C          -8.0996  -19.7838   20.8932 C.2     1  UNL1        0.0470
      4 S          -9.0423  -18.8782   21.6286 S.3     1  UNL1       -0.0751
      5 C          -8.5037  -17.8169   22.5418 C.3     1  UNL1        0.2085
      6 C          -7.0224  -17.6615   22.7195 C.ar    1  UNL1        0.2066
      7 N          -6.2047  -16.7136   23.5457 N.ar    1  UNL1       -0.0545
      8 O          -4.7565  -17.0335   23.3209 O.2     1  UNL1       -0.2950
      9 C          -4.6793  -18.1791   22.3557 C.ar    1  UNL1        0.4470
     10 O          -3.4223  -18.8234   21.8508 O.2     1  UNL1       -0.2203
     11 N          -6.0797  -18.5673   21.9840 N.ar    1  UNL1       -0.2279
     12 C          -9.9755  -17.5747   22.7004 C.ar    1  UNL1        0.0189
     13 C         -10.8409  -18.6135   23.3499 C.ar    1  UNL1       -0.0007
     14 C         -12.3126  -18.3714   23.5085 C.ar    1  UNL1       -0.0002
     15 C         -12.9192  -17.0903   23.0175 C.ar    1  UNL1       -0.0000
     16 C         -12.0538  -16.0514   22.3679 C.ar    1  UNL1       -0.0002
     17 C         -10.5819  -16.2936   22.2094 C.ar    1  UNL1       -0.0007
     18 O          -8.4763  -16.6716   23.5100 O.3     1  UNL1       -0.3293
     19 C          -8.9075  -16.8806   24.9314 C.3     1  UNL1        0.2470
     20 C          -8.5572  -15.8652   25.9784 C.3     1  UNL1        0.4249
     21 F          -8.2070  -14.8497   27.0255 F       1  UNL1       -0.1674
     22 F          -8.4370  -14.8121   24.9170 F       1  UNL1       -0.1674
     23 F          -8.6774  -16.9182   27.0399 F       1  UNL1       -0.1674
@<TRIPOS>BOND
     1     1     2    1
     2     2     3    2
     3     3     4    1
     4     4     5    1
     5     5    18    1
     6    18    19    1
     7    19    20    1
     8    20    21    1
     9    20    22    1
    10    20    23    1
    11     5    12    1
    12    12    13   ar
    13    13    14   ar
    14    14    15   ar
    15    15    16   ar
    16    16    17   ar
    17     5     6    1
    18     6     7   ar
    19     7     8   ar
    20     8     9   ar
    21     9    10    2
    22     9    11   ar
    23    11     2    1
    24    17    12   ar
    25    11     6   ar
@<TRIPOS>MOLECULE
*****
 23 25 0 0 0
SMALL
GASTEIGER

@<TRIPOS>ATOM
      1 C          -5.3808  -15.1467   25.1799 C.3     1  UNL1        0.0512
      2 C          -6.5253  -15.8708   24.5351 C.2     1  UNL1        0.0551
      3 C          -7.9357  -15.5454   24.9286 C.2     1  UNL1        0.0470
      4 S          -9.0802  -16.2695   24.2838 S.3     1  UNL1       -0.0751
      5 C          -8.8143  -17.3190   23.2456 C.3     1  UNL1        0.2085
      6 C          -7.4039  -17.6443   22.8521 C.ar    1  UNL1        0.2066
      7 N          -6.8372  -18.6230   21.8668 N.ar    1  UNL1       -0.0545
      8 O          -5.3423  -18.5037   21.9025 O.2     1  UNL1       -0.2950
      9 C          -4.9852  -17.4514   22.9100 C.ar    1  UNL1        0.4470
     10 O          -3.5976  -17.0080   23.2678 O.2     1  UNL1       -0.2203
     11 N          -6.2594  -16.9202   23.4969 N.ar    1  UNL1       -0.2279
     12 C         -10.3132  -17.3634   23.2830 C.ar    1  UNL1        0.0189
     13 C         -11.1123  -16.2750   22.6297 C.ar    1  UNL1       -0.0007
     14 C         -12.6111  -16.3193   22.6671 C.ar    1  UNL1       -0.0002
     15 C         -13.3110  -17.4521   23.3578 C.ar    1  UNL1       -0.0000
     16 C         -12.5119  -18.5405   24.0112 C.ar    1  UNL1       -0.0002
     17 C         -11.0130  -18.4961   23.9737 C.ar    1  UNL1       -0.0007
     18 O          -9.0690  -18.3838   22.2204 O.3     1  UNL1       -0.3293
     19 C          -9.5105  -18.0040   20.8381 C.3     1  UNL1        0.2470
     20 C         -10.0184  -19.0561   19.8973 C.3     1  UNL1        0.4249
     21 F         -10.5263  -20.1082   18.9565 F       1  UNL1       -0.1674
     22 F         -11.3767  -18.9634   20.5269 F       1  UNL1       -0.1674
     23 F          -8.6601  -19.1488   19.2676 F       1  UNL1       -0.1674
@<TRIPOS>BOND
     1     1     2    1
     2     2     3    2
     3     3     4    1
     4     4     5    1
     5     5    18    1
     6    18    19    1
     7    19    20    1
     8    20    21    1
     9    20    22    1
    10    20    23    1
    11     5    12    1
    12    12    13   ar
    13    13    14   ar
    14    14    15   ar
    15    15    16   ar
    16    16    17   ar
    17     5     6    1
    18     6     7   ar
    19     7     8   ar
    20     8     9   ar
    21     9    10    2
    22     9    11   ar
    23    11     2    1
    24    17    12   ar
    25    11     6   ar
@<TRIPOS>MOLECULE
*****
 23 25 0 0 0
SMALL
GASTEIGER

@<TRIPOS>ATOM
      1 C          -7.9764  -15.2022   27.1237 C.3     1  UNL1        0.0512
      2 C          -8.0568  -15.9256   25.8120 C.2     1  UNL1        0.0551
      3 C          -9.3060  -16.6681   25.4404 C.2     1  UNL1        0.0470
      4 S          -9.3865  -17.3914   24.1289 S.3     1  UNL1       -0.0751
      5 C          -8.2177  -17.3723   23.1888 C.3     1  UNL1        0.2085
      6 C          -6.9685  -16.6298   23.5605 C.ar    1  UNL1        0.2066
      7 N          -5.6656  -16.4351   22.8431 N.ar    1  UNL1       -0.0545
      8 O          -4.7800  -15.5914   23.7113 O.2     1  UNL1       -0.2950
      9 C          -5.5354  -15.2647   24.9653 C.ar    1  UNL1        0.4470
     10 O          -5.0275  -14.4409   26.1113 O.2     1  UNL1       -0.2203
     11 N          -6.8880  -15.9064   24.8721 N.ar    1  UNL1       -0.2279
     12 C          -9.1767  -18.2090   22.3951 C.ar    1  UNL1        0.0189
     13 C          -9.5724  -17.7871   21.0111 C.ar    1  UNL1       -0.0007
     14 C         -10.5314  -18.6237   20.2173 C.ar    1  UNL1       -0.0002
     15 C         -11.0948  -19.8825   20.8074 C.ar    1  UNL1       -0.0000
     16 C         -10.6991  -20.3044   22.1914 C.ar    1  UNL1       -0.0002
     17 C          -9.7401  -19.4677   22.9852 C.ar    1  UNL1       -0.0007
     18 O          -7.3820  -17.6437   21.9732 O.3     1  UNL1       -0.3293
     19 C          -6.4166  -18.7918   21.9678 C.3     1  UNL1        0.2470
     20 C          -6.5314  -19.8633   20.9243 C.3     1  UNL1        0.4249
     21 F          -6.6462  -20.9348   19.8809 F       1  UNL1       -0.1674
     22 F          -6.4227  -18.8255   19.8467 F       1  UNL1       -0.1674
     23 F          -6.6401  -20.9010   22.0020 F       1  UNL1       -0.1674
@<TRIPOS>BOND
     1     1     2    1
     2     2     3    2
     3     3     4    1
     4     4     5    1
     5     5    18    1
     6    18    19    1
     7    19    20    1
     8    20    21    1
     9    20    22    1
    10    20    23    1
    11     5    12    1
    12    12    13   ar
    13    13    14   ar
    14    14    15   ar
    15    15    16   ar
    16    16    17   ar
    17     5     6    1
    18     6     7   ar
    19     7     8   ar
    20     8     9   ar
    21     9    10    2
    22     9    11   ar
    23    11     2    1
    24    17    12   ar
    25    11     6   ar
@<TRIPOS>MOLECULE
*****
 23 25 0 0 0
SMALL
GASTEIGER

@<TRIPOS>ATOM
      1 C           4.5827   -1.6929   26.0269 C.3     1  UNL1        0.0512
      2 C           4.4034   -1.7043   24.5377 C.2     1  UNL1        0.0551
      3 C           3.4977   -0.7032   23.8837 C.2     1  UNL1        0.0470
      4 S           3.3184   -0.7145   22.3946 S.3     1  UNL1       -0.0751
      5 C           4.0446   -1.7270   21.5593 C.3     1  UNL1        0.2085
      6 C           4.9502   -2.7280   22.2133 C.ar    1  UNL1        0.2066
      7 N           5.7908   -3.8371   21.6535 N.ar    1  UNL1       -0.0545
      8 O           6.4897   -4.5112   22.7968 O.2     1  UNL1       -0.2950
      9 C           6.0811   -3.8187   24.0631 C.ar    1  UNL1        0.4470
     10 O           6.5429   -4.1672   25.4471 O.2     1  UNL1       -0.2203
     11 N           5.1296   -2.7167   23.7025 N.ar    1  UNL1       -0.2279
     12 C           3.3016   -0.9884   20.4858 C.ar    1  UNL1        0.0189
     13 C           1.8144   -0.8186   20.5841 C.ar    1  UNL1       -0.0007
     14 C           1.0713   -0.0800   19.5108 C.ar    1  UNL1       -0.0002
     15 C           1.8152    0.4888   18.3389 C.ar    1  UNL1       -0.0000
     16 C           3.3024    0.3190   18.2407 C.ar    1  UNL1       -0.0002
     17 C           4.0455   -0.4196   19.3141 C.ar    1  UNL1       -0.0007
     18 O           4.5128   -2.4829   20.3513 O.3     1  UNL1       -0.3293
     19 C           3.6104   -3.4881   19.6992 C.3     1  UNL1        0.2470
     20 C           4.1968   -4.6440   18.9442 C.3     1  UNL1        0.4249
     21 F           4.7832   -5.7999   18.1893 F       1  UNL1       -0.1674
     22 F           3.3181   -5.5892   19.7089 F       1  UNL1       -0.1674
     23 F           5.0754   -3.6988   18.1796 F       1  UNL1       -0.1674
@<TRIPOS>BOND
     1     1     2    1
     2     2     3    2
     3     3     4    1
     4     4     5    1
     5     5    18    1
     6    18    19    1
     7    19    20    1
     8    20    21    1
     9    20    22    1
    10    20    23    1
    11     5    12    1
    12    12    13   ar
    13    13    14   ar
    14    14    15   ar
    15    15    16   ar
    16    16    17   ar
    17     5     6    1
    18     6     7   ar
    19     7     8   ar
    20     8     9   ar
    21     9    10    2
    22     9    11   ar
    23    11     2    1
    24    17    12   ar
    25    11     6   ar
@<TRIPOS>MOLECULE
*****
 23 25 0 0 0
SMALL
GASTEIGER

@<TRIPOS>ATOM
      1 C         -15.5993   -0.1308   18.9028 C.3     1  UNL1        0.0512
      2 C         -14.9623   -1.4729   18.6953 C.2     1  UNL1        0.0551
      3 C         -15.8075   -2.7120   18.6939 C.2     1  UNL1        0.0470
      4 S         -15.1705   -4.0541   18.4864 S.3     1  UNL1       -0.0751
      5 C         -13.6883   -4.1570   18.2804 C.3     1  UNL1        0.2085
      6 C         -12.8431   -2.9178   18.2819 C.ar    1  UNL1        0.2066
      7 N         -11.3682   -2.7087   18.1054 N.ar    1  UNL1       -0.0545
      8 O         -11.0938   -1.2373   18.2039 O.2     1  UNL1       -0.2950
      9 C         -12.3989   -0.5371   18.4411 C.ar    1  UNL1        0.4470
     10 O         -12.5895    0.9420   18.6019 O.2     1  UNL1       -0.2203
     11 N         -13.4801   -1.5757   18.4893 N.ar    1  UNL1       -0.2279
     12 C         -14.0641   -5.6068   18.1974 C.ar    1  UNL1        0.0189
     13 C         -14.7496   -6.2713   19.3544 C.ar    1  UNL1       -0.0007
     14 C         -15.1255   -7.7210   19.2715 C.ar    1  UNL1       -0.0002
     15 C         -14.8159   -8.5064   18.0315 C.ar    1  UNL1       -0.0000
     16 C         -14.1304   -7.8419   16.8745 C.ar    1  UNL1       -0.0002
     17 C         -13.7545   -6.3921   16.9575 C.ar    1  UNL1       -0.0007
     18 O         -12.3366   -4.7634   18.0456 O.3     1  UNL1       -0.3293
     19 C         -11.5142   -5.2355   19.2078 C.3     1  UNL1        0.2470
     20 C         -10.3641   -6.1716   18.9817 C.3     1  UNL1        0.4249
     21 F          -9.2141   -7.1078   18.7556 F       1  UNL1       -0.1674
     22 F         -11.3203   -7.3235   18.8870 F       1  UNL1       -0.1674
     23 F          -9.4079   -5.0198   19.0763 F       1  UNL1       -0.1674
@<TRIPOS>BOND
     1     1     2    1
     2     2     3    2
     3     3     4    1
     4     4     5    1
     5     5    18    1
     6    18    19    1
     7    19    20    1
     8    20    21    1
     9    20    22    1
    10    20    23    1
    11     5    12    1
    12    12    13   ar
    13    13    14   ar
    14    14    15   ar
    15    15    16   ar
    16    16    17   ar
    17     5     6    1
    18     6     7   ar
    19     7     8   ar
    20     8     9   ar
    21     9    10    2
    22     9    11   ar
    23    11     2    1
    24    17    12   ar
    25    11     6   ar
@<TRIPOS>MOLECULE
*****
 23 25 0 0 0
SMALL
GASTEIGER

@<TRIPOS>ATOM
      1 C          -7.0733  -16.3593   27.3196 C.3     1  UNL1        0.0512
      2 C          -7.8329  -16.4997   26.0338 C.2     1  UNL1        0.0551
      3 C          -9.0980  -17.3047   25.9942 C.2     1  UNL1        0.0470
      4 S          -9.8576  -17.4451   24.7085 S.3     1  UNL1       -0.0751
      5 C          -9.3521  -16.7807   23.4622 C.3     1  UNL1        0.2085
      6 C          -8.0870  -15.9758   23.5018 C.ar    1  UNL1        0.2066
      7 N          -7.3495  -15.2124   22.4420 N.ar    1  UNL1       -0.0545
      8 O          -6.1342  -14.6001   23.0727 O.2     1  UNL1       -0.2950
      9 C          -6.1205  -14.9850   24.5224 C.ar    1  UNL1        0.4470
     10 O          -5.0821  -14.5893   25.5300 O.2     1  UNL1       -0.2203
     11 N          -7.3274  -15.8353   24.7876 N.ar    1  UNL1       -0.2279
     12 C         -10.5911  -17.4336   22.9251 C.ar    1  UNL1        0.0189
     13 C         -11.9415  -16.9832   23.3980 C.ar    1  UNL1       -0.0007
     14 C         -13.1805  -17.6360   22.8610 C.ar    1  UNL1       -0.0002
     15 C         -13.0693  -18.7395   21.8509 C.ar    1  UNL1       -0.0000
     16 C         -11.7189  -19.1900   21.3780 C.ar    1  UNL1       -0.0002
     17 C         -10.4798  -18.5371   21.9151 C.ar    1  UNL1       -0.0007
     18 O          -9.2769  -16.3430   22.0295 O.3     1  UNL1       -0.3293
     19 C         -10.4049  -15.5615   21.4238 C.3     1  UNL1        0.2470
     20 C         -10.3758  -15.2099   19.9658 C.3     1  UNL1        0.4249
     21 F         -10.3467  -14.8584   18.5079 F       1  UNL1       -0.1674
     22 F          -9.3351  -14.1647   20.2387 F       1  UNL1       -0.1674
     23 F         -11.4165  -16.2552   19.6930 F       1  UNL1       -0.1674
@<TRIPOS>BOND
     1     1     2    1
     2     2     3    2
     3     3     4    1
     4     4     5    1
     5     5    18    1
     6    18    19    1
     7    19    20    1
     8    20    21    1
     9    20    22    1
    10    20    23    1
    11     5    12    1
    12    12    13   ar
    13    13    14   ar
    14    14    15   ar
    15    15    16   ar
    16    16    17   ar
    17     5     6    1
    18     6     7   ar
    19     7     8   ar
    20     8     9   ar
    21     9    10    2
    22     9    11   ar
    23    11     2    1
    24    17    12   ar
    25    11     6   ar
@<TRIPOS>MOLECULE
*****
 23 25 0 0 0
SMALL
GASTEIGER

@<TRIPOS>ATOM
      1 C         -10.6471   -6.9484   17.4669 C.3     1  UNL1        0.0512
      2 C         -12.0796   -6.9405   17.9117 C.2     1  UNL1        0.0551
      3 C         -12.9874   -8.0744   17.5374 C.2     1  UNL1        0.0470
      4 S         -14.4198   -8.0665   17.9822 S.3     1  UNL1       -0.0751
      5 C         -14.9446   -6.9246   18.8014 C.3     1  UNL1        0.2085
      6 C         -14.0368   -5.7907   19.1757 C.ar    1  UNL1        0.2066
      7 N         -14.2691   -4.5387   19.9684 N.ar    1  UNL1       -0.0545
      8 O         -12.9801   -3.7728   20.0135 O.2     1  UNL1       -0.2950
      9 C         -11.9512   -4.5515   19.2487 C.ar    1  UNL1        0.4470
     10 O         -10.5205   -4.1530   19.0385 O.2     1  UNL1       -0.2203
     11 N         -12.6043   -5.7987   18.7308 N.ar    1  UNL1       -0.2279
     12 C         -16.1841   -7.7632   18.6992 C.ar    1  UNL1        0.0189
     13 C         -16.8288   -7.9890   17.3638 C.ar    1  UNL1       -0.0007
     14 C         -18.0683   -8.8275   17.2615 C.ar    1  UNL1       -0.0002
     15 C         -18.6631   -9.4403   18.4947 C.ar    1  UNL1       -0.0000
     16 C         -18.0184   -9.2145   19.8301 C.ar    1  UNL1       -0.0002
     17 C         -16.7789   -8.3759   19.9324 C.ar    1  UNL1       -0.0007
     18 O         -15.8997   -6.0741   19.5850 O.3     1  UNL1       -0.3293
     19 C         -16.8282   -5.1367   18.8715 C.3     1  UNL1        0.2470
     20 C         -17.9501   -4.4788   19.6189 C.3     1  UNL1        0.4249
     21 F         -19.0720   -3.8210   20.3663 F       1  UNL1       -0.1674
     22 F         -18.7330   -5.7574   19.5692 F       1  UNL1       -0.1674
     23 F         -17.1673   -3.2003   19.6686 F       1  UNL1       -0.1674
@<TRIPOS>BOND
     1     1     2    1
     2     2     3    2
     3     3     4    1
     4     4     5    1
     5     5    18    1
     6    18    19    1
     7    19    20    1
     8    20    21    1
     9    20    22    1
    10    20    23    1
    11     5    12    1
    12    12    13   ar
    13    13    14   ar
    14    14    15   ar
    15    15    16   ar
    16    16    17   ar
    17     5     6    1
    18     6     7   ar
    19     7     8   ar
    20     8     9   ar
    21     9    10    2
    22     9    11   ar
    23    11     2    1
    24    17    12   ar
    25    11     6   ar
@<TRIPOS>MOLECULE
*****
 23 25 0 0 0
SMALL
GASTEIGER

@<TRIPOS>ATOM
      1 C           0.5676    1.5394   23.6679 C.3     1  UNL1        0.0512
      2 C           1.5202    0.6541   22.9204 C.2     1  UNL1        0.0551
      3 C           2.6529   -0.0100   23.6455 C.2     1  UNL1        0.0470
      4 S           3.6055   -0.8953   22.8981 S.3     1  UNL1       -0.0751
      5 C           3.4254   -1.1166   21.4254 C.3     1  UNL1        0.2085
      6 C           2.2926   -0.4526   20.7003 C.ar    1  UNL1        0.2066
      7 N           1.8661   -0.4830   19.2626 N.ar    1  UNL1       -0.0545
      8 O           0.6499    0.3835   19.1215 O.2     1  UNL1       -0.2950
      9 C           0.3247    0.9495   20.4720 C.ar    1  UNL1        0.4470
     10 O          -0.8155    1.8706   20.7907 O.2     1  UNL1       -0.2203
     11 N           1.3400    0.4328   21.4478 N.ar    1  UNL1       -0.2279
     12 C           4.6423   -1.9592   21.6685 C.ar    1  UNL1        0.0189
     13 C           4.5671   -3.1353   22.5965 C.ar    1  UNL1       -0.0007
     14 C           5.7840   -3.9779   22.8397 C.ar    1  UNL1       -0.0002
     15 C           7.0763   -3.6444   22.1549 C.ar    1  UNL1       -0.0000
     16 C           7.1515   -2.4682   21.2269 C.ar    1  UNL1       -0.0002
     17 C           5.9345   -1.6256   20.9838 C.ar    1  UNL1       -0.0007
     18 O           3.6678   -1.6305   20.0373 O.3     1  UNL1       -0.3293
     19 C           3.0819   -2.9438   19.6106 C.3     1  UNL1        0.2470
     20 C           3.9536   -3.9793   18.9640 C.3     1  UNL1        0.4249
     21 F           4.8252   -5.0147   18.3174 F       1  UNL1       -0.1674
     22 F           4.6494   -2.9050   18.1818 F       1  UNL1       -0.1674
     23 F           3.2577   -5.0535   19.7463 F       1  UNL1       -0.1674
@<TRIPOS>BOND
     1     1     2    1
     2     2     3    2
     3     3     4    1
     4     4     5    1
     5     5    18    1
     6    18    19    1
     7    19    20    1
     8    20    21    1
     9    20    22    1
    10    20    23    1
    11     5    12    1
    12    12    13   ar
    13    13    14   ar
    14    14    15   ar
    15    15    16   ar
    16    16    17   ar
    17     5     6    1
    18     6     7   ar
    19     7     8   ar
    20     8     9   ar
    21     9    10    2
    22     9    11   ar
    23    11     2    1
    24    17    12   ar
    25    11     6   ar
