@<TRIPOS>MOLECULE
*****
 39 42 0 0 0
SMALL
GASTEIGER

@<TRIPOS>ATOM
      1 C          -4.8440    4.9348   24.0362 C.3     1  UNL1        0.0903
      2 C          -5.4900    6.0149   24.8523 C.3     1  UNL1        0.0927
      3 N          -6.9711    6.2356   24.7661 N.3     1  UNL1       -0.2584
      4 C          -7.8063    5.3763   23.8639 C.3     1  UNL1        0.0732
      5 C          -7.1603    4.2962   23.0478 C.3     1  UNL1        0.0204
      6 C          -5.6792    4.0755   23.1339 C.3     1  UNL1        0.0368
      7 N          -1.2907    3.8345   25.4195 N.am    1  UNL1       -0.2485
      8 C          -2.7718    4.0553   25.3334 C.2     1  UNL1        0.3059
      9 O          -3.6621    3.6173   26.4584 O.2     1  UNL1       -0.2524
     10 N          -3.3628    4.7140   24.1223 N.am    1  UNL1       -0.2889
     11 H          -0.7064    4.1220   24.6811 H       1  UNL1        0.1583
     12 H          -2.7785    5.0015   23.3839 H       1  UNL1        0.1510
     13 C           0.0400    1.4887   28.2109 C.ar    1  UNL1        0.0803
     14 S          -0.6268    1.6991   26.8839 S.2     1  UNL1       -0.0488
     15 C          -0.6998    3.1758   26.6307 C.ar    1  UNL1        0.1664
     16 N          -0.0781    3.8780   27.8013 N.ar    1  UNL1       -0.2282
     17 C           0.3791    2.8354   28.7779 C.ar    1  UNL1        0.0701
     18 C           1.0565    3.0940   30.0910 C.3     1  UNL1        0.0528
     19 C           1.7193   -0.3714   28.8963 C.3     1  UNL1        0.0779
     20 C           0.3188    0.1642   28.8575 C.2     1  UNL1        0.1807
     21 O          -0.8030   -0.6246   29.4651 O.2     1  UNL1       -0.2908
     22 C          -7.6172    7.3158   25.5823 C.3     1  UNL1        0.1795
     23 C          -7.8329    7.1168   27.0533 C.1     1  UNL1        0.0912
     24 N          -8.0486    6.9179   28.5243 N.1     1  UNL1       -0.1944
     25 C          -5.0331    2.9953   22.3178 C.3     1  UNL1        0.0738
     26 N          -4.3298    3.3409   21.0388 N.3     1  UNL1       -0.2726
     27 C          -5.1250    3.7089   19.8213 C.3     1  UNL1        0.0721
     28 C          -4.4217    4.0545   18.5423 C.3     1  UNL1        0.0174
     29 C          -2.9231    4.0320   18.4807 C.3     1  UNL1        0.0031
     30 C          -2.1279    3.6639   19.6982 C.3     1  UNL1        0.0204
     31 C          -2.8312    3.3184   20.9772 C.3     1  UNL1        0.0724
     32 C          -0.6293    3.6414   19.6366 C.3     1  UNL1        0.0277
     33 C           0.1028    2.3324   19.6614 C.ar    1  UNL1       -0.0220
     34 C           0.1781    1.5392   20.9324 C.ar    1  UNL1       -0.0020
     35 C           0.9102    0.2302   20.9572 C.ar    1  UNL1        0.0293
     36 C           1.5669   -0.2856   19.7111 C.ar    1  UNL1        0.1401
     37 F           2.2989   -1.5946   19.7359 F       1  UNL1       -0.2042
     38 C           1.4915    0.5076   18.4402 C.ar    1  UNL1        0.0293
     39 C           0.7595    1.8166   18.4154 C.ar    1  UNL1       -0.0020
@<TRIPOS>BOND
     1    19    20    1
     2    20    21    2
     3    20    13    1
     4    13    14   ar
     5    14    15   ar
     6    15     7    1
     7     7     8   am
     8     8     9    2
     9     8    10   am
    10     1    10    1
    11     1     2    1
    12     2     3    1
    13     3    22    1
    14    22    23    1
    15    23    24    3
    16     3     4    1
    17     4     5    1
    18     5     6    1
    19     6    25    1
    20    25    26    1
    21    26    27    1
    22    27    28    1
    23    28    29    1
    24    29    30    1
    25    30    32    1
    26    32    33    1
    27    33    34   ar
    28    34    35   ar
    29    35    36   ar
    30    36    37    1
    31    36    38   ar
    32    38    39   ar
    33    30    31    1
    34    15    16   ar
    35    16    17   ar
    36    17    18    1
    37    17    13   ar
    38     6     1    1
    39    31    26    1
    40    39    33   ar
    41     7    11    1
    42    10    12    1
@<TRIPOS>MOLECULE
*****
 39 42 0 0 0
SMALL
GASTEIGER

@<TRIPOS>ATOM
      1 C           2.0922    1.6771   24.5310 C.3     1  UNL1        0.0903
      2 C           2.1046    1.1254   25.9258 C.3     1  UNL1        0.0927
      3 N           0.8511    1.1405   26.7495 N.3     1  UNL1       -0.2584
      4 C          -0.4148    1.7074   26.1784 C.3     1  UNL1        0.0732
      5 C          -0.4272    2.2591   24.7836 C.3     1  UNL1        0.0204
      6 C           0.8263    2.2440   23.9599 C.3     1  UNL1        0.0368
      7 N           5.0236    0.3881   22.1868 N.am    1  UNL1       -0.2485
      8 C           3.7702    0.4032   23.0106 C.2     1  UNL1        0.3059
      9 O           2.9411   -0.8404   23.1376 O.2     1  UNL1       -0.2524
     10 N           3.3457    1.6620   23.7073 N.am    1  UNL1       -0.2889
     11 H           5.5677    1.2043   22.1034 H       1  UNL1        0.1583
     12 H           3.8898    2.4782   23.6239 H       1  UNL1        0.1510
     13 C           6.7577   -2.7868   20.7801 C.ar    1  UNL1        0.0803
     14 S           6.7597   -1.5767   21.6665 S.2     1  UNL1       -0.0488
     15 C           5.4481   -0.8707   21.4901 C.ar    1  UNL1        0.1664
     16 N           4.6354   -1.6445   20.4947 N.ar    1  UNL1       -0.2282
     17 C           5.4448   -2.8287   20.0559 C.ar    1  UNL1        0.0701
     18 C           5.0164   -3.8716   19.0666 C.3     1  UNL1        0.0528
     19 C           9.1893   -3.3548   20.0629 C.3     1  UNL1        0.0779
     20 C           7.8728   -3.7805   20.6422 C.2     1  UNL1        0.1807
     21 O           7.6714   -5.1998   21.0835 O.2     1  UNL1       -0.2908
     22 C           0.8635    0.5888   28.1443 C.3     1  UNL1        0.1795
     23 C          -0.4252    0.2123   28.8133 C.1     1  UNL1        0.0912
     24 N          -1.7138   -0.1642   29.4824 N.1     1  UNL1       -0.1944
     25 C           0.8139    2.7957   22.5651 C.3     1  UNL1        0.0738
     26 N           1.1603    1.9101   21.4051 N.3     1  UNL1       -0.2726
     27 C           0.4748    0.5858   21.2416 C.3     1  UNL1        0.0721
     28 C           0.8212   -0.2998   20.0817 C.3     1  UNL1        0.0174
     29 C           1.8532    0.1387   19.0852 C.3     1  UNL1        0.0031
     30 C           2.5386    1.4628   19.2487 C.3     1  UNL1        0.0204
     31 C           2.1922    2.3485   20.4087 C.3     1  UNL1        0.0724
     32 C           3.5705    1.9013   18.2522 C.3     1  UNL1        0.0277
     33 C           4.9714    1.3724   18.3412 C.ar    1  UNL1       -0.0220
     34 C           5.9831    2.0696   19.2016 C.ar    1  UNL1       -0.0020
     35 C           7.3839    1.5407   19.2906 C.ar    1  UNL1        0.0293
     36 C           7.7730    0.3145   18.5190 C.ar    1  UNL1        0.1401
     37 F           9.1738   -0.2145   18.6079 F       1  UNL1       -0.2042
     38 C           6.7613   -0.3827   17.6586 C.ar    1  UNL1        0.0293
     39 C           5.3605    0.1463   17.5697 C.ar    1  UNL1       -0.0020
@<TRIPOS>BOND
     1    19    20    1
     2    20    21    2
     3    20    13    1
     4    13    14   ar
     5    14    15   ar
     6    15     7    1
     7     7     8   am
     8     8     9    2
     9     8    10   am
    10     1    10    1
    11     1     2    1
    12     2     3    1
    13     3    22    1
    14    22    23    1
    15    23    24    3
    16     3     4    1
    17     4     5    1
    18     5     6    1
    19     6    25    1
    20    25    26    1
    21    26    27    1
    22    27    28    1
    23    28    29    1
    24    29    30    1
    25    30    32    1
    26    32    33    1
    27    33    34   ar
    28    34    35   ar
    29    35    36   ar
    30    36    37    1
    31    36    38   ar
    32    38    39   ar
    33    30    31    1
    34    15    16   ar
    35    16    17   ar
    36    17    18    1
    37    17    13   ar
    38     6     1    1
    39    31    26    1
    40    39    33   ar
    41     7    11    1
    42    10    12    1
@<TRIPOS>MOLECULE
*****
 39 42 0 0 0
SMALL
GASTEIGER

@<TRIPOS>ATOM
      1 C           3.7214   -0.5564   21.1843 C.3     1  UNL1        0.0903
      2 C           5.1729   -0.9274   21.1109 C.3     1  UNL1        0.0927
      3 N           5.6275   -1.9923   20.1574 N.3     1  UNL1       -0.2584
      4 C           4.6305   -2.6862   19.2772 C.3     1  UNL1        0.0732
      5 C           3.1790   -2.3152   19.3507 C.3     1  UNL1        0.0204
      6 C           2.7245   -1.2503   20.3042 C.3     1  UNL1        0.0368
      7 N           2.4968    1.2208   24.5148 N.am    1  UNL1       -0.2485
      8 C           2.9515    0.1559   23.5613 C.2     1  UNL1        0.3059
      9 O           3.0908   -1.2619   24.0311 O.2     1  UNL1       -0.2524
     10 N           3.2668    0.5086   22.1378 N.am    1  UNL1       -0.2889
     11 H           2.4054    2.1512   24.2064 H       1  UNL1        0.1583
     12 H           3.1753    1.4391   21.8294 H       1  UNL1        0.1510
     13 C           0.9947    0.5729   28.0347 C.ar    1  UNL1        0.0803
     14 S           0.8609    1.0614   26.6228 S.2     1  UNL1       -0.0488
     15 C           2.1815    0.8680   25.9382 C.ar    1  UNL1        0.1664
     16 N           3.1315    0.2599   26.9271 N.ar    1  UNL1       -0.2282
     17 C           2.3980    0.0775   28.2227 C.ar    1  UNL1        0.0701
     18 C           2.9677   -0.4991   29.4848 C.3     1  UNL1        0.0528
     19 C          -1.3619   -0.1714   28.8361 C.3     1  UNL1        0.0779
     20 C          -0.0853    0.5787   29.0757 C.2     1  UNL1        0.1807
     21 O           0.1115    1.3345   30.3562 O.2     1  UNL1       -0.2908
     22 C           7.0791   -2.3633   20.0839 C.3     1  UNL1        0.1795
     23 C           7.5405   -3.6929   20.6030 C.1     1  UNL1        0.0912
     24 N           8.0019   -5.0224   21.1220 N.1     1  UNL1       -0.1944
     25 C           1.2729   -0.8792   20.3776 C.3     1  UNL1        0.0738
     26 N           0.8357    0.5119   20.0260 N.3     1  UNL1       -0.2726
     27 C           1.0216    1.0260   18.6291 C.3     1  UNL1        0.0721
     28 C           0.5844    2.4171   18.2775 C.3     1  UNL1        0.0174
     29 C          -0.0387    3.2941   19.3227 C.3     1  UNL1        0.0031
     30 C          -0.2247    2.7801   20.7195 C.3     1  UNL1        0.0204
     31 C           0.2126    1.3889   21.0712 C.3     1  UNL1        0.0724
     32 C          -0.8478    3.6571   21.7648 C.3     1  UNL1        0.0277
     33 C          -2.3317    3.6268   21.9819 C.ar    1  UNL1       -0.0220
     34 C          -3.2473    3.2541   20.8536 C.ar    1  UNL1       -0.0020
     35 C          -4.7312    3.2238   21.0706 C.ar    1  UNL1        0.0293
     36 C          -5.2995    3.5662   22.4160 C.ar    1  UNL1        0.1401
     37 F          -6.7834    3.5359   22.6330 F       1  UNL1       -0.2042
     38 C          -4.3840    3.9389   23.5442 C.ar    1  UNL1        0.0293
     39 C          -2.9001    3.9692   23.3271 C.ar    1  UNL1       -0.0020
@<TRIPOS>BOND
     1    19    20    1
     2    20    21    2
     3    20    13    1
     4    13    14   ar
     5    14    15   ar
     6    15     7    1
     7     7     8   am
     8     8     9    2
     9     8    10   am
    10     1    10    1
    11     1     2    1
    12     2     3    1
    13     3    22    1
    14    22    23    1
    15    23    24    3
    16     3     4    1
    17     4     5    1
    18     5     6    1
    19     6    25    1
    20    25    26    1
    21    26    27    1
    22    27    28    1
    23    28    29    1
    24    29    30    1
    25    30    32    1
    26    32    33    1
    27    33    34   ar
    28    34    35   ar
    29    35    36   ar
    30    36    37    1
    31    36    38   ar
    32    38    39   ar
    33    30    31    1
    34    15    16   ar
    35    16    17   ar
    36    17    18    1
    37    17    13   ar
    38     6     1    1
    39    31    26    1
    40    39    33   ar
    41     7    11    1
    42    10    12    1
@<TRIPOS>MOLECULE
*****
 39 42 0 0 0
SMALL
GASTEIGER

@<TRIPOS>ATOM
      1 C           6.5036   -3.0524   26.7676 C.3     1  UNL1        0.0903
      2 C           6.8776   -4.4939   26.9461 C.3     1  UNL1        0.0927
      3 N           7.9622   -4.8735   27.9103 N.3     1  UNL1       -0.2584
      4 C           8.6728   -3.8114   28.6958 C.3     1  UNL1        0.0732
      5 C           8.2988   -2.3698   28.5173 C.3     1  UNL1        0.0204
      6 C           7.2142   -1.9903   27.5531 C.3     1  UNL1        0.0368
      7 N           4.4935   -2.5885   23.3772 N.am    1  UNL1       -0.2485
      8 C           5.5781   -2.9680   24.3414 C.2     1  UNL1        0.3059
      9 O           6.8219   -3.6429   23.8435 O.2     1  UNL1       -0.2524
     10 N           5.4190   -2.6728   25.8034 N.am    1  UNL1       -0.2889
     11 H           3.6773   -2.1456   23.7040 H       1  UNL1        0.1583
     12 H           4.6027   -2.2299   26.1302 H       1  UNL1        0.1510
     13 C           5.0691   -2.6190   19.5388 C.ar    1  UNL1        0.0803
     14 S           5.0237   -1.8938   20.8511 S.2     1  UNL1       -0.0488
     15 C           4.6527   -2.8837   21.9152 C.ar    1  UNL1        0.1664
     16 N           4.4687   -4.2207   21.2605 N.ar    1  UNL1       -0.2282
     17 C           4.7260   -4.0571   19.7919 C.ar    1  UNL1        0.0701
     18 C           4.6531   -5.1413   18.7578 C.3     1  UNL1        0.0528
     19 C           4.4218   -1.0917   17.5393 C.3     1  UNL1        0.0779
     20 C           5.3994   -2.0125   18.2072 C.2     1  UNL1        0.1807
     21 O           6.7074   -2.3268   17.5437 O.2     1  UNL1       -0.2908
     22 C           8.3363   -6.3151   28.0889 C.3     1  UNL1        0.1795
     23 C           7.7733   -7.3558   27.1669 C.1     1  UNL1        0.0912
     24 N           7.2103   -8.3964   26.2449 N.1     1  UNL1       -0.1944
     25 C           6.8401   -0.5487   27.3745 C.3     1  UNL1        0.0738
     26 N           5.4620   -0.0809   27.7377 N.3     1  UNL1       -0.2726
     27 C           4.7654    0.9359   26.8827 C.3     1  UNL1        0.0721
     28 C           3.3873    1.4037   27.2459 C.3     1  UNL1        0.0174
     29 C           2.7057    0.8547   28.4642 C.3     1  UNL1        0.0031
     30 C           3.4023   -0.1621   29.3191 C.3     1  UNL1        0.0204
     31 C           4.7804   -0.6298   28.9559 C.3     1  UNL1        0.0724
     32 C           2.7207   -0.7111   30.5374 C.3     1  UNL1        0.0277
     33 C           3.4287   -0.7047   31.8598 C.ar    1  UNL1       -0.0220
     34 C           4.1943   -1.9148   32.3065 C.ar    1  UNL1       -0.0020
     35 C           4.9023   -1.9084   33.6289 C.ar    1  UNL1        0.0293
     36 C           4.8446   -0.6919   34.5046 C.ar    1  UNL1        0.1401
     37 F           5.5525   -0.6855   35.8270 F       1  UNL1       -0.2042
     38 C           4.0790    0.5182   34.0579 C.ar    1  UNL1        0.0293
     39 C           3.3710    0.5118   32.7355 C.ar    1  UNL1       -0.0020
@<TRIPOS>BOND
     1    19    20    1
     2    20    21    2
     3    20    13    1
     4    13    14   ar
     5    14    15   ar
     6    15     7    1
     7     7     8   am
     8     8     9    2
     9     8    10   am
    10     1    10    1
    11     1     2    1
    12     2     3    1
    13     3    22    1
    14    22    23    1
    15    23    24    3
    16     3     4    1
    17     4     5    1
    18     5     6    1
    19     6    25    1
    20    25    26    1
    21    26    27    1
    22    27    28    1
    23    28    29    1
    24    29    30    1
    25    30    32    1
    26    32    33    1
    27    33    34   ar
    28    34    35   ar
    29    35    36   ar
    30    36    37    1
    31    36    38   ar
    32    38    39   ar
    33    30    31    1
    34    15    16   ar
    35    16    17   ar
    36    17    18    1
    37    17    13   ar
    38     6     1    1
    39    31    26    1
    40    39    33   ar
    41     7    11    1
    42    10    12    1
@<TRIPOS>MOLECULE
*****
 39 42 0 0 0
SMALL
GASTEIGER

@<TRIPOS>ATOM
      1 C           6.6803   -2.6374   27.1039 C.3     1  UNL1        0.0903
      2 C           7.3179   -3.3923   28.2324 C.3     1  UNL1        0.0927
      3 N           7.6961   -4.8326   28.0521 N.3     1  UNL1       -0.2584
      4 C           7.4368   -5.5180   26.7433 C.3     1  UNL1        0.0732
      5 C           6.7992   -4.7631   25.6148 C.3     1  UNL1        0.0204
      6 C           6.4210   -3.3228   25.7951 C.3     1  UNL1        0.0368
      7 N           4.5444    0.6036   27.9306 N.am    1  UNL1       -0.2485
      8 C           4.9227   -0.8366   27.7503 C.2     1  UNL1        0.3059
      9 O           3.9215   -1.9165   28.0362 O.2     1  UNL1       -0.2524
     10 N           6.3021   -1.1971   27.2841 N.am    1  UNL1       -0.2889
     11 H           5.2014    1.3123   27.7429 H       1  UNL1        0.1583
     12 H           6.9592   -0.4884   27.0965 H       1  UNL1        0.1510
     13 C           0.7668    1.3353   28.4410 C.ar    1  UNL1        0.0803
     14 S           1.9086    0.8790   27.5818 S.2     1  UNL1       -0.0488
     15 C           3.1650    0.9641   28.3967 C.ar    1  UNL1        0.1664
     16 N           2.7998    1.4729   29.7597 N.ar    1  UNL1       -0.2282
     17 C           1.3176    1.7023   29.7871 C.ar    1  UNL1        0.0701
     18 C           0.5255    2.2097   30.9554 C.3     1  UNL1        0.0528
     19 C          -1.0953    2.3716   26.9550 C.3     1  UNL1        0.0779
     20 C          -0.6729    1.4111   28.0269 C.2     1  UNL1        0.1807
     21 O          -1.6900    0.5266   28.6847 O.2     1  UNL1       -0.2908
     22 C           8.3338   -5.5875   29.1807 C.3     1  UNL1        0.1795
     23 C           7.5629   -5.8436   30.4417 C.1     1  UNL1        0.0912
     24 N           6.7921   -6.0997   31.7028 N.1     1  UNL1       -0.1944
     25 C           5.7834   -2.5679   24.6665 C.3     1  UNL1        0.0738
     26 N           6.0362   -2.9848   23.2480 N.3     1  UNL1       -0.2726
     27 C           7.4164   -3.3859   22.8188 C.3     1  UNL1        0.0721
     28 C           7.6693   -3.8027   21.4002 C.3     1  UNL1        0.0174
     29 C           6.5418   -3.8185   20.4109 C.3     1  UNL1        0.0031
     30 C           5.1617   -3.4174   20.8401 C.3     1  UNL1        0.0204
     31 C           4.9089   -3.0005   22.2586 C.3     1  UNL1        0.0724
     32 C           4.0343   -3.4331   19.8507 C.3     1  UNL1        0.0277
     33 C           3.4253   -2.1431   19.3870 C.ar    1  UNL1       -0.0220
     34 C           2.3280   -1.5024   20.1843 C.ar    1  UNL1       -0.0020
     35 C           1.7191   -0.2124   19.7206 C.ar    1  UNL1        0.0293
     36 C           2.2074    0.4369   18.4596 C.ar    1  UNL1        0.1401
     37 F           1.5985    1.7270   17.9959 F       1  UNL1       -0.2042
     38 C           3.3047   -0.2038   17.6624 C.ar    1  UNL1        0.0293
     39 C           3.9136   -1.4938   18.1261 C.ar    1  UNL1       -0.0020
@<TRIPOS>BOND
     1    19    20    1
     2    20    21    2
     3    20    13    1
     4    13    14   ar
     5    14    15   ar
     6    15     7    1
     7     7     8   am
     8     8     9    2
     9     8    10   am
    10     1    10    1
    11     1     2    1
    12     2     3    1
    13     3    22    1
    14    22    23    1
    15    23    24    3
    16     3     4    1
    17     4     5    1
    18     5     6    1
    19     6    25    1
    20    25    26    1
    21    26    27    1
    22    27    28    1
    23    28    29    1
    24    29    30    1
    25    30    32    1
    26    32    33    1
    27    33    34   ar
    28    34    35   ar
    29    35    36   ar
    30    36    37    1
    31    36    38   ar
    32    38    39   ar
    33    30    31    1
    34    15    16   ar
    35    16    17   ar
    36    17    18    1
    37    17    13   ar
    38     6     1    1
    39    31    26    1
    40    39    33   ar
    41     7    11    1
    42    10    12    1
@<TRIPOS>MOLECULE
*****
 39 42 0 0 0
SMALL
GASTEIGER

@<TRIPOS>ATOM
      1 C           7.4415   -3.3292   28.1498 C.3     1  UNL1        0.0903
      2 C           7.3816   -4.4683   27.1758 C.3     1  UNL1        0.0927
      3 N           7.4709   -5.8821   27.6688 N.3     1  UNL1       -0.2584
      4 C           7.6201   -6.1568   29.1358 C.3     1  UNL1        0.0732
      5 C           7.6800   -5.0177   30.1099 C.3     1  UNL1        0.0204
      6 C           7.5907   -3.6039   29.6169 C.3     1  UNL1        0.0368
      7 N           5.9215    0.1340   26.9473 N.am    1  UNL1       -0.2485
      8 C           6.0108   -1.2798   27.4402 C.2     1  UNL1        0.3059
      9 O           4.7587   -2.0583   27.7166 O.2     1  UNL1       -0.2524
     10 N           7.3522   -1.9153   27.6569 N.am    1  UNL1       -0.2889
     11 H           6.7433    0.6449   26.7659 H       1  UNL1        0.1583
     12 H           8.1740   -1.4044   27.4755 H       1  UNL1        0.1510
     13 C           2.3785    1.2666   25.8382 C.ar    1  UNL1        0.0803
     14 S           3.5693    0.3652   25.6987 S.2     1  UNL1       -0.0488
     15 C           4.5801    0.7694   26.7307 C.ar    1  UNL1        0.1664
     16 N           4.0140    1.9207   27.5079 N.ar    1  UNL1       -0.2282
     17 C           2.6533    2.2279   26.9564 C.ar    1  UNL1        0.0701
     18 C           1.7297    3.3071   27.4384 C.3     1  UNL1        0.0528
     19 C          -0.2125    1.3362   25.6602 C.3     1  UNL1        0.0779
     20 C           1.1318    1.2155   25.0057 C.2     1  UNL1        0.1807
     21 O           1.2293    1.0439   23.5188 O.2     1  UNL1       -0.2908
     22 C           7.4109   -7.0213   26.6947 C.3     1  UNL1        0.1795
     23 C           7.7251   -8.4153   27.1508 C.1     1  UNL1        0.0912
     24 N           8.0392   -9.8093   27.6068 N.1     1  UNL1       -0.1944
     25 C           7.6506   -2.4647   30.5910 C.3     1  UNL1        0.0738
     26 N           6.4156   -2.0461   31.3323 N.3     1  UNL1       -0.2726
     27 C           5.8972   -2.8872   32.4611 C.3     1  UNL1        0.0721
     28 C           4.6622   -2.4686   33.2024 C.3     1  UNL1        0.0174
     29 C           3.9457   -1.2089   32.8150 C.3     1  UNL1        0.0031
     30 C           4.4641   -0.3680   31.6864 C.3     1  UNL1        0.0204
     31 C           5.6991   -0.7866   30.9450 C.3     1  UNL1        0.0724
     32 C           3.7476    0.8916   31.2990 C.3     1  UNL1        0.0277
     33 C           2.4060    0.8165   30.6321 C.ar    1  UNL1       -0.0220
     34 C           1.3359    1.8061   30.9865 C.ar    1  UNL1       -0.0020
     35 C          -0.0056    1.7310   30.3197 C.ar    1  UNL1        0.0293
     36 C          -0.2770    0.6663   29.2984 C.ar    1  UNL1        0.1401
     37 F          -1.6185    0.5912   28.6316 F       1  UNL1       -0.2042
     38 C           0.7931   -0.3232   28.9441 C.ar    1  UNL1        0.0293
     39 C           2.1347   -0.2481   29.6109 C.ar    1  UNL1       -0.0020
@<TRIPOS>BOND
     1    19    20    1
     2    20    21    2
     3    20    13    1
     4    13    14   ar
     5    14    15   ar
     6    15     7    1
     7     7     8   am
     8     8     9    2
     9     8    10   am
    10     1    10    1
    11     1     2    1
    12     2     3    1
    13     3    22    1
    14    22    23    1
    15    23    24    3
    16     3     4    1
    17     4     5    1
    18     5     6    1
    19     6    25    1
    20    25    26    1
    21    26    27    1
    22    27    28    1
    23    28    29    1
    24    29    30    1
    25    30    32    1
    26    32    33    1
    27    33    34   ar
    28    34    35   ar
    29    35    36   ar
    30    36    37    1
    31    36    38   ar
    32    38    39   ar
    33    30    31    1
    34    15    16   ar
    35    16    17   ar
    36    17    18    1
    37    17    13   ar
    38     6     1    1
    39    31    26    1
    40    39    33   ar
    41     7    11    1
    42    10    12    1
@<TRIPOS>MOLECULE
*****
 39 42 0 0 0
SMALL
GASTEIGER

@<TRIPOS>ATOM
      1 C         -15.9392   -0.0188   18.1190 C.3     1  UNL1        0.0903
      2 C         -15.3415    1.0867   17.3002 C.3     1  UNL1        0.0927
      3 N         -15.6188    2.5173   17.6555 N.3     1  UNL1       -0.2584
      4 C         -16.4938    2.8424   18.8297 C.3     1  UNL1        0.0732
      5 C         -17.0915    1.7369   19.6485 C.3     1  UNL1        0.0204
      6 C         -16.8142    0.3063   19.2932 C.3     1  UNL1        0.0368
      7 N         -13.9835   -3.4119   17.4763 N.am    1  UNL1       -0.2485
      8 C         -14.2609   -1.9812   17.8316 C.2     1  UNL1        0.3059
      9 O         -13.1372   -1.0821   18.2549 O.2     1  UNL1       -0.2524
     10 N         -15.6619   -1.4496   17.7637 N.am    1  UNL1       -0.2889
     11 H         -14.7210   -4.0019   17.1986 H       1  UNL1        0.1583
     12 H         -16.3994   -2.0396   17.4859 H       1  UNL1        0.1510
     13 C         -10.6253   -5.2130   18.2139 C.ar    1  UNL1        0.0803
     14 S         -12.0805   -4.9863   18.4985 S.2     1  UNL1       -0.0488
     15 C         -12.5826   -3.9435   17.5443 C.ar    1  UNL1        0.1664
     16 N         -11.4376   -3.5257   16.6699 N.ar    1  UNL1       -0.2282
     17 C         -10.2280   -4.3103   17.0837 C.ar    1  UNL1        0.0701
     18 C          -8.8610   -4.2098   16.4744 C.3     1  UNL1        0.0528
     19 C          -9.7128   -7.6227   18.5458 C.3     1  UNL1        0.0779
     20 C          -9.7255   -6.1737   18.9331 C.2     1  UNL1        0.1807
     21 O          -8.8384   -5.6854   20.0397 O.2     1  UNL1       -0.2908
     22 C         -15.0211    3.6229   16.8367 C.3     1  UNL1        0.1795
     23 C         -13.5570    3.9301   16.9463 C.1     1  UNL1        0.0912
     24 N         -12.0929    4.2373   17.0559 N.1     1  UNL1       -0.1944
     25 C         -17.4119   -0.7994   20.1120 C.3     1  UNL1        0.0738
     26 N         -18.2577   -1.8480   19.4526 N.3     1  UNL1       -0.2726
     27 C         -19.1580   -1.4771   18.3115 C.3     1  UNL1        0.0721
     28 C         -20.0038   -2.5258   17.6520 C.3     1  UNL1        0.0174
     29 C         -19.9494   -3.9453   18.1337 C.3     1  UNL1        0.0031
     30 C         -19.0492   -4.3162   19.2747 C.3     1  UNL1        0.0204
     31 C         -18.2033   -3.2675   19.9342 C.3     1  UNL1        0.0724
     32 C         -18.9948   -5.7358   19.7564 C.3     1  UNL1        0.0277
     33 C         -17.7990   -6.5872   19.4477 C.ar    1  UNL1       -0.0220
     34 C         -17.6771   -7.9556   20.0499 C.ar    1  UNL1       -0.0020
     35 C         -16.4813   -8.8070   19.7412 C.ar    1  UNL1        0.0293
     36 C         -15.4074   -8.2899   18.8304 C.ar    1  UNL1        0.1401
     37 F         -14.2117   -9.1413   18.5217 F       1  UNL1       -0.2042
     38 C         -15.5294   -6.9215   18.2283 C.ar    1  UNL1        0.0293
     39 C         -16.7252   -6.0701   18.5369 C.ar    1  UNL1       -0.0020
@<TRIPOS>BOND
     1    19    20    1
     2    20    21    2
     3    20    13    1
     4    13    14   ar
     5    14    15   ar
     6    15     7    1
     7     7     8   am
     8     8     9    2
     9     8    10   am
    10     1    10    1
    11     1     2    1
    12     2     3    1
    13     3    22    1
    14    22    23    1
    15    23    24    3
    16     3     4    1
    17     4     5    1
    18     5     6    1
    19     6    25    1
    20    25    26    1
    21    26    27    1
    22    27    28    1
    23    28    29    1
    24    29    30    1
    25    30    32    1
    26    32    33    1
    27    33    34   ar
    28    34    35   ar
    29    35    36   ar
    30    36    37    1
    31    36    38   ar
    32    38    39   ar
    33    30    31    1
    34    15    16   ar
    35    16    17   ar
    36    17    18    1
    37    17    13   ar
    38     6     1    1
    39    31    26    1
    40    39    33   ar
    41     7    11    1
    42    10    12    1
@<TRIPOS>MOLECULE
*****
 39 42 0 0 0
SMALL
GASTEIGER

@<TRIPOS>ATOM
      1 C           1.9219    1.8594   25.4512 C.3     1  UNL1        0.0903
      2 C           1.2902    1.3504   26.7128 C.3     1  UNL1        0.0927
      3 N          -0.1881    1.4938   26.9221 N.3     1  UNL1       -0.2584
      4 C          -1.0348    2.1462   25.8697 C.3     1  UNL1        0.0732
      5 C          -0.4031    2.6552   24.6081 C.3     1  UNL1        0.0204
      6 C           1.0753    2.5118   24.3988 C.3     1  UNL1        0.0368
      7 N           5.4500    0.2566   24.5947 N.am    1  UNL1       -0.2485
      8 C           3.9717    0.4000   24.8040 C.2     1  UNL1        0.3059
      9 O           3.0646   -0.7726   24.5755 O.2     1  UNL1       -0.2524
     10 N           3.4004    1.7160   25.2419 N.am    1  UNL1       -0.2889
     11 H           6.0454    1.0262   24.7447 H       1  UNL1        0.1583
     12 H           3.9957    2.4856   25.3918 H       1  UNL1        0.1510
     13 C           7.1177   -3.2246   24.1872 C.ar    1  UNL1        0.0803
     14 S           6.7086   -2.0595   25.0388 S.2     1  UNL1       -0.0488
     15 C           6.0213   -1.0595   24.1569 C.ar    1  UNL1        0.1664
     16 N           6.0058   -1.6066   22.7603 N.ar    1  UNL1       -0.2282
     17 C           6.6833   -2.9447   22.7790 C.ar    1  UNL1        0.0701
     18 C           6.8902   -3.8448   21.5971 C.3     1  UNL1        0.0528
     19 C           7.1963   -5.3490   25.6808 C.3     1  UNL1        0.0779
     20 C           7.8352   -4.4538   24.6608 C.2     1  UNL1        0.1807
     21 O           9.1915   -4.7878   24.1143 O.2     1  UNL1       -0.2908
     22 C          -0.8199    0.9848   28.1838 C.3     1  UNL1        0.1795
     23 C          -0.1085    1.1418   29.4950 C.1     1  UNL1        0.0912
     24 N           0.6028    1.2989   30.8063 N.1     1  UNL1       -0.1944
     25 C           1.7071    3.0209   23.1371 C.3     1  UNL1        0.0738
     26 N           1.4530    2.3200   21.8355 N.3     1  UNL1       -0.2726
     27 C           0.7923    3.0527   20.7056 C.3     1  UNL1        0.0721
     28 C           0.5382    2.3519   19.4039 C.3     1  UNL1        0.0174
     29 C           0.9449    0.9182   19.2322 C.3     1  UNL1        0.0031
     30 C           1.6056    0.1856   20.3621 C.3     1  UNL1        0.0204
     31 C           1.8596    0.8864   21.6637 C.3     1  UNL1        0.0724
     32 C           2.0122   -1.2481   20.1904 C.3     1  UNL1        0.0277
     33 C           3.3477   -1.5827   19.5949 C.ar    1  UNL1       -0.0220
     34 C           3.6317   -2.9795   19.1276 C.ar    1  UNL1       -0.0020
     35 C           4.9672   -3.3141   18.5321 C.ar    1  UNL1        0.0293
     36 C           6.0185   -2.2518   18.4038 C.ar    1  UNL1        0.1401
     37 F           7.3540   -2.5864   17.8083 F       1  UNL1       -0.2042
     38 C           5.7344   -0.8551   18.8711 C.ar    1  UNL1        0.0293
     39 C           4.3990   -0.5205   19.4666 C.ar    1  UNL1       -0.0020
@<TRIPOS>BOND
     1    19    20    1
     2    20    21    2
     3    20    13    1
     4    13    14   ar
     5    14    15   ar
     6    15     7    1
     7     7     8   am
     8     8     9    2
     9     8    10   am
    10     1    10    1
    11     1     2    1
    12     2     3    1
    13     3    22    1
    14    22    23    1
    15    23    24    3
    16     3     4    1
    17     4     5    1
    18     5     6    1
    19     6    25    1
    20    25    26    1
    21    26    27    1
    22    27    28    1
    23    28    29    1
    24    29    30    1
    25    30    32    1
    26    32    33    1
    27    33    34   ar
    28    34    35   ar
    29    35    36   ar
    30    36    37    1
    31    36    38   ar
    32    38    39   ar
    33    30    31    1
    34    15    16   ar
    35    16    17   ar
    36    17    18    1
    37    17    13   ar
    38     6     1    1
    39    31    26    1
    40    39    33   ar
    41     7    11    1
    42    10    12    1
@<TRIPOS>MOLECULE
*****
 39 42 0 0 0
SMALL
GASTEIGER

@<TRIPOS>ATOM
      1 C           6.0371   -3.8182   22.2372 C.3     1  UNL1        0.0903
      2 C           6.4682   -4.3281   23.5803 C.3     1  UNL1        0.0927
      3 N           7.8334   -4.9250   23.7531 N.3     1  UNL1       -0.2584
      4 C           8.7675   -5.0121   22.5826 C.3     1  UNL1        0.0732
      5 C           8.3364   -4.5022   21.2395 C.3     1  UNL1        0.0204
      6 C           6.9712   -3.9052   21.0667 C.3     1  UNL1        0.0368
      7 N           3.0388   -1.2205   22.3475 N.am    1  UNL1       -0.2485
      8 C           4.4040   -1.8175   22.5203 C.2     1  UNL1        0.3059
      9 O           5.5013   -1.0108   23.1489 O.2     1  UNL1       -0.2524
     10 N           4.6719   -3.2212   22.0644 N.am    1  UNL1       -0.2889
     11 H           2.3186   -1.7499   21.9349 H       1  UNL1        0.1583
     12 H           3.9517   -3.7507   21.6518 H       1  UNL1        0.1510
     13 C           1.9477    2.0800   24.0743 C.ar    1  UNL1        0.0803
     14 S           1.9485    0.5822   23.9927 S.2     1  UNL1       -0.0488
     15 C           2.7709    0.1832   22.8034 C.ar    1  UNL1        0.1664
     16 N           3.2784    1.4345   22.1500 N.ar    1  UNL1       -0.2282
     17 C           2.7696    2.6067   22.9355 C.ar    1  UNL1        0.0701
     18 C           3.0360    4.0519   22.6349 C.3     1  UNL1        0.0528
     19 C          -0.2499    2.8954   25.1949 C.3     1  UNL1        0.0779
     20 C           1.2478    2.9060   25.1126 C.2     1  UNL1        0.1807
     21 O           2.0456    3.7424   26.0684 O.2     1  UNL1       -0.2908
     22 C           8.2645   -5.4350   25.0963 C.3     1  UNL1        0.1795
     23 C           7.8001   -6.7794   25.5725 C.1     1  UNL1        0.0912
     24 N           7.3356   -8.1238   26.0487 N.1     1  UNL1       -0.1944
     25 C           6.5401   -3.3952   19.7235 C.3     1  UNL1        0.0738
     26 N           6.1940   -1.9464   19.5471 N.3     1  UNL1       -0.2726
     27 C           7.1234   -0.8857   20.0584 C.3     1  UNL1        0.0721
     28 C           6.7773    0.5631   19.8820 C.3     1  UNL1        0.0174
     29 C           5.5019    0.9513   19.1943 C.3     1  UNL1        0.0031
     30 C           4.5727   -0.1094   18.6831 C.3     1  UNL1        0.0204
     31 C           4.9187   -1.5583   18.8595 C.3     1  UNL1        0.0724
     32 C           3.2973    0.2787   17.9955 C.3     1  UNL1        0.0277
     33 C           2.1676    0.8678   18.7872 C.ar    1  UNL1       -0.0220
     34 C           1.9885    2.3559   18.8454 C.ar    1  UNL1       -0.0020
     35 C           0.8588    2.9450   19.6371 C.ar    1  UNL1        0.0293
     36 C          -0.0918    2.0458   20.3706 C.ar    1  UNL1        0.1401
     37 F          -1.2215    2.6349   21.1624 F       1  UNL1       -0.2042
     38 C           0.0873    0.5578   20.3124 C.ar    1  UNL1        0.0293
     39 C           1.2170   -0.0313   19.5207 C.ar    1  UNL1       -0.0020
@<TRIPOS>BOND
     1    19    20    1
     2    20    21    2
     3    20    13    1
     4    13    14   ar
     5    14    15   ar
     6    15     7    1
     7     7     8   am
     8     8     9    2
     9     8    10   am
    10     1    10    1
    11     1     2    1
    12     2     3    1
    13     3    22    1
    14    22    23    1
    15    23    24    3
    16     3     4    1
    17     4     5    1
    18     5     6    1
    19     6    25    1
    20    25    26    1
    21    26    27    1
    22    27    28    1
    23    28    29    1
    24    29    30    1
    25    30    32    1
    26    32    33    1
    27    33    34   ar
    28    34    35   ar
    29    35    36   ar
    30    36    37    1
    31    36    38   ar
    32    38    39   ar
    33    30    31    1
    34    15    16   ar
    35    16    17   ar
    36    17    18    1
    37    17    13   ar
    38     6     1    1
    39    31    26    1
    40    39    33   ar
    41     7    11    1
    42    10    12    1
