@<TRIPOS>MOLECULE
*****
 33 39 0 0 0
SMALL
GASTEIGER

@<TRIPOS>ATOM
      1 C           6.1900   -2.7188   31.9437 C.3     1  UNL1        0.0227
      2 C           6.2020   -2.1162   30.5702 C.3     1  UNL1        0.0095
      3 C           6.5936   -2.9522   29.3879 C.3     1  UNL1        0.0624
      4 C           6.9731   -4.3907   29.5792 C.3     1  UNL1        0.2499
      5 C           6.9610   -4.9933   30.9528 C.3     1  UNL1        0.0624
      6 C           6.5695   -4.1573   32.1350 C.3     1  UNL1        0.0095
      7 O           6.9851   -3.7882   28.2055 O.3     1  UNL1       -0.1923
      8 O           7.3767   -4.6241   27.0233 O.3     1  UNL1       -0.1923
      9 C           7.7562   -6.0627   27.2146 C.3     1  UNL1        0.2495
     10 O           7.7442   -6.6652   28.5881 O.3     1  UNL1       -0.1923
     11 O           7.3526   -5.8293   29.7705 O.3     1  UNL1       -0.1923
     12 C           7.7683   -5.4601   25.8409 C.3     1  UNL1        0.0572
     13 C           8.1598   -6.2961   24.6587 C.3     1  UNL1        0.0050
     14 C           8.5393   -7.7346   24.8500 C.3     1  UNL1        0.0003
     15 C           8.5514   -7.1321   23.4764 C.3     1  UNL1        0.0000
     16 C           8.1718   -5.6935   23.2851 C.3     1  UNL1        0.0003
     17 C           7.7803   -4.8576   24.4674 C.3     1  UNL1        0.0050
     18 C           8.3687   -7.6360   25.9302 C.3     1  UNL1        0.0050
     19 C           8.1357   -7.5012   27.4059 C.3     1  UNL1        0.0572
     20 C           8.5273   -8.3372   26.2235 C.3     1  UNL1        0.0050
     21 C           4.0518   -1.2141   34.9295 C.ar    1  UNL1       -0.0032
     22 C           4.4433   -2.0501   33.7471 C.ar    1  UNL1       -0.0046
     23 C           5.7984   -1.8828   33.1261 C.ar    1  UNL1       -0.0225
     24 C           6.7620   -0.8796   33.6874 C.ar    1  UNL1       -0.0046
     25 C           6.3705   -0.0436   34.8696 C.ar    1  UNL1       -0.0032
     26 C           5.0153   -0.2109   35.4907 C.ar    1  UNL1       -0.0062
     27 C           4.6238    0.6251   36.6730 C.3     1  UNL1        0.0993
     28 N           3.5946    1.7054   36.5198 N.3     1  UNL1       -0.2646
     29 C           2.8618    2.2193   37.7235 C.3     1  UNL1        0.1049
     30 C           1.8326    3.2997   37.5702 C.3     1  UNL1        0.1595
     31 O           1.5361    3.8661   36.2133 O.3     1  UNL1       -0.3508
     32 C           2.2689    3.3522   35.0096 C.3     1  UNL1        0.1595
     33 C           3.2981    2.2719   35.1628 C.3     1  UNL1        0.1049
@<TRIPOS>BOND
     1    21    22   ar
     2    22    23   ar
     3    23     1    1
     4     1     2    1
     5     2     3    1
     6     3     4    1
     7     4     5    1
     8     5     6    1
     9     4     7    1
    10     7     8    1
    11     8     9    1
    12     9    10    1
    13    10    11    1
    14     9    12    1
    15    12    13    1
    16    13    14    1
    17    14    15    1
    18    15    16    1
    19    16    17    1
    20    16    18    1
    21    18    19    1
    22    19    20    1
    23    23    24   ar
    24    24    25   ar
    25    25    26   ar
    26    26    27    1
    27    27    28    1
    28    28    29    1
    29    29    30    1
    30    30    31    1
    31    31    32    1
    32    32    33    1
    33    26    21   ar
    34    33    28    1
    35     6     1    1
    36    19     9    1
    37    11     4    1
    38    17    12    1
    39    20    14    1
@<TRIPOS>MOLECULE
*****
 33 39 0 0 0
SMALL
GASTEIGER

@<TRIPOS>ATOM
      1 C           6.0844   -1.7987   32.3530 C.3     1  UNL1        0.0227
      2 C           6.5989   -3.2077   32.3536 C.3     1  UNL1        0.0095
      3 C           6.8588   -3.9118   31.0549 C.3     1  UNL1        0.0624
      4 C           6.6041   -3.2068   29.7556 C.3     1  UNL1        0.2499
      5 C           6.0896   -1.7979   29.7550 C.3     1  UNL1        0.0624
      6 C           5.8298   -1.0938   31.0537 C.3     1  UNL1        0.0095
      7 O           7.1186   -4.6159   29.7561 O.3     1  UNL1       -0.1923
      8 O           7.3785   -5.3200   28.4574 O.3     1  UNL1       -0.1923
      9 C           7.1239   -4.6150   27.1581 C.3     1  UNL1        0.2495
     10 O           6.6094   -3.2061   27.1575 O.3     1  UNL1       -0.1923
     11 O           6.3495   -2.5019   28.4563 O.3     1  UNL1       -0.1923
     12 C           7.6384   -6.0241   27.1586 C.3     1  UNL1        0.0572
     13 C           7.8982   -6.7281   25.8599 C.3     1  UNL1        0.0050
     14 C           7.6436   -6.0232   24.5606 C.3     1  UNL1        0.0003
     15 C           8.1581   -7.4322   24.5612 C.3     1  UNL1        0.0000
     16 C           8.4127   -8.1371   25.8605 C.3     1  UNL1        0.0003
     17 C           8.1529   -7.4331   27.1592 C.3     1  UNL1        0.0050
     18 C           7.3163   -5.1301   25.1093 C.3     1  UNL1        0.0050
     19 C           6.8692   -3.9101   25.8588 C.3     1  UNL1        0.0572
     20 C           7.1291   -4.6142   24.5600 C.3     1  UNL1        0.0050
     21 C           6.6255    0.4789   35.5578 C.ar    1  UNL1       -0.0032
     22 C           6.8854   -0.2253   34.2590 C.ar    1  UNL1       -0.0046
     23 C           5.8245   -1.0946   33.6518 C.ar    1  UNL1       -0.0225
     24 C           4.5037   -1.2599   34.3433 C.ar    1  UNL1       -0.0046
     25 C           4.2438   -0.5558   35.6420 C.ar    1  UNL1       -0.0032
     26 C           5.3047    0.3136   36.2493 C.ar    1  UNL1       -0.0062
     27 C           5.0448    1.0177   37.5480 C.3     1  UNL1        0.0993
     28 N           3.6966    1.6163   37.8198 N.3     1  UNL1       -0.2646
     29 C           3.2725    2.8650   37.1052 C.3     1  UNL1        0.1049
     30 C           1.9242    3.4636   37.3771 C.3     1  UNL1        0.1595
     31 O           1.0001    2.8134   38.3635 O.3     1  UNL1       -0.3508
     32 C           1.4241    1.5646   39.0782 C.3     1  UNL1        0.1595
     33 C           2.7723    0.9661   38.8063 C.3     1  UNL1        0.1049
@<TRIPOS>BOND
     1    21    22   ar
     2    22    23   ar
     3    23     1    1
     4     1     2    1
     5     2     3    1
     6     3     4    1
     7     4     5    1
     8     5     6    1
     9     4     7    1
    10     7     8    1
    11     8     9    1
    12     9    10    1
    13    10    11    1
    14     9    12    1
    15    12    13    1
    16    13    14    1
    17    14    15    1
    18    15    16    1
    19    16    17    1
    20    16    18    1
    21    18    19    1
    22    19    20    1
    23    23    24   ar
    24    24    25   ar
    25    25    26   ar
    26    26    27    1
    27    27    28    1
    28    28    29    1
    29    29    30    1
    30    30    31    1
    31    31    32    1
    32    32    33    1
    33    26    21   ar
    34    33    28    1
    35     6     1    1
    36    19     9    1
    37    11     4    1
    38    17    12    1
    39    20    14    1
@<TRIPOS>MOLECULE
*****
 33 39 0 0 0
SMALL
GASTEIGER

@<TRIPOS>ATOM
      1 C           4.3102   -1.7182   21.2091 C.3     1  UNL1        0.0227
      2 C           4.1810   -1.9394   22.6870 C.3     1  UNL1        0.0095
      3 C           5.0304   -2.9712   23.3680 C.3     1  UNL1        0.0624
      4 C           6.0090   -3.7819   22.5710 C.3     1  UNL1        0.2499
      5 C           6.1381   -3.5608   21.0931 C.3     1  UNL1        0.0624
      6 C           5.2887   -2.5290   20.4121 C.3     1  UNL1        0.0095
      7 O           5.8799   -4.0031   24.0490 O.3     1  UNL1       -0.1923
      8 O           6.7293   -5.0350   24.7300 O.3     1  UNL1       -0.1923
      9 C           7.7078   -5.8457   23.9330 C.3     1  UNL1        0.2495
     10 O           7.8370   -5.6246   22.4550 O.3     1  UNL1       -0.1923
     11 O           6.9875   -4.5927   21.7740 O.3     1  UNL1       -0.1923
     12 C           7.5787   -6.0669   25.4110 C.3     1  UNL1        0.0572
     13 C           8.4281   -7.0987   26.0920 C.3     1  UNL1        0.0050
     14 C           9.4067   -7.9094   25.2950 C.3     1  UNL1        0.0003
     15 C           9.2775   -8.1306   26.7729 C.3     1  UNL1        0.0000
     16 C           8.2990   -7.3198   27.5699 C.3     1  UNL1        0.0003
     17 C           7.4496   -6.2880   26.8890 C.3     1  UNL1        0.0050
     18 C           9.1022   -7.3798   24.3825 C.3     1  UNL1        0.0050
     19 C           8.6864   -6.6564   23.1360 C.3     1  UNL1        0.0572
     20 C           9.5358   -7.6883   23.8170 C.3     1  UNL1        0.0050
     21 C           1.2151    0.0037   19.4185 C.ar    1  UNL1       -0.0032
     22 C           2.0645   -1.0282   20.0996 C.ar    1  UNL1       -0.0046
     23 C           3.4607   -0.6863   20.5281 C.ar    1  UNL1       -0.0225
     24 C           4.0076    0.6874   20.2756 C.ar    1  UNL1       -0.0046
     25 C           3.1583    1.7193   19.5946 C.ar    1  UNL1       -0.0032
     26 C           1.7619    1.3774   19.1660 C.ar    1  UNL1       -0.0062
     27 C           0.9126    2.4093   18.4850 C.3     1  UNL1        0.0993
     28 N          -0.3032    2.9537   19.1745 N.3     1  UNL1       -0.2646
     29 C          -1.3251    3.7262   18.3941 C.3     1  UNL1        0.1049
     30 C          -2.5410    4.2706   19.0836 C.3     1  UNL1        0.1595
     31 O          -2.7349    4.0425   20.5534 O.3     1  UNL1       -0.3508
     32 C          -1.7130    3.2700   21.3338 C.3     1  UNL1        0.1595
     33 C          -0.4972    2.7256   20.6443 C.3     1  UNL1        0.1049
@<TRIPOS>BOND
     1    21    22   ar
     2    22    23   ar
     3    23     1    1
     4     1     2    1
     5     2     3    1
     6     3     4    1
     7     4     5    1
     8     5     6    1
     9     4     7    1
    10     7     8    1
    11     8     9    1
    12     9    10    1
    13    10    11    1
    14     9    12    1
    15    12    13    1
    16    13    14    1
    17    14    15    1
    18    15    16    1
    19    16    17    1
    20    16    18    1
    21    18    19    1
    22    19    20    1
    23    23    24   ar
    24    24    25   ar
    25    25    26   ar
    26    26    27    1
    27    27    28    1
    28    28    29    1
    29    29    30    1
    30    30    31    1
    31    31    32    1
    32    32    33    1
    33    26    21   ar
    34    33    28    1
    35     6     1    1
    36    19     9    1
    37    11     4    1
    38    17    12    1
    39    20    14    1
@<TRIPOS>MOLECULE
*****
 33 39 0 0 0
SMALL
GASTEIGER

@<TRIPOS>ATOM
      1 C           2.5229   -0.1889   19.7813 C.3     1  UNL1        0.0227
      2 C           1.4056   -0.2802   20.7779 C.3     1  UNL1        0.0095
      3 C           0.2439    0.6647   20.6908 C.3     1  UNL1        0.0624
      4 C           0.1995    1.7008   19.6071 C.3     1  UNL1        0.2499
      5 C           1.3168    1.7921   18.6105 C.3     1  UNL1        0.0624
      6 C           2.4785    0.8472   18.6976 C.3     1  UNL1        0.0095
      7 O          -0.9179    1.6096   20.6037 O.3     1  UNL1       -0.1923
      8 O          -2.0796    2.5544   20.5165 O.3     1  UNL1       -0.1923
      9 C          -2.1240    3.5905   19.4328 C.3     1  UNL1        0.2495
     10 O          -1.0067    3.6818   18.4362 O.3     1  UNL1       -0.1923
     11 O           0.1551    2.7369   18.5233 O.3     1  UNL1       -0.1923
     12 C          -3.2414    3.4993   20.4294 C.3     1  UNL1        0.0572
     13 C          -4.4031    4.4442   20.3423 C.3     1  UNL1        0.0050
     14 C          -4.4475    5.4803   19.2585 C.3     1  UNL1        0.0003
     15 C          -5.5648    5.3890   20.2551 C.3     1  UNL1        0.0000
     16 C          -5.5204    4.3529   21.3388 C.3     1  UNL1        0.0003
     17 C          -4.3587    3.4080   21.4260 C.3     1  UNL1        0.0050
     18 C          -3.4842    5.1195   18.8741 C.3     1  UNL1        0.0050
     19 C          -2.1684    4.6267   18.3491 C.3     1  UNL1        0.0572
     20 C          -3.3302    5.5716   18.2620 C.3     1  UNL1        0.0050
     21 C           6.2372   -1.5436   20.1276 C.ar    1  UNL1       -0.0032
     22 C           5.0754   -0.5987   20.0405 C.ar    1  UNL1       -0.0046
     23 C           3.6847   -1.1338   19.8685 C.ar    1  UNL1       -0.0225
     24 C           3.4557   -2.6138   19.7835 C.ar    1  UNL1       -0.0046
     25 C           4.6174   -3.5586   19.8706 C.ar    1  UNL1       -0.0032
     26 C           6.0082   -3.0236   20.0427 C.ar    1  UNL1       -0.0062
     27 C           7.1699   -3.9684   20.1298 C.3     1  UNL1        0.0993
     28 N           7.5859   -4.5250   21.4591 N.3     1  UNL1       -0.2646
     29 C           8.7281   -5.4937   21.5424 C.3     1  UNL1        0.1049
     30 C           9.1441   -6.0502   22.8718 C.3     1  UNL1        0.1595
     31 O           8.4179   -5.6380   24.1179 O.3     1  UNL1       -0.3508
     32 C           7.2757   -4.6693   24.0346 C.3     1  UNL1        0.1595
     33 C           6.8597   -4.1127   22.7052 C.3     1  UNL1        0.1049
@<TRIPOS>BOND
     1    21    22   ar
     2    22    23   ar
     3    23     1    1
     4     1     2    1
     5     2     3    1
     6     3     4    1
     7     4     5    1
     8     5     6    1
     9     4     7    1
    10     7     8    1
    11     8     9    1
    12     9    10    1
    13    10    11    1
    14     9    12    1
    15    12    13    1
    16    13    14    1
    17    14    15    1
    18    15    16    1
    19    16    17    1
    20    16    18    1
    21    18    19    1
    22    19    20    1
    23    23    24   ar
    24    24    25   ar
    25    25    26   ar
    26    26    27    1
    27    27    28    1
    28    28    29    1
    29    29    30    1
    30    30    31    1
    31    31    32    1
    32    32    33    1
    33    26    21   ar
    34    33    28    1
    35     6     1    1
    36    19     9    1
    37    11     4    1
    38    17    12    1
    39    20    14    1
@<TRIPOS>MOLECULE
*****
 33 39 0 0 0
SMALL
GASTEIGER

@<TRIPOS>ATOM
      1 C          -0.0428    2.0265   27.6951 C.3     1  UNL1        0.0227
      2 C           0.3210    2.9213   28.8426 C.3     1  UNL1        0.0095
      3 C           1.1292    2.3836   29.9860 C.3     1  UNL1        0.0624
      4 C           1.5738    0.9510   29.9819 C.3     1  UNL1        0.2499
      5 C           1.2101    0.0561   28.8344 C.3     1  UNL1        0.0624
      6 C           0.4018    0.5939   27.6910 C.3     1  UNL1        0.0095
      7 O           1.9376    1.8459   31.1295 O.3     1  UNL1       -0.1923
      8 O           2.7458    1.3081   32.2730 O.3     1  UNL1       -0.1923
      9 C           3.1904   -0.1245   32.2689 C.3     1  UNL1        0.2495
     10 O           2.8267   -1.0193   31.1213 O.3     1  UNL1       -0.1923
     11 O           2.0184   -0.4816   29.9778 O.3     1  UNL1       -0.1923
     12 C           3.5542    0.7704   33.4165 C.3     1  UNL1        0.0572
     13 C           4.3624    0.2327   34.5599 C.3     1  UNL1        0.0050
     14 C           4.8070   -1.1999   34.5558 C.3     1  UNL1        0.0003
     15 C           5.1707   -0.3051   35.7033 C.3     1  UNL1        0.0000
     16 C           4.7262    1.1275   35.7074 C.3     1  UNL1        0.0003
     17 C           3.9179    1.6653   34.5640 C.3     1  UNL1        0.0050
     18 C           4.3116   -1.3509   33.5875 C.3     1  UNL1        0.0050
     19 C           3.6350   -1.5571   32.2648 C.3     1  UNL1        0.0572
     20 C           4.4433   -2.0948   33.4083 C.3     1  UNL1        0.0050
     21 C          -1.1032    3.0687   24.0154 C.ar    1  UNL1       -0.0032
     22 C          -0.2948    2.5310   25.1589 C.ar    1  UNL1       -0.0046
     23 C          -0.8511    2.5642   26.5516 C.ar    1  UNL1       -0.0225
     24 C          -2.2156    3.1351   26.8008 C.ar    1  UNL1       -0.0046
     25 C          -3.0239    3.6728   25.6573 C.ar    1  UNL1       -0.0032
     26 C          -2.4677    3.6396   24.2646 C.ar    1  UNL1       -0.0062
     27 C          -3.2760    4.1773   23.1212 C.3     1  UNL1        0.0993
     28 N          -4.6583    4.7069   23.3636 N.3     1  UNL1       -0.2646
     29 C          -4.8480    6.1119   23.8533 C.3     1  UNL1        0.1049
     30 C          -6.2304    6.6415   24.0957 C.3     1  UNL1        0.1595
     31 O          -7.4230    5.7660   23.8484 O.3     1  UNL1       -0.3508
     32 C          -7.2333    4.3609   23.3587 C.3     1  UNL1        0.1595
     33 C          -5.8510    3.8313   23.1163 C.3     1  UNL1        0.1049
@<TRIPOS>BOND
     1    21    22   ar
     2    22    23   ar
     3    23     1    1
     4     1     2    1
     5     2     3    1
     6     3     4    1
     7     4     5    1
     8     5     6    1
     9     4     7    1
    10     7     8    1
    11     8     9    1
    12     9    10    1
    13    10    11    1
    14     9    12    1
    15    12    13    1
    16    13    14    1
    17    14    15    1
    18    15    16    1
    19    16    17    1
    20    16    18    1
    21    18    19    1
    22    19    20    1
    23    23    24   ar
    24    24    25   ar
    25    25    26   ar
    26    26    27    1
    27    27    28    1
    28    28    29    1
    29    29    30    1
    30    30    31    1
    31    31    32    1
    32    32    33    1
    33    26    21   ar
    34    33    28    1
    35     6     1    1
    36    19     9    1
    37    11     4    1
    38    17    12    1
    39    20    14    1
@<TRIPOS>MOLECULE
*****
 33 39 0 0 0
SMALL
GASTEIGER

@<TRIPOS>ATOM
      1 C           4.3895   -0.5799   28.9053 C.3     1  UNL1        0.0227
      2 C           5.1347   -1.6623   28.1822 C.3     1  UNL1        0.0095
      3 C           4.9222   -1.8652   26.7113 C.3     1  UNL1        0.0624
      4 C           3.9646   -0.9856   25.9635 C.3     1  UNL1        0.2499
      5 C           3.2194    0.0968   26.6866 C.3     1  UNL1        0.0624
      6 C           3.4318    0.2997   28.1575 C.3     1  UNL1        0.0095
      7 O           4.7098   -2.0681   25.2403 O.3     1  UNL1       -0.1923
      8 O           4.4974   -2.2710   23.7694 O.3     1  UNL1       -0.1923
      9 C           3.5397   -1.3914   23.0215 C.3     1  UNL1        0.2495
     10 O           2.7945   -0.3090   23.7446 O.3     1  UNL1       -0.1923
     11 O           3.0069   -0.1060   25.2156 O.3     1  UNL1       -0.1923
     12 C           4.2850   -2.4739   22.2983 C.3     1  UNL1        0.0572
     13 C           4.0725   -2.6767   20.8274 C.3     1  UNL1        0.0050
     14 C           3.1149   -1.7972   20.0796 C.3     1  UNL1        0.0003
     15 C           3.8601   -2.8796   19.3565 C.3     1  UNL1        0.0000
     16 C           4.8178   -3.7592   20.1043 C.3     1  UNL1        0.0003
     17 C           5.0302   -3.5563   21.5752 C.3     1  UNL1        0.0050
     18 C           2.8897   -1.2539   21.0070 C.3     1  UNL1        0.0050
     19 C           2.5821   -0.5118   22.2737 C.3     1  UNL1        0.0572
     20 C           2.3697   -0.7147   20.8027 C.3     1  UNL1        0.0050
     21 C           5.9357    0.6973   32.3300 C.ar    1  UNL1       -0.0032
     22 C           5.7233    0.4944   30.8590 C.ar    1  UNL1       -0.0046
     23 C           4.6019   -0.3770   30.3763 C.ar    1  UNL1       -0.0225
     24 C           3.6928   -1.0455   31.3646 C.ar    1  UNL1       -0.0046
     25 C           3.9051   -0.8426   32.8355 C.ar    1  UNL1       -0.0032
     26 C           5.0266    0.0288   33.3183 C.ar    1  UNL1       -0.0062
     27 C           5.2390    0.2317   34.7892 C.3     1  UNL1        0.0993
     28 N           4.2251    0.9871   35.5961 N.3     1  UNL1       -0.2646
     29 C           4.0001    0.6354   37.0369 C.3     1  UNL1        0.1049
     30 C           2.9861    1.3909   37.8438 C.3     1  UNL1        0.1595
     31 O           2.1972    2.4981   37.2100 O.3     1  UNL1       -0.3508
     32 C           2.4222    2.8498   35.7693 C.3     1  UNL1        0.1595
     33 C           3.4361    2.0944   34.9624 C.3     1  UNL1        0.1049
@<TRIPOS>BOND
     1    21    22   ar
     2    22    23   ar
     3    23     1    1
     4     1     2    1
     5     2     3    1
     6     3     4    1
     7     4     5    1
     8     5     6    1
     9     4     7    1
    10     7     8    1
    11     8     9    1
    12     9    10    1
    13    10    11    1
    14     9    12    1
    15    12    13    1
    16    13    14    1
    17    14    15    1
    18    15    16    1
    19    16    17    1
    20    16    18    1
    21    18    19    1
    22    19    20    1
    23    23    24   ar
    24    24    25   ar
    25    25    26   ar
    26    26    27    1
    27    27    28    1
    28    28    29    1
    29    29    30    1
    30    30    31    1
    31    31    32    1
    32    32    33    1
    33    26    21   ar
    34    33    28    1
    35     6     1    1
    36    19     9    1
    37    11     4    1
    38    17    12    1
    39    20    14    1
@<TRIPOS>MOLECULE
*****
 33 39 0 0 0
SMALL
GASTEIGER

@<TRIPOS>ATOM
      1 C           2.7625   -0.4098   19.9659 C.3     1  UNL1        0.0227
      2 C           2.6404    0.4576   18.7483 C.3     1  UNL1        0.0095
      3 C           1.4757    1.3922   18.6071 C.3     1  UNL1        0.0624
      4 C           0.4331    1.4593   19.6835 C.3     1  UNL1        0.2499
      5 C           0.5553    0.5918   20.9011 C.3     1  UNL1        0.0624
      6 C           1.7200   -0.3427   21.0423 C.3     1  UNL1        0.0095
      7 O           0.3109    2.3268   18.4659 O.3     1  UNL1       -0.1923
      8 O          -0.8538    3.2614   18.3247 O.3     1  UNL1       -0.1923
      9 C          -1.8964    3.3285   19.4010 C.3     1  UNL1        0.2495
     10 O          -1.7742    2.4610   20.6186 O.3     1  UNL1       -0.1923
     11 O          -0.6095    1.5264   20.7599 O.3     1  UNL1       -0.1923
     12 C          -2.0186    4.1960   18.1834 C.3     1  UNL1        0.0572
     13 C          -3.1833    5.1306   18.0422 C.3     1  UNL1        0.0050
     14 C          -4.2259    5.1977   19.1186 C.3     1  UNL1        0.0003
     15 C          -4.3480    6.0651   17.9010 C.3     1  UNL1        0.0000
     16 C          -3.3055    5.9980   16.8246 C.3     1  UNL1        0.0003
     17 C          -2.1407    5.0635   16.9658 C.3     1  UNL1        0.0050
     18 C          -3.6819    4.4360   19.6929 C.3     1  UNL1        0.0050
     19 C          -2.9389    3.3956   20.4774 C.3     1  UNL1        0.0572
     20 C          -4.1037    4.3302   20.3362 C.3     1  UNL1        0.0050
     21 C           4.8813   -3.7607   20.1473 C.ar    1  UNL1       -0.0032
     22 C           3.7165   -2.8261   20.0060 C.ar    1  UNL1       -0.0046
     23 C           3.9273   -1.3444   20.1072 C.ar    1  UNL1       -0.0225
     24 C           5.3028   -0.7973   20.3495 C.ar    1  UNL1       -0.0046
     25 C           6.4675   -1.7319   20.4908 C.ar    1  UNL1       -0.0032
     26 C           6.2568   -3.2136   20.3897 C.ar    1  UNL1       -0.0062
     27 C           7.4215   -4.1481   20.5309 C.3     1  UNL1        0.0993
     28 N           7.7398   -4.7534   21.8659 N.3     1  UNL1       -0.2646
     29 C           7.0118   -4.2893   23.0926 C.3     1  UNL1        0.1049
     30 C           7.3301   -4.8946   24.4277 C.3     1  UNL1        0.1595
     31 O           8.3764   -5.9640   24.5360 O.3     1  UNL1       -0.3508
     32 C           9.1043   -6.4281   23.3094 C.3     1  UNL1        0.1595
     33 C           8.7861   -5.8228   21.9744 C.3     1  UNL1        0.1049
@<TRIPOS>BOND
     1    21    22   ar
     2    22    23   ar
     3    23     1    1
     4     1     2    1
     5     2     3    1
     6     3     4    1
     7     4     5    1
     8     5     6    1
     9     4     7    1
    10     7     8    1
    11     8     9    1
    12     9    10    1
    13    10    11    1
    14     9    12    1
    15    12    13    1
    16    13    14    1
    17    14    15    1
    18    15    16    1
    19    16    17    1
    20    16    18    1
    21    18    19    1
    22    19    20    1
    23    23    24   ar
    24    24    25   ar
    25    25    26   ar
    26    26    27    1
    27    27    28    1
    28    28    29    1
    29    29    30    1
    30    30    31    1
    31    31    32    1
    32    32    33    1
    33    26    21   ar
    34    33    28    1
    35     6     1    1
    36    19     9    1
    37    11     4    1
    38    17    12    1
    39    20    14    1
@<TRIPOS>MOLECULE
*****
 33 39 0 0 0
SMALL
GASTEIGER

@<TRIPOS>ATOM
      1 C          -0.9646    2.7027   20.9067 C.3     1  UNL1        0.0227
      2 C          -0.8104    3.0195   22.3647 C.3     1  UNL1        0.0095
      3 C          -1.9600    3.6040   23.1308 C.3     1  UNL1        0.0624
      4 C          -3.2637    3.8716   22.4388 C.3     1  UNL1        0.2499
      5 C          -3.4178    3.5548   20.9808 C.3     1  UNL1        0.0624
      6 C          -2.2683    2.9703   20.2148 C.3     1  UNL1        0.0095
      7 O          -3.1095    4.1885   23.8969 O.3     1  UNL1       -0.1923
      8 O          -4.2591    4.7729   24.6630 O.3     1  UNL1       -0.1923
      9 C          -5.5628    5.0405   23.9710 C.3     1  UNL1        0.2495
     10 O          -5.7169    4.7237   22.5130 O.3     1  UNL1       -0.1923
     11 O          -4.5673    4.1392   21.7469 O.3     1  UNL1       -0.1923
     12 C          -5.4087    5.3574   25.4291 C.3     1  UNL1        0.0572
     13 C          -6.5582    5.9419   26.1952 C.3     1  UNL1        0.0050
     14 C          -7.8619    6.2095   25.5033 C.3     1  UNL1        0.0003
     15 C          -7.7078    6.5263   26.9613 C.3     1  UNL1        0.0000
     16 C          -6.4041    6.2587   27.6532 C.3     1  UNL1        0.0003
     17 C          -5.2545    5.6743   26.8871 C.3     1  UNL1        0.0050
     18 C          -7.4412    5.8285   24.5632 C.3     1  UNL1        0.0050
     19 C          -6.8665    5.3082   23.2791 C.3     1  UNL1        0.0572
     20 C          -8.0161    5.8927   24.0453 C.3     1  UNL1        0.0050
     21 C           2.2568    2.4319   18.6045 C.ar    1  UNL1       -0.0032
     22 C           1.1073    3.0164   19.3707 C.ar    1  UNL1       -0.0046
     23 C           0.1850    2.1182   20.1405 C.ar    1  UNL1       -0.0225
     24 C           0.4123    0.6355   20.1443 C.ar    1  UNL1       -0.0046
     25 C           1.5618    0.0510   19.3782 C.ar    1  UNL1       -0.0032
     26 C           2.4841    0.9492   18.6083 C.ar    1  UNL1       -0.0062
     27 C           3.6336    0.3647   17.8422 C.3     1  UNL1        0.0993
     28 N           4.5105   -0.6715   18.4802 N.3     1  UNL1       -0.2646
     29 C           5.3107   -0.3280   19.7016 C.3     1  UNL1        0.1049
     30 C           6.1877   -1.3644   20.3396 C.3     1  UNL1        0.1595
     31 O           6.2644   -2.7442   19.7563 O.3     1  UNL1       -0.3508
     32 C           5.4641   -3.0877   18.5350 C.3     1  UNL1        0.1595
     33 C           4.5872   -2.0514   17.8969 C.3     1  UNL1        0.1049
@<TRIPOS>BOND
     1    21    22   ar
     2    22    23   ar
     3    23     1    1
     4     1     2    1
     5     2     3    1
     6     3     4    1
     7     4     5    1
     8     5     6    1
     9     4     7    1
    10     7     8    1
    11     8     9    1
    12     9    10    1
    13    10    11    1
    14     9    12    1
    15    12    13    1
    16    13    14    1
    17    14    15    1
    18    15    16    1
    19    16    17    1
    20    16    18    1
    21    18    19    1
    22    19    20    1
    23    23    24   ar
    24    24    25   ar
    25    25    26   ar
    26    26    27    1
    27    27    28    1
    28    28    29    1
    29    29    30    1
    30    30    31    1
    31    31    32    1
    32    32    33    1
    33    26    21   ar
    34    33    28    1
    35     6     1    1
    36    19     9    1
    37    11     4    1
    38    17    12    1
    39    20    14    1
@<TRIPOS>MOLECULE
*****
 33 39 0 0 0
SMALL
GASTEIGER

@<TRIPOS>ATOM
      1 C           0.2952    1.6206   26.9932 C.3     1  UNL1        0.0227
      2 C           1.6774    1.2445   26.5481 C.3     1  UNL1        0.0095
      3 C           2.6053    0.5430   27.4950 C.3     1  UNL1        0.0624
      4 C           2.1511    0.2176   28.8871 C.3     1  UNL1        0.2499
      5 C           0.7689    0.5937   29.3322 C.3     1  UNL1        0.0624
      6 C          -0.1590    1.2952   28.3852 C.3     1  UNL1        0.0095
      7 O           3.5333   -0.1586   28.4420 O.3     1  UNL1       -0.1923
      8 O           4.4612   -0.8601   29.3890 O.3     1  UNL1       -0.1923
      9 C           4.0070   -1.1855   30.7810 C.3     1  UNL1        0.2495
     10 O           2.6248   -0.8094   31.2261 O.3     1  UNL1       -0.1923
     11 O           1.6968   -0.1078   30.2791 O.3     1  UNL1       -0.1923
     12 C           5.3892   -1.5617   30.3359 C.3     1  UNL1        0.0572
     13 C           6.3171   -2.2632   31.2829 C.3     1  UNL1        0.0050
     14 C           5.8629   -2.5886   32.6749 C.3     1  UNL1        0.0003
     15 C           7.2450   -2.9648   32.2298 C.3     1  UNL1        0.0000
     16 C           7.6993   -2.6394   30.8378 C.3     1  UNL1        0.0003
     17 C           6.7714   -1.9378   29.8909 C.3     1  UNL1        0.0050
     18 C           4.8865   -2.1332   32.4628 C.3     1  UNL1        0.0050
     19 C           3.5527   -1.5110   32.1730 C.3     1  UNL1        0.0572
     20 C           4.4807   -2.2125   33.1200 C.3     1  UNL1        0.0050
     21 C          -2.8534    3.5954   25.6014 C.ar    1  UNL1       -0.0032
     22 C          -1.9254    2.8938   26.5484 C.ar    1  UNL1       -0.0046
     23 C          -0.6328    2.3222   26.0462 C.ar    1  UNL1       -0.0225
     24 C          -0.2680    2.4521   24.5970 C.ar    1  UNL1       -0.0046
     25 C          -1.1960    3.1537   23.6501 C.ar    1  UNL1       -0.0032
     26 C          -2.4887    3.7253   24.1523 C.ar    1  UNL1       -0.0062
     27 C          -3.4166    4.4269   23.2053 C.3     1  UNL1        0.0993
     28 N          -4.8062    4.7834   23.6432 N.3     1  UNL1       -0.2646
     29 C          -5.0243    5.9272   24.5889 C.3     1  UNL1        0.1049
     30 C          -6.4140    6.2837   25.0269 C.3     1  UNL1        0.1595
     31 O          -7.5855    5.4966   24.5191 O.3     1  UNL1       -0.3508
     32 C          -7.3674    4.3529   23.5734 C.3     1  UNL1        0.1595
     33 C          -5.9778    3.9963   23.1354 C.3     1  UNL1        0.1049
@<TRIPOS>BOND
     1    21    22   ar
     2    22    23   ar
     3    23     1    1
     4     1     2    1
     5     2     3    1
     6     3     4    1
     7     4     5    1
     8     5     6    1
     9     4     7    1
    10     7     8    1
    11     8     9    1
    12     9    10    1
    13    10    11    1
    14     9    12    1
    15    12    13    1
    16    13    14    1
    17    14    15    1
    18    15    16    1
    19    16    17    1
    20    16    18    1
    21    18    19    1
    22    19    20    1
    23    23    24   ar
    24    24    25   ar
    25    25    26   ar
    26    26    27    1
    27    27    28    1
    28    28    29    1
    29    29    30    1
    30    30    31    1
    31    31    32    1
    32    32    33    1
    33    26    21   ar
    34    33    28    1
    35     6     1    1
    36    19     9    1
    37    11     4    1
    38    17    12    1
    39    20    14    1
