@<TRIPOS>MOLECULE
*****
 25 28 0 0 0
SMALL
GASTEIGER

@<TRIPOS>ATOM
      1 C          -4.7096  -18.8314   21.1348 C.ar    1  UNL1        0.1535
      2 C          -5.5453  -19.6606   20.2054 C.ar    1  UNL1        0.1332
      3 N          -7.0415  -19.6170   20.3015 N.ar    1  UNL1       -0.2394
      4 C          -7.7020  -18.7441   21.3271 C.ar    1  UNL1        0.0991
      5 C          -6.8663  -17.9148   22.2565 C.ar    1  UNL1        0.1018
      6 N          -5.3701  -17.9585   22.1604 N.ar    1  UNL1       -0.2274
      7 C          -9.1984  -18.7005   21.4231 C.ar    1  UNL1        0.0222
      8 C          -9.9613  -17.5983   20.7500 C.ar    1  UNL1        0.0222
      9 C         -11.4577  -17.5547   20.8461 C.ar    1  UNL1        0.0989
     10 N         -12.1910  -18.6133   21.6153 N.ar    1  UNL1       -0.2423
     11 C         -11.4279  -19.7155   22.2885 C.ar    1  UNL1        0.0989
     12 C          -9.9317  -19.7591   22.1924 C.ar    1  UNL1        0.0222
     13 C          -7.5269  -17.0419   23.2820 C.ar    1  UNL1        0.0383
     14 C          -8.5074  -17.6334   24.2509 C.ar    1  UNL1        0.0047
     15 C          -9.1680  -16.7605   25.2764 C.ar    1  UNL1        0.0207
     16 C          -8.8480  -15.2962   25.3331 C.ar    1  UNL1        0.0989
     17 N          -7.8674  -14.7047   24.3643 N.ar    1  UNL1       -0.2423
     18 C          -7.2069  -15.5776   23.3388 C.ar    1  UNL1        0.1004
     19 O          -3.2784  -17.0468   19.1939 O.2     1  UNL1       -0.2747
     20 C          -2.4977  -17.9827   20.0683 C.2     1  UNL1        0.2267
     21 N          -3.2132  -18.8750   21.0388 N.am    1  UNL1       -0.2681
     22 H          -2.7008  -19.4892   21.6126 H       1  UNL1        0.1563
     23 C          -1.0013  -18.0263   19.9722 C.3     1  UNL1        0.0769
     24 C           0.2643  -18.8011   19.7535 C.3     1  UNL1        0.0096
     25 C           0.3247  -17.3270   20.0245 C.3     1  UNL1        0.0096
@<TRIPOS>BOND
     1    19    20    2
     2    20    21   am
     3    21     1    1
     4     1     2   ar
     5     2     3   ar
     6     3     4   ar
     7     4     7    1
     8     7     8   ar
     9     8     9   ar
    10     9    10   ar
    11    10    11   ar
    12    11    12   ar
    13     4     5   ar
    14     5    13    1
    15    13    14   ar
    16    14    15   ar
    17    15    16   ar
    18    16    17   ar
    19    17    18   ar
    20     5     6   ar
    21    20    23    1
    22    23    24    1
    23    24    25    1
    24     6     1   ar
    25    25    23    1
    26    12     7   ar
    27    18    13   ar
    28    21    22    1
@<TRIPOS>MOLECULE
*****
 25 28 0 0 0
SMALL
GASTEIGER

@<TRIPOS>ATOM
      1 C          -6.5695  -18.6887   20.4862 C.ar    1  UNL1        0.1535
      2 C          -7.7675  -19.3715   19.8957 C.ar    1  UNL1        0.1332
      3 N          -9.1036  -19.2558   20.5675 N.ar    1  UNL1       -0.2394
      4 C          -9.2418  -18.4573   21.8297 C.ar    1  UNL1        0.0991
      5 C          -8.0439  -17.7745   22.4202 C.ar    1  UNL1        0.1018
      6 N          -6.7078  -17.8902   21.7484 N.ar    1  UNL1       -0.2274
      7 C         -10.5780  -18.3417   22.5015 C.ar    1  UNL1        0.0222
      8 C         -10.9521  -19.2961   23.5965 C.ar    1  UNL1        0.0222
      9 C         -12.2883  -19.1804   24.2683 C.ar    1  UNL1        0.0989
     10 N         -13.2504  -18.1103   23.8450 N.ar    1  UNL1       -0.2423
     11 C         -12.8763  -17.1558   22.7500 C.ar    1  UNL1        0.0989
     12 C         -11.5401  -17.2715   22.0782 C.ar    1  UNL1        0.0222
     13 C          -8.1821  -16.9760   23.6825 C.ar    1  UNL1        0.0383
     14 C          -7.7836  -15.5301   23.7027 C.ar    1  UNL1        0.0047
     15 C          -7.9218  -14.7316   24.9650 C.ar    1  UNL1        0.0207
     16 C          -8.4585  -15.3790   26.2070 C.ar    1  UNL1        0.0989
     17 N          -8.8570  -16.8250   26.1868 N.ar    1  UNL1       -0.2423
     18 C          -8.7188  -17.6235   24.9245 C.ar    1  UNL1        0.1004
     19 O          -4.0848  -17.8292   21.9309 O.2     1  UNL1       -0.2747
     20 C          -3.9910  -18.3746   20.5368 C.2     1  UNL1        0.2267
     21 N          -5.2333  -18.8044   19.8144 N.am    1  UNL1       -0.2681
     22 H          -5.1718  -19.1623   18.8993 H       1  UNL1        0.1563
     23 C          -2.6548  -18.4903   19.8650 C.3     1  UNL1        0.0769
     24 C          -1.7779  -18.2629   18.6695 C.3     1  UNL1        0.0096
     25 C          -1.2174  -18.9179   19.8970 C.3     1  UNL1        0.0096
@<TRIPOS>BOND
     1    19    20    2
     2    20    21   am
     3    21     1    1
     4     1     2   ar
     5     2     3   ar
     6     3     4   ar
     7     4     7    1
     8     7     8   ar
     9     8     9   ar
    10     9    10   ar
    11    10    11   ar
    12    11    12   ar
    13     4     5   ar
    14     5    13    1
    15    13    14   ar
    16    14    15   ar
    17    15    16   ar
    18    16    17   ar
    19    17    18   ar
    20     5     6   ar
    21    20    23    1
    22    23    24    1
    23    24    25    1
    24     6     1   ar
    25    25    23    1
    26    12     7   ar
    27    18    13   ar
    28    21    22    1
@<TRIPOS>MOLECULE
*****
 25 28 0 0 0
SMALL
GASTEIGER

@<TRIPOS>ATOM
      1 C           2.9323    0.4485   23.4812 C.ar    1  UNL1        0.1535
      2 C           3.5918    1.6717   22.9167 C.ar    1  UNL1        0.1332
      3 N           4.3974    1.5748   21.6552 N.ar    1  UNL1       -0.2394
      4 C           4.5436    0.2546   20.9582 C.ar    1  UNL1        0.0991
      5 C           3.8841   -0.9686   21.5227 C.ar    1  UNL1        0.1018
      6 N           3.0784   -0.8717   22.7842 N.ar    1  UNL1       -0.2274
      7 C           5.3493    0.1577   19.6966 C.ar    1  UNL1        0.0222
      8 C           6.8043   -0.2007   19.7616 C.ar    1  UNL1        0.0222
      9 C           7.6100   -0.2976   18.5000 C.ar    1  UNL1        0.0989
     10 N           6.9606   -0.0360   17.1734 N.ar    1  UNL1       -0.2423
     11 C           5.5054    0.3224   17.1084 C.ar    1  UNL1        0.0989
     12 C           4.6998    0.4193   18.3700 C.ar    1  UNL1        0.0222
     13 C           4.0302   -2.2888   20.8257 C.ar    1  UNL1        0.0383
     14 C           3.1036   -2.6508   19.7031 C.ar    1  UNL1        0.0047
     15 C           3.2497   -3.9710   19.0061 C.ar    1  UNL1        0.0207
     16 C           4.3225   -4.9291   19.4316 C.ar    1  UNL1        0.0989
     17 N           5.2491   -4.5671   20.5542 N.ar    1  UNL1       -0.2423
     18 C           5.1030   -3.2469   21.2512 C.ar    1  UNL1        0.1004
     19 O           0.2776    1.8457   23.4622 O.2     1  UNL1       -0.2747
     20 C           0.7993    1.2440   24.7333 C.2     1  UNL1        0.2267
     21 N           2.1266    0.5454   24.7428 N.am    1  UNL1       -0.2681
     22 H           2.4690    0.1504   25.5771 H       1  UNL1        0.1563
     23 C          -0.0064    1.3409   25.9949 C.3     1  UNL1        0.0769
     24 C          -0.4027    0.7819   27.3292 C.3     1  UNL1        0.0096
     25 C          -1.0054    2.0676   26.8456 C.3     1  UNL1        0.0096
@<TRIPOS>BOND
     1    19    20    2
     2    20    21   am
     3    21     1    1
     4     1     2   ar
     5     2     3   ar
     6     3     4   ar
     7     4     7    1
     8     7     8   ar
     9     8     9   ar
    10     9    10   ar
    11    10    11   ar
    12    11    12   ar
    13     4     5   ar
    14     5    13    1
    15    13    14   ar
    16    14    15   ar
    17    15    16   ar
    18    16    17   ar
    19    17    18   ar
    20     5     6   ar
    21    20    23    1
    22    23    24    1
    23    24    25    1
    24     6     1   ar
    25    25    23    1
    26    12     7   ar
    27    18    13   ar
    28    21    22    1
@<TRIPOS>MOLECULE
*****
 25 28 0 0 0
SMALL
GASTEIGER

@<TRIPOS>ATOM
      1 C           1.0082    1.6062   18.8842 C.ar    1  UNL1        0.1535
      2 C           0.3073    0.5820   19.7267 C.ar    1  UNL1        0.1332
      3 N           1.0651   -0.5992   20.2562 N.ar    1  UNL1       -0.2394
      4 C           2.5237   -0.7562   19.9433 C.ar    1  UNL1        0.0991
      5 C           3.2245    0.2680   19.1009 C.ar    1  UNL1        0.1018
      6 N           2.4667    1.4492   18.5713 N.ar    1  UNL1       -0.2274
      7 C           3.2814   -1.9375   20.4730 C.ar    1  UNL1        0.0222
      8 C           3.4986   -3.1404   19.6035 C.ar    1  UNL1        0.0222
      9 C           4.2564   -4.3217   20.1332 C.ar    1  UNL1        0.0989
     10 N           4.7969   -4.3000   21.5322 N.ar    1  UNL1       -0.2423
     11 C           4.5796   -3.0971   22.4017 C.ar    1  UNL1        0.0989
     12 C           3.8219   -1.9159   21.8720 C.ar    1  UNL1        0.0222
     13 C           4.6831    0.1110   18.7880 C.ar    1  UNL1        0.0383
     14 C           5.7155    0.5902   19.7649 C.ar    1  UNL1        0.0047
     15 C           7.1741    0.4332   19.4520 C.ar    1  UNL1        0.0207
     16 C           7.6002   -0.2031   18.1622 C.ar    1  UNL1        0.0989
     17 N           6.5678   -0.6823   17.1853 N.ar    1  UNL1       -0.2423
     18 C           5.1092   -0.5252   17.4982 C.ar    1  UNL1        0.1004
     19 O           0.5350    3.9938   20.6379 O.2     1  UNL1       -0.2747
     20 C           0.0139    3.9813   19.2314 C.2     1  UNL1        0.2267
     21 N           0.2504    2.7875   18.3546 N.am    1  UNL1       -0.2681
     22 H          -0.0917    2.7793   17.4315 H       1  UNL1        0.1563
     23 C          -0.7439    5.1626   18.7018 C.3     1  UNL1        0.0769
     24 C          -2.0180    5.7642   18.1875 C.3     1  UNL1        0.0096
     25 C          -0.7822    6.6069   18.2988 C.3     1  UNL1        0.0096
@<TRIPOS>BOND
     1    19    20    2
     2    20    21   am
     3    21     1    1
     4     1     2   ar
     5     2     3   ar
     6     3     4   ar
     7     4     7    1
     8     7     8   ar
     9     8     9   ar
    10     9    10   ar
    11    10    11   ar
    12    11    12   ar
    13     4     5   ar
    14     5    13    1
    15    13    14   ar
    16    14    15   ar
    17    15    16   ar
    18    16    17   ar
    19    17    18   ar
    20     5     6   ar
    21    20    23    1
    22    23    24    1
    23    24    25    1
    24     6     1   ar
    25    25    23    1
    26    12     7   ar
    27    18    13   ar
    28    21    22    1
@<TRIPOS>MOLECULE
*****
 25 28 0 0 0
SMALL
GASTEIGER

@<TRIPOS>ATOM
      1 C           4.1642   -1.7317   24.6964 C.ar    1  UNL1        0.1535
      2 C           5.4028   -2.4916   24.3245 C.ar    1  UNL1        0.1332
      3 N           5.8812   -2.4964   22.9029 N.ar    1  UNL1       -0.2394
      4 C           5.1210   -1.7413   21.8532 C.ar    1  UNL1        0.0991
      5 C           3.8824   -0.9814   22.2251 C.ar    1  UNL1        0.1018
      6 N           3.4040   -0.9766   23.6467 N.ar    1  UNL1       -0.2274
      7 C           5.5995   -1.7461   20.4315 C.ar    1  UNL1        0.0222
      8 C           6.5827   -0.7127   19.9675 C.ar    1  UNL1        0.0222
      9 C           7.0611   -0.7175   18.5458 C.ar    1  UNL1        0.0989
     10 N           6.5564   -1.7558   17.5882 N.ar    1  UNL1       -0.2423
     11 C           5.5732   -2.7893   18.0522 C.ar    1  UNL1        0.0989
     12 C           5.0948   -2.7845   19.4739 C.ar    1  UNL1        0.0222
     13 C           3.1223   -0.2262   21.1754 C.ar    1  UNL1        0.0383
     14 C           1.9795   -0.8826   20.4590 C.ar    1  UNL1        0.0047
     15 C           1.2193   -0.1275   19.4093 C.ar    1  UNL1        0.0207
     16 C           1.6019    1.2840   19.0759 C.ar    1  UNL1        0.0989
     17 N           2.7447    1.9404   19.7922 N.ar    1  UNL1       -0.2423
     18 C           3.5049    1.1853   20.8420 C.ar    1  UNL1        0.1004
     19 O           4.3279    0.7820   26.3257 O.2     1  UNL1       -0.2747
     20 C           3.7676   -0.4700   26.9327 C.2     1  UNL1        0.2267
     21 N           3.6857   -1.7269   26.1181 N.am    1  UNL1       -0.2681
     22 H           3.3180   -2.5486   26.5165 H       1  UNL1        0.1563
     23 C           3.2891   -0.4652   28.3544 C.3     1  UNL1        0.0769
     24 C           3.5834   -0.5188   29.8243 C.3     1  UNL1        0.0096
     25 C           2.1661   -0.4032   29.3469 C.3     1  UNL1        0.0096
@<TRIPOS>BOND
     1    19    20    2
     2    20    21   am
     3    21     1    1
     4     1     2   ar
     5     2     3   ar
     6     3     4   ar
     7     4     7    1
     8     7     8   ar
     9     8     9   ar
    10     9    10   ar
    11    10    11   ar
    12    11    12   ar
    13     4     5   ar
    14     5    13    1
    15    13    14   ar
    16    14    15   ar
    17    15    16   ar
    18    16    17   ar
    19    17    18   ar
    20     5     6   ar
    21    20    23    1
    22    23    24    1
    23    24    25    1
    24     6     1   ar
    25    25    23    1
    26    12     7   ar
    27    18    13   ar
    28    21    22    1
@<TRIPOS>MOLECULE
*****
 25 28 0 0 0
SMALL
GASTEIGER

@<TRIPOS>ATOM
      1 C           6.5552   -4.3823   24.8801 C.ar    1  UNL1        0.1535
      2 C           7.3542   -5.1543   23.8724 C.ar    1  UNL1        0.1332
      3 N           7.3715   -4.7197   22.4368 N.ar    1  UNL1       -0.2394
      4 C           6.5897   -3.5131   22.0091 C.ar    1  UNL1        0.0991
      5 C           5.7907   -2.7411   23.0168 C.ar    1  UNL1        0.1018
      6 N           5.7734   -3.1757   24.4523 N.ar    1  UNL1       -0.2274
      7 C           6.6070   -3.0785   20.5734 C.ar    1  UNL1        0.0222
      8 C           5.5123   -3.5136   19.6449 C.ar    1  UNL1        0.0222
      9 C           5.5296   -3.0790   18.2093 C.ar    1  UNL1        0.0989
     10 N           6.6416   -2.2093   17.7023 N.ar    1  UNL1       -0.2423
     11 C           7.7364   -1.7742   18.6310 C.ar    1  UNL1        0.0989
     12 C           7.7190   -2.2088   20.0665 C.ar    1  UNL1        0.0222
     13 C           5.0089   -1.5345   22.5890 C.ar    1  UNL1        0.0383
     14 C           3.5659   -1.6736   22.2040 C.ar    1  UNL1        0.0047
     15 C           2.7841   -0.4670   21.7762 C.ar    1  UNL1        0.0207
     16 C           3.4454    0.8786   21.7334 C.ar    1  UNL1        0.0989
     17 N           4.8884    1.0177   22.1184 N.ar    1  UNL1       -0.2423
     18 C           5.6702   -0.1889   22.5462 C.ar    1  UNL1        0.1004
     19 O           8.7364   -3.4995   26.7410 O.2     1  UNL1       -0.2747
     20 C           7.6285   -4.3755   27.2461 C.2     1  UNL1        0.2267
     21 N           6.5379   -4.8169   26.3157 N.am    1  UNL1       -0.2681
     22 H           5.8107   -5.3919   26.6472 H       1  UNL1        0.1563
     23 C           7.6112   -4.8101   28.6817 C.3     1  UNL1        0.0769
     24 C           8.3250   -5.0198   29.9842 C.3     1  UNL1        0.0096
     25 C           6.8674   -5.3531   29.8658 C.3     1  UNL1        0.0096
@<TRIPOS>BOND
     1    19    20    2
     2    20    21   am
     3    21     1    1
     4     1     2   ar
     5     2     3   ar
     6     3     4   ar
     7     4     7    1
     8     7     8   ar
     9     8     9   ar
    10     9    10   ar
    11    10    11   ar
    12    11    12   ar
    13     4     5   ar
    14     5    13    1
    15    13    14   ar
    16    14    15   ar
    17    15    16   ar
    18    16    17   ar
    19    17    18   ar
    20     5     6   ar
    21    20    23    1
    22    23    24    1
    23    24    25    1
    24     6     1   ar
    25    25    23    1
    26    12     7   ar
    27    18    13   ar
    28    21    22    1
@<TRIPOS>MOLECULE
*****
 25 28 0 0 0
SMALL
GASTEIGER

@<TRIPOS>ATOM
      1 C           0.5578    1.0582   20.2446 C.ar    1  UNL1        0.1535
      2 C           0.8209    1.0070   18.7688 C.ar    1  UNL1        0.1332
      3 N           2.0864    0.3880   18.2537 N.ar    1  UNL1       -0.2394
      4 C           3.0888   -0.1797   19.2144 C.ar    1  UNL1        0.0991
      5 C           2.8256   -0.1284   20.6902 C.ar    1  UNL1        0.1018
      6 N           1.5602    0.4905   21.2053 N.ar    1  UNL1       -0.2274
      7 C           4.3543   -0.7986   18.6992 C.ar    1  UNL1        0.0222
      8 C           4.4494   -2.2868   18.5370 C.ar    1  UNL1        0.0222
      9 C           5.7150   -2.9058   18.0218 C.ar    1  UNL1        0.0989
     10 N           6.8854   -2.0365   17.6689 N.ar    1  UNL1       -0.2423
     11 C           6.7902   -0.5483   17.8311 C.ar    1  UNL1        0.0989
     12 C           5.5247    0.0706   18.3463 C.ar    1  UNL1        0.0222
     13 C           3.8280   -0.6961   21.6509 C.ar    1  UNL1        0.0383
     14 C           3.7014   -2.1171   22.1144 C.ar    1  UNL1        0.0047
     15 C           4.7038   -2.6848   23.0751 C.ar    1  UNL1        0.0207
     16 C           5.8327   -1.8316   23.5724 C.ar    1  UNL1        0.0989
     17 N           5.9593   -0.4106   23.1090 N.ar    1  UNL1       -0.2423
     18 C           4.9570    0.1571   22.1483 C.ar    1  UNL1        0.1004
     19 O           0.6350    3.7486   21.5697 O.2     1  UNL1       -0.2747
     20 C          -0.6691    3.0224   21.4223 C.2     1  UNL1        0.2267
     21 N          -0.7078    1.6772   20.7598 N.am    1  UNL1       -0.2681
     22 H          -1.5637    1.2005   20.6631 H       1  UNL1        0.1563
     23 C          -1.9347    3.6413   21.9375 C.3     1  UNL1        0.0769
     24 C          -3.2668    4.2807   21.6794 C.3     1  UNL1        0.0096
     25 C          -2.7945    4.0740   23.0880 C.3     1  UNL1        0.0096
@<TRIPOS>BOND
     1    19    20    2
     2    20    21   am
     3    21     1    1
     4     1     2   ar
     5     2     3   ar
     6     3     4   ar
     7     4     7    1
     8     7     8   ar
     9     8     9   ar
    10     9    10   ar
    11    10    11   ar
    12    11    12   ar
    13     4     5   ar
    14     5    13    1
    15    13    14   ar
    16    14    15   ar
    17    15    16   ar
    18    16    17   ar
    19    17    18   ar
    20     5     6   ar
    21    20    23    1
    22    23    24    1
    23    24    25    1
    24     6     1   ar
    25    25    23    1
    26    12     7   ar
    27    18    13   ar
    28    21    22    1
@<TRIPOS>MOLECULE
*****
 25 28 0 0 0
SMALL
GASTEIGER

@<TRIPOS>ATOM
      1 C           0.8799    1.7415   23.1378 C.ar    1  UNL1        0.1535
      2 C          -0.0875    2.7310   22.5592 C.ar    1  UNL1        0.1332
      3 N          -1.0226    3.4809   23.4609 N.ar    1  UNL1       -0.2394
      4 C          -0.9903    3.2412   24.9413 C.ar    1  UNL1        0.0991
      5 C          -0.0229    2.2517   25.5199 C.ar    1  UNL1        0.1018
      6 N           0.9122    1.5018   24.6181 N.ar    1  UNL1       -0.2274
      7 C          -1.9254    3.9912   25.8431 C.ar    1  UNL1        0.0222
      8 C          -3.3244    3.4929   26.0542 C.ar    1  UNL1        0.0222
      9 C          -4.2596    4.2429   26.9560 C.ar    1  UNL1        0.0989
     10 N          -3.7957    5.4910   27.6466 N.ar    1  UNL1       -0.2423
     11 C          -2.3967    5.9892   27.4354 C.ar    1  UNL1        0.0989
     12 C          -1.4616    5.2393   26.5337 C.ar    1  UNL1        0.0222
     13 C           0.0094    2.0120   27.0003 C.ar    1  UNL1        0.0383
     14 C          -0.8286    0.9233   27.6022 C.ar    1  UNL1        0.0047
     15 C          -0.7963    0.6836   29.0826 C.ar    1  UNL1        0.0207
     16 C           0.0741    1.5326   29.9610 C.ar    1  UNL1        0.0989
     17 N           0.9121    2.6212   29.3591 N.ar    1  UNL1       -0.2423
     18 C           0.8798    2.8609   27.8787 C.ar    1  UNL1        0.1004
     19 O          -0.2008    0.2093   20.7959 O.2     1  UNL1       -0.2747
     20 C           1.2747    0.2255   21.0651 C.2     1  UNL1        0.2267
     21 N           1.8151    0.9915   22.2360 N.am    1  UNL1       -0.2681
     22 H           2.7836    1.0022   22.4127 H       1  UNL1        0.1563
     23 C           2.2099   -0.5245   20.1633 C.3     1  UNL1        0.0769
     24 C           2.9610   -0.6301   18.8693 C.3     1  UNL1        0.0096
     25 C           3.0785   -1.7177   19.8955 C.3     1  UNL1        0.0096
@<TRIPOS>BOND
     1    19    20    2
     2    20    21   am
     3    21     1    1
     4     1     2   ar
     5     2     3   ar
     6     3     4   ar
     7     4     7    1
     8     7     8   ar
     9     8     9   ar
    10     9    10   ar
    11    10    11   ar
    12    11    12   ar
    13     4     5   ar
    14     5    13    1
    15    13    14   ar
    16    14    15   ar
    17    15    16   ar
    18    16    17   ar
    19    17    18   ar
    20     5     6   ar
    21    20    23    1
    22    23    24    1
    23    24    25    1
    24     6     1   ar
    25    25    23    1
    26    12     7   ar
    27    18    13   ar
    28    21    22    1
@<TRIPOS>MOLECULE
*****
 25 28 0 0 0
SMALL
GASTEIGER

@<TRIPOS>ATOM
      1 C           3.9931   -1.4683   24.8702 C.ar    1  UNL1        0.1535
      2 C           3.0640   -0.2907   24.8738 C.ar    1  UNL1        0.1332
      3 N           2.6155    0.3147   23.5768 N.ar    1  UNL1       -0.2394
      4 C           3.0960   -0.2576   22.2761 C.ar    1  UNL1        0.0991
      5 C           4.0251   -1.4352   22.2725 C.ar    1  UNL1        0.1018
      6 N           4.4736   -2.0405   23.5695 N.ar    1  UNL1       -0.2274
      7 C           2.6475    0.3479   20.9791 C.ar    1  UNL1        0.0222
      8 C           3.4622    1.4302   20.3352 C.ar    1  UNL1        0.0222
      9 C           3.0136    2.0357   19.0381 C.ar    1  UNL1        0.0989
     10 N           1.7503    1.5587   18.3850 N.ar    1  UNL1       -0.2423
     11 C           0.9356    0.4763   19.0290 C.ar    1  UNL1        0.0989
     12 C           1.3841   -0.1291   20.3260 C.ar    1  UNL1        0.0222
     13 C           4.5056   -2.0074   20.9719 C.ar    1  UNL1        0.0383
     14 C           3.6757   -3.0262   20.2486 C.ar    1  UNL1        0.0047
     15 C           4.1563   -3.5985   18.9479 C.ar    1  UNL1        0.0207
     16 C           5.4667   -3.1518   18.3706 C.ar    1  UNL1        0.0989
     17 N           6.2965   -2.1330   19.0939 N.ar    1  UNL1       -0.2423
     18 C           5.8160   -1.5608   20.3945 C.ar    1  UNL1        0.1004
     19 O           6.8356   -1.1443   25.7732 O.2     1  UNL1       -0.2747
     20 C           5.8629   -1.9118   26.6187 C.2     1  UNL1        0.2267
     21 N           4.4417   -2.0738   26.1672 N.am    1  UNL1       -0.2681
     22 H           3.8032   -2.5775   26.7222 H       1  UNL1        0.1563
     23 C           6.3114   -2.5172   27.9158 C.3     1  UNL1        0.0769
     24 C           6.2892   -2.5394   29.4154 C.3     1  UNL1        0.0096
     25 C           7.1105   -3.5437   28.6626 C.3     1  UNL1        0.0096
@<TRIPOS>BOND
     1    19    20    2
     2    20    21   am
     3    21     1    1
     4     1     2   ar
     5     2     3   ar
     6     3     4   ar
     7     4     7    1
     8     7     8   ar
     9     8     9   ar
    10     9    10   ar
    11    10    11   ar
    12    11    12   ar
    13     4     5   ar
    14     5    13    1
    15    13    14   ar
    16    14    15   ar
    17    15    16   ar
    18    16    17   ar
    19    17    18   ar
    20     5     6   ar
    21    20    23    1
    22    23    24    1
    23    24    25    1
    24     6     1   ar
    25    25    23    1
    26    12     7   ar
    27    18    13   ar
    28    21    22    1
