@<TRIPOS>MOLECULE
*****
 32 36 0 0 0
SMALL
GASTEIGER

@<TRIPOS>ATOM
      1 C           6.4843   -1.4536   18.7828 C.2     1  UNL1        0.2525
      2 O           7.0938   -1.8627   17.4747 O.2     1  UNL1       -0.2698
      3 N           6.6868   -2.3027   20.0027 N.am    1  UNL1       -0.2660
      4 C           6.1419   -2.0231   21.3719 C.3     1  UNL1        0.1236
      5 C           6.5881   -3.1280   22.2829 C.ar    1  UNL1        0.0338
      6 C           6.5271   -3.6381   23.6922 C.ar    1  UNL1        0.0991
      7 N           7.3101   -4.9159   23.7570 N.ar    1  UNL1       -0.2265
      8 N           7.8551   -5.1955   22.3877 N.ar    1  UNL1       -0.1679
      9 C           7.4088   -4.0906   21.4767 C.ar    1  UNL1        0.0981
     10 C           7.4699   -3.5805   20.0674 C.3     1  UNL1        0.1414
     11 C           7.5126   -5.7649   24.9768 C.ar    1  UNL1        0.1102
     12 C           7.1948   -5.2141   26.3353 C.ar    1  UNL1        0.0214
     13 C           7.3973   -6.0631   27.5552 C.ar    1  UNL1        0.0017
     14 C           7.9176   -7.4631   27.4166 C.ar    1  UNL1        0.0024
     15 C           8.2355   -8.0140   26.0580 C.ar    1  UNL1        0.0312
     16 C           8.0330   -7.1650   24.8382 C.ar    1  UNL1        0.1577
     17 F           8.3508   -7.7159   23.4797 F       1  UNL1       -0.2026
     18 C           5.5277    2.3645   19.2899 C.ar    1  UNL1        0.1061
     19 C           4.0481    2.3206   19.0474 C.ar    1  UNL1        0.0215
     20 C           3.3805    1.0187   18.7168 C.ar    1  UNL1        0.0384
     21 C           4.1927   -0.2394   18.6286 C.ar    1  UNL1        0.1429
     22 C           5.6723   -0.1956   18.8710 C.ar    1  UNL1        0.0888
     23 C           6.3398    1.1064   19.2016 C.ar    1  UNL1        0.0259
     24 C           6.8629    4.9683   19.9511 C.3     1  UNL1        0.1816
     25 S           6.1953    3.6664   19.6205 S.O2    1  UNL1        0.0105
     26 O           7.3014    3.3431   18.6602 O.2     1  UNL1       -0.1686
     27 O           5.0893    3.9897   20.5808 O.2     1  UNL1       -0.1686
     28 O           3.5251   -1.5413   18.2979 O.3     1  UNL1       -0.4753
     29 C           3.1355   -2.4848   19.3971 C.3     1  UNL1        0.2053
     30 C           3.5760   -3.9178   19.3467 C.3     1  UNL1        0.0438
     31 C           4.4721   -4.9824   18.7868 C.3     1  UNL1        0.0038
     32 C           3.4427   -5.3351   19.8193 C.3     1  UNL1        0.0038
@<TRIPOS>BOND
     1    24    25    1
     2    25    26    2
     3    25    27    2
     4    25    18    1
     5    18    19   ar
     6    19    20   ar
     7    20    21   ar
     8    21    28    1
     9    28    29    1
    10    29    30    1
    11    30    31    1
    12    31    32    1
    13    21    22   ar
    14    22     1    1
    15     1     2    2
    16     1     3   am
    17     3     4    1
    18     4     5    1
    19     5     6   ar
    20     6     7   ar
    21     7    11    1
    22    11    12   ar
    23    12    13   ar
    24    13    14   ar
    25    14    15   ar
    26    15    16   ar
    27    16    17    1
    28     7     8   ar
    29     8     9   ar
    30     9    10    1
    31    22    23   ar
    32    23    18   ar
    33    32    30    1
    34    10     3    1
    35     9     5   ar
    36    16    11   ar
@<TRIPOS>MOLECULE
*****
 32 36 0 0 0
SMALL
GASTEIGER

@<TRIPOS>ATOM
      1 C           5.9180    0.1428   20.3984 C.2     1  UNL1        0.2525
      2 O           6.9763    1.1435   20.0399 O.2     1  UNL1       -0.2698
      3 N           6.2250   -0.9583   21.3697 N.am    1  UNL1       -0.2660
      4 C           5.2734   -2.0260   21.8218 C.3     1  UNL1        0.1236
      5 C           5.9980   -2.9125   22.7909 C.ar    1  UNL1        0.0338
      6 C           5.8576   -4.1203   23.6693 C.ar    1  UNL1        0.0991
      7 N           7.1703   -4.3470   24.3589 N.ar    1  UNL1       -0.2265
      8 N           8.1219   -3.2793   23.9067 N.ar    1  UNL1       -0.1679
      9 C           7.3974   -2.3927   22.9377 C.ar    1  UNL1        0.0981
     10 C           7.5377   -1.1849   22.0593 C.3     1  UNL1        0.1414
     11 C           7.4774   -5.4480   25.3301 C.ar    1  UNL1        0.1102
     12 C           7.2697   -5.2313   26.7998 C.ar    1  UNL1        0.0214
     13 C           7.5768   -6.3324   27.7711 C.ar    1  UNL1        0.0017
     14 C           8.0916   -7.6501   27.2727 C.ar    1  UNL1        0.0024
     15 C           8.2993   -7.8669   25.8030 C.ar    1  UNL1        0.0312
     16 C           7.9922   -6.7659   24.8318 C.ar    1  UNL1        0.1577
     17 F           8.1998   -6.9826   23.3621 F       1  UNL1       -0.2026
     18 C           2.0635    0.9713   19.9433 C.ar    1  UNL1        0.1061
     19 C           1.8216    0.4440   18.5601 C.ar    1  UNL1        0.0215
     20 C           2.9451   -0.1838   17.7896 C.ar    1  UNL1        0.0384
     21 C           4.3106   -0.2841   18.4024 C.ar    1  UNL1        0.1429
     22 C           4.5525    0.2432   19.7857 C.ar    1  UNL1        0.0888
     23 C           3.4289    0.8709   20.5561 C.ar    1  UNL1        0.0259
     24 C          -0.1835    2.2267   21.4843 C.3     1  UNL1        0.1816
     25 S           0.9400    1.5990   20.7138 S.O2    1  UNL1        0.0105
     26 O           1.7590    2.8426   20.8948 O.2     1  UNL1       -0.1686
     27 O           0.1211    0.3554   20.5328 O.2     1  UNL1       -0.1686
     28 O           5.4341   -0.9118   17.6319 O.3     1  UNL1       -0.4753
     29 C           5.9073   -2.2907   17.9851 C.3     1  UNL1        0.2053
     30 C           4.9335   -3.3088   18.5002 C.3     1  UNL1        0.0438
     31 C           3.5680   -3.6565   19.0144 C.3     1  UNL1        0.0038
     32 C           4.6124   -4.7245   18.8781 C.3     1  UNL1        0.0038
@<TRIPOS>BOND
     1    24    25    1
     2    25    26    2
     3    25    27    2
     4    25    18    1
     5    18    19   ar
     6    19    20   ar
     7    20    21   ar
     8    21    28    1
     9    28    29    1
    10    29    30    1
    11    30    31    1
    12    31    32    1
    13    21    22   ar
    14    22     1    1
    15     1     2    2
    16     1     3   am
    17     3     4    1
    18     4     5    1
    19     5     6   ar
    20     6     7   ar
    21     7    11    1
    22    11    12   ar
    23    12    13   ar
    24    13    14   ar
    25    14    15   ar
    26    15    16   ar
    27    16    17    1
    28     7     8   ar
    29     8     9   ar
    30     9    10    1
    31    22    23   ar
    32    23    18   ar
    33    32    30    1
    34    10     3    1
    35     9     5   ar
    36    16    11   ar
@<TRIPOS>MOLECULE
*****
 32 36 0 0 0
SMALL
GASTEIGER

@<TRIPOS>ATOM
      1 C           2.1439    0.3297   19.2771 C.2     1  UNL1        0.2525
      2 O           0.9464    0.4409   18.3807 O.2     1  UNL1       -0.2698
      3 N           1.9946    0.5289   20.7563 N.am    1  UNL1       -0.2660
      4 C           3.0953    0.4490   21.7722 C.3     1  UNL1        0.1236
      5 C           2.4994    0.7138   23.1230 C.ar    1  UNL1        0.0338
      6 C           2.8113    0.8280   24.5858 C.ar    1  UNL1        0.0991
      7 N           1.5352    1.1422   25.3088 N.ar    1  UNL1       -0.2265
      8 N           0.4344    1.2220   24.2928 N.ar    1  UNL1       -0.1679
      9 C           1.0304    0.9573   22.9420 C.ar    1  UNL1        0.0981
     10 C           0.7184    0.8430   21.4793 C.3     1  UNL1        0.1414
     11 C           1.3859    1.3414   26.7879 C.ar    1  UNL1        0.1102
     12 C           0.5654    2.4825   27.3120 C.ar    1  UNL1        0.0214
     13 C           0.4161    2.6818   28.7912 C.ar    1  UNL1        0.0017
     14 C           1.0873    1.7399   29.7464 C.ar    1  UNL1        0.0024
     15 C           1.9078    0.5987   29.2223 C.ar    1  UNL1        0.0312
     16 C           2.0571    0.3995   27.7432 C.ar    1  UNL1        0.1577
     17 F           2.8775   -0.7416   27.2191 F       1  UNL1       -0.2026
     18 C           5.6431    0.7954   17.4635 C.ar    1  UNL1        0.1061
     19 C           6.1844   -0.6020   17.5287 C.ar    1  UNL1        0.0215
     20 C           5.3789   -1.6888   18.1767 C.ar    1  UNL1        0.0384
     21 C           4.0320   -1.3782   18.7595 C.ar    1  UNL1        0.1429
     22 C           3.4907    0.0192   18.6943 C.ar    1  UNL1        0.0888
     23 C           4.2963    1.1060   18.0463 C.ar    1  UNL1        0.0259
     24 C           7.2540    2.9692   16.1675 C.3     1  UNL1        0.1816
     25 S           6.4485    1.8823   16.8155 S.O2    1  UNL1        0.0105
     26 O           7.3171    0.8488   16.1616 O.2     1  UNL1       -0.1686
     27 O           5.5800    2.9158   17.4693 O.2     1  UNL1       -0.1686
     28 O           3.2266   -2.4651   19.4075 O.3     1  UNL1       -0.4753
     29 C           3.9192   -3.6260   20.0575 C.3     1  UNL1        0.2053
     30 C           4.5463   -3.4634   21.4104 C.3     1  UNL1        0.0438
     31 C           5.6711   -3.7421   22.3628 C.3     1  UNL1        0.0038
     32 C           4.5077   -2.9030   22.8012 C.3     1  UNL1        0.0038
@<TRIPOS>BOND
     1    24    25    1
     2    25    26    2
     3    25    27    2
     4    25    18    1
     5    18    19   ar
     6    19    20   ar
     7    20    21   ar
     8    21    28    1
     9    28    29    1
    10    29    30    1
    11    30    31    1
    12    31    32    1
    13    21    22   ar
    14    22     1    1
    15     1     2    2
    16     1     3   am
    17     3     4    1
    18     4     5    1
    19     5     6   ar
    20     6     7   ar
    21     7    11    1
    22    11    12   ar
    23    12    13   ar
    24    13    14   ar
    25    14    15   ar
    26    15    16   ar
    27    16    17    1
    28     7     8   ar
    29     8     9   ar
    30     9    10    1
    31    22    23   ar
    32    23    18   ar
    33    32    30    1
    34    10     3    1
    35     9     5   ar
    36    16    11   ar
@<TRIPOS>MOLECULE
*****
 32 36 0 0 0
SMALL
GASTEIGER

@<TRIPOS>ATOM
      1 C           4.4927    0.6680   22.5049 C.2     1  UNL1        0.2525
      2 O           5.5918    1.3513   21.7465 O.2     1  UNL1       -0.2698
      3 N           4.7603    0.1059   23.8696 N.am    1  UNL1       -0.2660
      4 C           3.7659   -0.6002   24.7428 C.3     1  UNL1        0.1236
      5 C           4.4603   -0.9913   26.0135 C.ar    1  UNL1        0.0338
      6 C           4.2749   -1.6695   27.3386 C.ar    1  UNL1        0.0991
      7 N           5.5840   -1.6242   28.0697 N.ar    1  UNL1       -0.2265
      8 N           6.5784   -0.9181   27.1964 N.ar    1  UNL1       -0.1679
      9 C           5.8839   -0.5270   25.9257 C.ar    1  UNL1        0.0981
     10 C           6.0693    0.1512   24.6006 C.3     1  UNL1        0.1414
     11 C           5.8516   -2.1863   29.4343 C.ar    1  UNL1        0.1102
     12 C           5.4071   -1.4362   30.6549 C.ar    1  UNL1        0.0214
     13 C           5.6747   -1.9983   32.0196 C.ar    1  UNL1        0.0017
     14 C           6.3868   -3.3106   32.1637 C.ar    1  UNL1        0.0024
     15 C           6.8313   -4.0608   30.9431 C.ar    1  UNL1        0.0312
     16 C           6.5637   -3.4987   29.5785 C.ar    1  UNL1        0.1577
     17 F           7.0081   -4.2489   28.3580 F       1  UNL1       -0.2026
     18 C           0.7205    1.4715   21.5698 C.ar    1  UNL1        0.1061
     19 C           0.3927    0.3047   20.6860 C.ar    1  UNL1        0.0215
     20 C           1.4317   -0.7411   20.4085 C.ar    1  UNL1        0.0384
     21 C           2.7983   -0.6199   21.0149 C.ar    1  UNL1        0.1429
     22 C           3.1261    0.5469   21.8986 C.ar    1  UNL1        0.0888
     23 C           2.0871    1.5927   22.1761 C.ar    1  UNL1        0.0259
     24 C          -1.3574    3.5631   22.1247 C.3     1  UNL1        0.1816
     25 S          -0.3185    2.5173   21.8473 S.O2    1  UNL1        0.0105
     26 O           0.4851    3.0056   23.0160 O.2     1  UNL1       -0.1686
     27 O          -1.1221    2.0291   20.6785 O.2     1  UNL1       -0.1686
     28 O           3.8373   -1.6657   20.7374 O.3     1  UNL1       -0.4753
     29 C           3.8894   -2.3336   19.3953 C.3     1  UNL1        0.2053
     30 C           3.9629   -3.8290   19.3041 C.3     1  UNL1        0.0438
     31 C           4.5922   -5.0664   18.7360 C.3     1  UNL1        0.0038
     32 C           3.4610   -5.1817   19.7143 C.3     1  UNL1        0.0038
@<TRIPOS>BOND
     1    24    25    1
     2    25    26    2
     3    25    27    2
     4    25    18    1
     5    18    19   ar
     6    19    20   ar
     7    20    21   ar
     8    21    28    1
     9    28    29    1
    10    29    30    1
    11    30    31    1
    12    31    32    1
    13    21    22   ar
    14    22     1    1
    15     1     2    2
    16     1     3   am
    17     3     4    1
    18     4     5    1
    19     5     6   ar
    20     6     7   ar
    21     7    11    1
    22    11    12   ar
    23    12    13   ar
    24    13    14   ar
    25    14    15   ar
    26    15    16   ar
    27    16    17    1
    28     7     8   ar
    29     8     9   ar
    30     9    10    1
    31    22    23   ar
    32    23    18   ar
    33    32    30    1
    34    10     3    1
    35     9     5   ar
    36    16    11   ar
@<TRIPOS>MOLECULE
*****
 32 36 0 0 0
SMALL
GASTEIGER

@<TRIPOS>ATOM
      1 C           3.6125   -0.0763   29.4377 C.2     1  UNL1        0.2525
      2 O           4.3755   -0.9533   30.3857 O.2     1  UNL1       -0.2698
      3 N           3.6306   -0.3681   27.9664 N.am    1  UNL1       -0.2660
      4 C           2.9201    0.4160   26.9032 C.3     1  UNL1        0.1236
      5 C           3.2128   -0.2266   25.5798 C.ar    1  UNL1        0.0338
      6 C           2.9546   -0.1391   24.1048 C.ar    1  UNL1        0.0991
      7 N           3.6865   -1.2663   23.4384 N.ar    1  UNL1       -0.2265
      8 N           4.3970   -2.0503   24.5017 N.ar    1  UNL1       -0.1679
      9 C           4.1043   -1.4078   25.8251 C.ar    1  UNL1        0.0981
     10 C           4.3625   -1.4952   27.3001 C.3     1  UNL1        0.1414
     11 C           3.7046   -1.5581   21.9673 C.ar    1  UNL1        0.1102
     12 C           3.3505   -0.4815   20.9847 C.ar    1  UNL1        0.0214
     13 C           3.3687   -0.7733   19.5134 C.ar    1  UNL1        0.0017
     14 C           3.7409   -2.1417   19.0248 C.ar    1  UNL1        0.0024
     15 C           4.0950   -3.2184   20.0074 C.ar    1  UNL1        0.0312
     16 C           4.0769   -2.9266   21.4786 C.ar    1  UNL1        0.1577
     17 F           4.4310   -4.0032   22.4612 F       1  UNL1       -0.2026
     18 C           2.7622    3.5170   30.8922 C.ar    1  UNL1        0.1061
     19 C           1.2692    3.4302   31.0073 C.ar    1  UNL1        0.0215
     20 C           0.5572    2.1746   30.5992 C.ar    1  UNL1        0.0384
     21 C           1.3384    1.0058   30.0759 C.ar    1  UNL1        0.1429
     22 C           2.8314    1.0925   29.9609 C.ar    1  UNL1        0.0888
     23 C           3.5434    2.3482   30.3690 C.ar    1  UNL1        0.0259
     24 C           4.1862    6.0281   31.7085 C.3     1  UNL1        0.1816
     25 S           3.4742    4.7726   31.3004 S.O2    1  UNL1        0.0105
     26 O           4.7393    4.2563   30.6815 O.2     1  UNL1       -0.1686
     27 O           2.2091    5.2888   31.9193 O.2     1  UNL1       -0.1686
     28 O           0.6264   -0.2498   29.6678 O.3     1  UNL1       -0.4753
     29 C          -0.5885   -0.1721   28.7914 C.3     1  UNL1        0.2053
     30 C          -0.6676    0.8636   27.7093 C.3     1  UNL1        0.0438
     31 C          -0.4191    1.2812   26.2902 C.3     1  UNL1        0.0038
     32 C          -1.0531    2.2399   27.2540 C.3     1  UNL1        0.0038
@<TRIPOS>BOND
     1    24    25    1
     2    25    26    2
     3    25    27    2
     4    25    18    1
     5    18    19   ar
     6    19    20   ar
     7    20    21   ar
     8    21    28    1
     9    28    29    1
    10    29    30    1
    11    30    31    1
    12    31    32    1
    13    21    22   ar
    14    22     1    1
    15     1     2    2
    16     1     3   am
    17     3     4    1
    18     4     5    1
    19     5     6   ar
    20     6     7   ar
    21     7    11    1
    22    11    12   ar
    23    12    13   ar
    24    13    14   ar
    25    14    15   ar
    26    15    16   ar
    27    16    17    1
    28     7     8   ar
    29     8     9   ar
    30     9    10    1
    31    22    23   ar
    32    23    18   ar
    33    32    30    1
    34    10     3    1
    35     9     5   ar
    36    16    11   ar
@<TRIPOS>MOLECULE
*****
 32 36 0 0 0
SMALL
GASTEIGER

@<TRIPOS>ATOM
      1 C           4.9384    1.0518   28.1379 C.2     1  UNL1        0.2525
      2 O           5.3055    2.5032   28.2303 O.2     1  UNL1       -0.2698
      3 N           4.9163    0.3672   26.8034 N.am    1  UNL1       -0.2660
      4 C           4.5708   -1.0714   26.5561 C.3     1  UNL1        0.1236
      5 C           4.6768   -1.3266   25.0818 C.ar    1  UNL1        0.0338
      6 C           4.5288   -2.3734   24.0177 C.ar    1  UNL1        0.0991
      7 N           4.8484   -1.7397   22.6962 N.ar    1  UNL1       -0.2265
      8 N           5.1940   -0.3011   22.9436 N.ar    1  UNL1       -0.1679
      9 C           5.0879   -0.0458   24.4180 C.ar    1  UNL1        0.0981
     10 C           5.2360    1.0010   25.4820 C.3     1  UNL1        0.1414
     11 C           4.8263   -2.4242   21.3618 C.ar    1  UNL1        0.1102
     12 C           5.9626   -3.3160   20.9574 C.ar    1  UNL1        0.0214
     13 C           5.9405   -4.0006   19.6229 C.ar    1  UNL1        0.0017
     14 C           4.7822   -3.7933   18.6928 C.ar    1  UNL1        0.0024
     15 C           3.6458   -2.9014   19.0971 C.ar    1  UNL1        0.0312
     16 C           3.6679   -2.2169   20.4316 C.ar    1  UNL1        0.1577
     17 F           2.5316   -1.3251   20.8359 F       1  UNL1       -0.2026
     18 C           5.1860   -1.5320   31.1401 C.ar    1  UNL1        0.1061
     19 C           3.9033   -1.2488   31.8644 C.ar    1  UNL1        0.0215
     20 C           2.9656   -0.1988   31.3465 C.ar    1  UNL1        0.0384
     21 C           3.3107    0.5680   30.1043 C.ar    1  UNL1        0.1429
     22 C           4.5934    0.2849   29.3800 C.ar    1  UNL1        0.0888
     23 C           5.5311   -0.7652   29.8980 C.ar    1  UNL1        0.0259
     24 C           7.0614   -3.6320   32.1759 C.3     1  UNL1        0.1816
     25 S           6.1237   -2.5820   31.6580 S.O2    1  UNL1        0.0105
     26 O           5.2853   -2.7211   32.8940 O.2     1  UNL1       -0.1686
     27 O           6.9622   -2.4428   30.4220 O.2     1  UNL1       -0.1686
     28 O           2.3731    1.6181   29.5864 O.3     1  UNL1       -0.4753
     29 C           0.9383    1.6239   30.0238 C.3     1  UNL1        0.2053
     30 C          -0.1088    0.9721   29.1701 C.3     1  UNL1        0.0438
     31 C          -0.9811    0.9820   27.9499 C.3     1  UNL1        0.0038
     32 C          -1.0500   -0.1670   28.9117 C.3     1  UNL1        0.0038
@<TRIPOS>BOND
     1    24    25    1
     2    25    26    2
     3    25    27    2
     4    25    18    1
     5    18    19   ar
     6    19    20   ar
     7    20    21   ar
     8    21    28    1
     9    28    29    1
    10    29    30    1
    11    30    31    1
    12    31    32    1
    13    21    22   ar
    14    22     1    1
    15     1     2    2
    16     1     3   am
    17     3     4    1
    18     4     5    1
    19     5     6   ar
    20     6     7   ar
    21     7    11    1
    22    11    12   ar
    23    12    13   ar
    24    13    14   ar
    25    14    15   ar
    26    15    16   ar
    27    16    17    1
    28     7     8   ar
    29     8     9   ar
    30     9    10    1
    31    22    23   ar
    32    23    18   ar
    33    32    30    1
    34    10     3    1
    35     9     5   ar
    36    16    11   ar
@<TRIPOS>MOLECULE
*****
 32 36 0 0 0
SMALL
GASTEIGER

@<TRIPOS>ATOM
      1 C           5.0225   -0.2736   22.2105 C.2     1  UNL1        0.2525
      2 O           6.1959    0.1378   21.3716 O.2     1  UNL1       -0.2698
      3 N           5.2316   -0.7088   23.6306 N.am    1  UNL1       -0.2660
      4 C           4.1606   -1.1457   24.5857 C.3     1  UNL1        0.1236
      5 C           4.8156   -1.4904   25.8904 C.ar    1  UNL1        0.0338
      6 C           4.5584   -1.9735   27.2870 C.ar    1  UNL1        0.0991
      7 N           5.8753   -2.0483   28.0015 N.ar    1  UNL1       -0.2265
      8 N           6.9463   -1.6114   27.0463 N.ar    1  UNL1       -0.1679
      9 C           6.2913   -1.2666   25.7416 C.ar    1  UNL1        0.0981
     10 C           6.5484   -0.7836   24.3450 C.3     1  UNL1        0.1414
     11 C           6.0844   -2.4835   29.4215 C.ar    1  UNL1        0.1102
     12 C           6.6776   -3.8298   29.7138 C.ar    1  UNL1        0.0214
     13 C           6.8867   -4.2651   31.1339 C.ar    1  UNL1        0.0017
     14 C           6.5027   -3.3540   32.2619 C.ar    1  UNL1        0.0024
     15 C           5.9095   -2.0075   31.9696 C.ar    1  UNL1        0.0312
     16 C           5.7003   -1.5723   30.5496 C.ar    1  UNL1        0.1577
     17 F           5.1071   -0.2260   30.2573 F       1  UNL1       -0.2026
     18 C           1.3081    0.8758   21.4152 C.ar    1  UNL1        0.1061
     19 C           0.8747   -0.2023   20.4665 C.ar    1  UNL1        0.0215
     20 C           1.8239   -1.3041   20.0991 C.ar    1  UNL1        0.0384
     21 C           3.2065   -1.3278   20.6805 C.ar    1  UNL1        0.1429
     22 C           3.6399   -0.2498   21.6292 C.ar    1  UNL1        0.0888
     23 C           2.6906    0.8521   21.9965 C.ar    1  UNL1        0.0259
     24 C          -0.5903    3.0795   22.1499 C.3     1  UNL1        0.1816
     25 S           0.3589    1.9776   21.7826 S.O2    1  UNL1        0.0105
     26 O           0.8309    1.9101   23.2048 O.2     1  UNL1       -0.1686
     27 O          -0.1131    2.0452   20.3604 O.2     1  UNL1       -0.1686
     28 O           4.1557   -2.4297   20.3131 O.3     1  UNL1       -0.4753
     29 C           4.5194   -2.6583   18.8760 C.3     1  UNL1        0.2053
     30 C           4.4848   -1.5172   17.9029 C.3     1  UNL1        0.0438
     31 C           5.1751   -0.3810   17.2082 C.3     1  UNL1        0.0038
     32 C           3.7346   -0.6770   16.9124 C.3     1  UNL1        0.0038
@<TRIPOS>BOND
     1    24    25    1
     2    25    26    2
     3    25    27    2
     4    25    18    1
     5    18    19   ar
     6    19    20   ar
     7    20    21   ar
     8    21    28    1
     9    28    29    1
    10    29    30    1
    11    30    31    1
    12    31    32    1
    13    21    22   ar
    14    22     1    1
    15     1     2    2
    16     1     3   am
    17     3     4    1
    18     4     5    1
    19     5     6   ar
    20     6     7   ar
    21     7    11    1
    22    11    12   ar
    23    12    13   ar
    24    13    14   ar
    25    14    15   ar
    26    15    16   ar
    27    16    17    1
    28     7     8   ar
    29     8     9   ar
    30     9    10    1
    31    22    23   ar
    32    23    18   ar
    33    32    30    1
    34    10     3    1
    35     9     5   ar
    36    16    11   ar
@<TRIPOS>MOLECULE
*****
 32 36 0 0 0
SMALL
GASTEIGER

@<TRIPOS>ATOM
      1 C           4.5993   -1.1690   28.6187 C.2     1  UNL1        0.2525
      2 O           5.6000   -1.9120   29.4532 O.2     1  UNL1       -0.2698
      3 N           4.5836   -1.3485   27.1296 N.am    1  UNL1       -0.2660
      4 C           3.6467   -0.6761   26.1703 C.3     1  UNL1        0.1236
      5 C           3.9862   -1.1440   24.7862 C.ar    1  UNL1        0.0338
      6 C           3.6170   -1.0176   23.3378 C.ar    1  UNL1        0.0991
      7 N           4.5353   -1.9010   22.5465 N.ar    1  UNL1       -0.2265
      8 N           5.4722   -2.5735   23.5059 N.ar    1  UNL1       -0.1679
      9 C           5.1327   -2.1056   24.8900 C.ar    1  UNL1        0.0981
     10 C           5.5020   -2.2320   26.3383 C.3     1  UNL1        0.1414
     11 C           4.5197   -2.0806   21.0574 C.ar    1  UNL1        0.1102
     12 C           4.7382   -0.9007   20.1574 C.ar    1  UNL1        0.0214
     13 C           4.7226   -1.0802   18.6682 C.ar    1  UNL1        0.0017
     14 C           4.4883   -2.4396   18.0791 C.ar    1  UNL1        0.0024
     15 C           4.2697   -3.6196   18.9792 C.ar    1  UNL1        0.0312
     16 C           4.2854   -3.4400   20.4682 C.ar    1  UNL1        0.1577
     17 F           4.0668   -4.6199   21.3683 F       1  UNL1       -0.2026
     18 C           1.1869    0.6473   29.5169 C.ar    1  UNL1        0.1061
     19 C           1.6440    1.5986   30.5828 C.ar    1  UNL1        0.0215
     20 C           3.0863    1.6273   30.9940 C.ar    1  UNL1        0.0384
     21 C           4.0713    0.7048   30.3393 C.ar    1  UNL1        0.1429
     22 C           3.6142   -0.2465   29.2734 C.ar    1  UNL1        0.0888
     23 C           2.1719   -0.2752   28.8622 C.ar    1  UNL1        0.0259
     24 C          -1.6976    0.5898   28.6945 C.3     1  UNL1        0.1816
     25 S          -0.2554    0.6185   29.1057 S.O2    1  UNL1        0.0105
     26 O          -0.3332   -0.8319   29.4800 O.2     1  UNL1       -0.1686
     27 O          -0.1776    2.0690   28.7314 O.2     1  UNL1       -0.1686
     28 O           5.5136    0.7335   30.7505 O.3     1  UNL1       -0.4753
     29 C           5.9127    0.2668   32.1190 C.3     1  UNL1        0.2053
     30 C           5.1059   -0.7878   32.8167 C.3     1  UNL1        0.0438
     31 C           4.3969   -1.2819   34.0428 C.3     1  UNL1        0.0038
     32 C           4.4173   -2.1203   32.7991 C.3     1  UNL1        0.0038
@<TRIPOS>BOND
     1    24    25    1
     2    25    26    2
     3    25    27    2
     4    25    18    1
     5    18    19   ar
     6    19    20   ar
     7    20    21   ar
     8    21    28    1
     9    28    29    1
    10    29    30    1
    11    30    31    1
    12    31    32    1
    13    21    22   ar
    14    22     1    1
    15     1     2    2
    16     1     3   am
    17     3     4    1
    18     4     5    1
    19     5     6   ar
    20     6     7   ar
    21     7    11    1
    22    11    12   ar
    23    12    13   ar
    24    13    14   ar
    25    14    15   ar
    26    15    16   ar
    27    16    17    1
    28     7     8   ar
    29     8     9   ar
    30     9    10    1
    31    22    23   ar
    32    23    18   ar
    33    32    30    1
    34    10     3    1
    35     9     5   ar
    36    16    11   ar
@<TRIPOS>MOLECULE
*****
 32 36 0 0 0
SMALL
GASTEIGER

@<TRIPOS>ATOM
      1 C           6.0926    0.4910   28.2941 C.2     1  UNL1        0.2525
      2 O           7.2523    1.4282   28.4572 O.2     1  UNL1       -0.2698
      3 N           5.7743   -0.0806   26.9443 N.am    1  UNL1       -0.2660
      4 C           4.6525   -1.0251   26.6290 C.3     1  UNL1        0.1236
      5 C           4.7068   -1.3362   25.1626 C.ar    1  UNL1        0.0338
      6 C           4.0470   -2.1122   24.0615 C.ar    1  UNL1        0.0991
      7 N           4.7946   -1.8396   22.7899 N.ar    1  UNL1       -0.2265
      8 N           5.9164   -0.8950   23.1052 N.ar    1  UNL1       -0.1679
      9 C           5.8621   -0.5839   24.5716 C.ar    1  UNL1        0.0981
     10 C           6.5219    0.1921   25.6728 C.3     1  UNL1        0.1414
     11 C           4.4763   -2.4110   21.4402 C.ar    1  UNL1        0.1102
     12 C           4.4766   -3.8970   21.2358 C.ar    1  UNL1        0.0214
     13 C           4.1582   -4.4686   19.8860 C.ar    1  UNL1        0.0017
     14 C           3.8397   -3.5541   18.7405 C.ar    1  UNL1        0.0024
     15 C           3.8394   -2.0680   18.9448 C.ar    1  UNL1        0.0312
     16 C           4.1577   -1.4966   20.2946 C.ar    1  UNL1        0.1577
     17 F           4.1574   -0.0105   20.4989 F       1  UNL1       -0.2026
     18 C           3.2020    0.5795   31.0120 C.ar    1  UNL1        0.1061
     19 C           3.5685   -0.6063   31.8543 C.ar    1  UNL1        0.0215
     20 C           4.7764   -1.4263   31.5100 C.ar    1  UNL1        0.0384
     21 C           5.6177   -1.0605   30.3232 C.ar    1  UNL1        0.1429
     22 C           5.2512    0.1252   29.4808 C.ar    1  UNL1        0.0888
     23 C           4.0433    0.9453   29.8252 C.ar    1  UNL1        0.0259
     24 C           0.7863    2.2196   31.7007 C.3     1  UNL1        0.1816
     25 S           1.9942    1.3996   31.3563 S.O2    1  UNL1        0.0105
     26 O           1.1315    0.4609   30.5659 O.2     1  UNL1       -0.1686
     27 O           2.8568    2.3382   32.1468 O.2     1  UNL1       -0.1686
     28 O           6.8256   -1.8806   29.9788 O.3     1  UNL1       -0.4753
     29 C           7.3919   -2.8401   30.9832 C.3     1  UNL1        0.2053
     30 C           7.1381   -4.3116   30.8407 C.3     1  UNL1        0.0438
     31 C           6.8178   -5.4971   29.9794 C.3     1  UNL1        0.0038
     32 C           7.0189   -5.6747   31.4552 C.3     1  UNL1        0.0038
@<TRIPOS>BOND
     1    24    25    1
     2    25    26    2
     3    25    27    2
     4    25    18    1
     5    18    19   ar
     6    19    20   ar
     7    20    21   ar
     8    21    28    1
     9    28    29    1
    10    29    30    1
    11    30    31    1
    12    31    32    1
    13    21    22   ar
    14    22     1    1
    15     1     2    2
    16     1     3   am
    17     3     4    1
    18     4     5    1
    19     5     6   ar
    20     6     7   ar
    21     7    11    1
    22    11    12   ar
    23    12    13   ar
    24    13    14   ar
    25    14    15   ar
    26    15    16   ar
    27    16    17    1
    28     7     8   ar
    29     8     9   ar
    30     9    10    1
    31    22    23   ar
    32    23    18   ar
    33    32    30    1
    34    10     3    1
    35     9     5   ar
    36    16    11   ar
