@<TRIPOS>MOLECULE
*****
 26 28 0 0 0
SMALL
GASTEIGER

@<TRIPOS>ATOM
      1 C          -9.9311  -19.0831   21.1507 C.ar    1  UNL1        0.1889
      2 C          -9.2645  -19.2997   19.8246 C.ar    1  UNL1        0.1403
      3 N          -7.7675  -19.3184   19.7318 N.ar    1  UNL1       -0.2204
      4 C          -6.9370  -19.1206   20.9652 C.ar    1  UNL1        0.1816
      5 N          -7.6037  -18.9040   22.2913 N.ar    1  UNL1       -0.2074
      6 C          -9.1007  -18.8853   22.3841 C.ar    1  UNL1        0.1663
      7 C          -5.4400  -19.1394   20.8725 C.ar    1  UNL1        0.1170
      8 C          -4.6188  -19.5074   22.0725 C.ar    1  UNL1        0.0223
      9 C          -3.1218  -19.5262   21.9797 C.ar    1  UNL1        0.0032
     10 C          -2.4460  -19.1769   20.6869 C.ar    1  UNL1        0.0207
     11 C          -3.2673  -18.8089   19.4869 C.ar    1  UNL1        0.0989
     12 N          -4.7643  -18.7901   19.5797 N.ar    1  UNL1       -0.2407
     13 C         -12.1710  -17.7672   21.1188 C.3     1  UNL1        0.2527
     14 O         -11.4281  -19.0643   21.2435 O.3     1  UNL1       -0.4670
     15 N          -9.7673  -18.6687   23.7103 N.pl3   1  UNL1       -0.3118
     16 H         -10.1175  -19.4370   24.2166 H       1  UNL1        0.1486
     17 C          -9.9003  -17.2814   24.2652 C.3     1  UNL1        0.1199
     18 C          -8.6916  -16.5640   24.7888 C.ar    1  UNL1        0.0525
     19 C          -8.3507  -16.6352   26.2479 C.ar    1  UNL1        0.1421
     20 F          -9.2185  -17.4238   27.1832 F       1  UNL1       -0.2043
     21 C          -7.1419  -15.9177   26.7715 C.ar    1  UNL1        0.0591
     22 C          -6.2741  -15.1291   25.8362 C.ar    1  UNL1        0.1446
     23 F          -5.0654  -14.4117   26.3598 F       1  UNL1       -0.2040
     24 C          -6.6150  -15.0579   24.3771 C.ar    1  UNL1        0.0591
     25 C          -7.8237  -15.7753   23.8535 C.ar    1  UNL1        0.1421
     26 F          -8.1646  -15.7041   22.3945 F       1  UNL1       -0.2043
@<TRIPOS>BOND
     1    13    14    1
     2    14     1    1
     3     1     2   ar
     4     2     3   ar
     5     3     4   ar
     6     4     7    1
     7     7     8   ar
     8     8     9   ar
     9     9    10   ar
    10    10    11   ar
    11    11    12   ar
    12     4     5   ar
    13     5     6   ar
    14     6    15    1
    15    15    17    1
    16    17    18    1
    17    18    19   ar
    18    19    20    1
    19    19    21   ar
    20    21    22   ar
    21    22    23    1
    22    22    24   ar
    23    24    25   ar
    24    25    26    1
    25     6     1   ar
    26    25    18   ar
    27    12     7   ar
    28    15    16    1
@<TRIPOS>MOLECULE
*****
 26 28 0 0 0
SMALL
GASTEIGER

@<TRIPOS>ATOM
      1 C          -6.6569  -15.6446   24.3048 C.ar    1  UNL1        0.1889
      2 C          -8.1475  -15.5800   24.1500 C.ar    1  UNL1        0.1403
      3 N          -8.8336  -16.4396   23.1301 N.ar    1  UNL1       -0.2204
      4 C          -8.0291  -17.3639   22.2649 C.ar    1  UNL1        0.1816
      5 N          -6.5386  -17.4285   22.4197 N.ar    1  UNL1       -0.2074
      6 C          -5.8525  -16.5689   23.4397 C.ar    1  UNL1        0.1663
      7 C          -8.7152  -18.2235   21.2450 C.ar    1  UNL1        0.1170
      8 C         -10.1981  -18.4371   21.3194 C.ar    1  UNL1        0.0223
      9 C         -10.8842  -19.2967   20.2995 C.ar    1  UNL1        0.0032
     10 C         -10.0875  -19.9428   19.2051 C.ar    1  UNL1        0.0207
     11 C          -8.6046  -19.7292   19.1306 C.ar    1  UNL1        0.0989
     12 N          -7.9185  -18.8696   20.1506 N.ar    1  UNL1       -0.2407
     13 C          -6.0219  -15.1582   26.7767 C.3     1  UNL1        0.2527
     14 O          -5.9708  -14.7850   25.3248 O.3     1  UNL1       -0.4670
     15 N          -4.3618  -16.6336   23.5944 N.pl3   1  UNL1       -0.3118
     16 H          -3.8758  -15.8793   23.9996 H       1  UNL1        0.1486
     17 C          -3.6117  -17.8474   23.1319 C.3     1  UNL1        0.1199
     18 C          -3.0798  -17.9117   21.7309 C.ar    1  UNL1        0.0525
     19 C          -3.5107  -19.0187   20.8150 C.ar    1  UNL1        0.1421
     20 F          -4.4736  -20.0615   21.3002 F       1  UNL1       -0.2043
     21 C          -2.9787  -19.0829   19.4139 C.ar    1  UNL1        0.0591
     22 C          -2.0159  -18.0401   18.9288 C.ar    1  UNL1        0.1446
     23 F          -1.4839  -18.1044   17.5278 F       1  UNL1       -0.2040
     24 C          -1.5849  -16.9331   19.8446 C.ar    1  UNL1        0.0591
     25 C          -2.1169  -16.8689   21.2456 C.ar    1  UNL1        0.1421
     26 F          -1.6859  -15.7618   22.1615 F       1  UNL1       -0.2043
@<TRIPOS>BOND
     1    13    14    1
     2    14     1    1
     3     1     2   ar
     4     2     3   ar
     5     3     4   ar
     6     4     7    1
     7     7     8   ar
     8     8     9   ar
     9     9    10   ar
    10    10    11   ar
    11    11    12   ar
    12     4     5   ar
    13     5     6   ar
    14     6    15    1
    15    15    17    1
    16    17    18    1
    17    18    19   ar
    18    19    20    1
    19    19    21   ar
    20    21    22   ar
    21    22    23    1
    22    22    24   ar
    23    24    25   ar
    24    25    26    1
    25     6     1   ar
    26    25    18   ar
    27    12     7   ar
    28    15    16    1
@<TRIPOS>MOLECULE
*****
 26 28 0 0 0
SMALL
GASTEIGER

@<TRIPOS>ATOM
      1 C          -3.8628  -18.9912   21.7611 C.ar    1  UNL1        0.1889
      2 C          -4.4340  -20.0387   20.8521 C.ar    1  UNL1        0.1403
      3 N          -5.9184  -20.1361   20.6596 N.ar    1  UNL1       -0.2204
      4 C          -6.8316  -19.1861   21.3761 C.ar    1  UNL1        0.1816
      5 N          -6.2604  -18.1386   22.2852 N.ar    1  UNL1       -0.2074
      6 C          -4.7760  -18.0412   22.4777 C.ar    1  UNL1        0.1663
      7 C          -8.3160  -19.2836   21.1836 C.ar    1  UNL1        0.1170
      8 C          -9.2013  -19.6327   22.3430 C.ar    1  UNL1        0.0223
      9 C         -10.6857  -19.7302   22.1505 C.ar    1  UNL1        0.0032
     10 C         -11.2848  -19.4785   20.7986 C.ar    1  UNL1        0.0207
     11 C         -10.3995  -19.1294   19.6392 C.ar    1  UNL1        0.0989
     12 N          -8.9151  -19.0320   19.8317 N.ar    1  UNL1       -0.2407
     13 C          -1.5381  -18.1631   20.9486 C.3     1  UNL1        0.2527
     14 O          -2.3784  -18.8937   21.9536 O.3     1  UNL1       -0.4670
     15 N          -4.2048  -16.9936   23.3868 N.pl3   1  UNL1       -0.3118
     16 H          -3.3475  -17.1529   23.8439 H       1  UNL1        0.1486
     17 C          -4.9397  -15.7034   23.5994 C.3     1  UNL1        0.1199
     18 C          -5.9613  -15.5935   24.6922 C.ar    1  UNL1        0.0525
     19 C          -7.4048  -15.3719   24.3499 C.ar    1  UNL1        0.1421
     20 F          -7.8268  -15.2603   22.9148 F       1  UNL1       -0.2043
     21 C          -8.4264  -15.2620   25.4428 C.ar    1  UNL1        0.0591
     22 C          -8.0045  -15.3735   26.8779 C.ar    1  UNL1        0.1446
     23 F          -9.0260  -15.2636   27.9707 F       1  UNL1       -0.2040
     24 C          -6.5609  -15.5951   27.2201 C.ar    1  UNL1        0.0591
     25 C          -5.5394  -15.7050   26.1273 C.ar    1  UNL1        0.1421
     26 F          -4.0958  -15.9266   26.4696 F       1  UNL1       -0.2043
@<TRIPOS>BOND
     1    13    14    1
     2    14     1    1
     3     1     2   ar
     4     2     3   ar
     5     3     4   ar
     6     4     7    1
     7     7     8   ar
     8     8     9   ar
     9     9    10   ar
    10    10    11   ar
    11    11    12   ar
    12     4     5   ar
    13     5     6   ar
    14     6    15    1
    15    15    17    1
    16    17    18    1
    17    18    19   ar
    18    19    20    1
    19    19    21   ar
    20    21    22   ar
    21    22    23    1
    22    22    24   ar
    23    24    25   ar
    24    25    26    1
    25     6     1   ar
    26    25    18   ar
    27    12     7   ar
    28    15    16    1
@<TRIPOS>MOLECULE
*****
 26 28 0 0 0
SMALL
GASTEIGER

@<TRIPOS>ATOM
      1 C          -3.9139  -19.0518   21.7240 C.ar    1  UNL1        0.1889
      2 C          -4.5075  -20.0843   20.8122 C.ar    1  UNL1        0.1403
      3 N          -5.9948  -20.1599   20.6323 N.ar    1  UNL1       -0.2204
      4 C          -6.8884  -19.2030   21.3642 C.ar    1  UNL1        0.1816
      5 N          -6.2947  -18.1705   22.2761 N.ar    1  UNL1       -0.2074
      6 C          -4.8074  -18.0949   22.4560 C.ar    1  UNL1        0.1663
      7 C          -8.3756  -19.2786   21.1843 C.ar    1  UNL1        0.1170
      8 C          -9.2530  -19.6537   22.3416 C.ar    1  UNL1        0.0223
      9 C         -10.7402  -19.7293   22.1617 C.ar    1  UNL1        0.0032
     10 C         -11.3501  -19.4297   20.8245 C.ar    1  UNL1        0.0207
     11 C         -10.4728  -19.0546   19.6672 C.ar    1  UNL1        0.0989
     12 N          -8.9855  -18.9790   19.8471 N.ar    1  UNL1       -0.2407
     13 C          -1.5792  -18.2994   20.8677 C.3     1  UNL1        0.2527
     14 O          -2.4266  -18.9763   21.9039 O.3     1  UNL1       -0.4670
     15 N          -4.2138  -17.0624   23.3679 N.pl3   1  UNL1       -0.3118
     16 H          -3.3619  -17.2427   23.8272 H       1  UNL1        0.1486
     17 C          -4.9182  -15.7551   23.5799 C.3     1  UNL1        0.1199
     18 C          -5.9401  -15.6220   24.6698 C.ar    1  UNL1        0.0525
     19 C          -5.5212  -15.7206   26.1068 C.ar    1  UNL1        0.1421
     20 F          -4.0804  -15.9523   26.4538 F       1  UNL1       -0.2043
     21 C          -6.5432  -15.5874   27.1967 C.ar    1  UNL1        0.0591
     22 C          -7.9839  -15.3556   26.8497 C.ar    1  UNL1        0.1446
     23 F          -9.0058  -15.2224   27.9396 F       1  UNL1       -0.2040
     24 C          -8.4028  -15.2570   25.4128 C.ar    1  UNL1        0.0591
     25 C          -7.3809  -15.3902   24.3228 C.ar    1  UNL1        0.1421
     26 F          -7.7998  -15.2916   22.8859 F       1  UNL1       -0.2043
@<TRIPOS>BOND
     1    13    14    1
     2    14     1    1
     3     1     2   ar
     4     2     3   ar
     5     3     4   ar
     6     4     7    1
     7     7     8   ar
     8     8     9   ar
     9     9    10   ar
    10    10    11   ar
    11    11    12   ar
    12     4     5   ar
    13     5     6   ar
    14     6    15    1
    15    15    17    1
    16    17    18    1
    17    18    19   ar
    18    19    20    1
    19    19    21   ar
    20    21    22   ar
    21    22    23    1
    22    22    24   ar
    23    24    25   ar
    24    25    26    1
    25     6     1   ar
    26    25    18   ar
    27    12     7   ar
    28    15    16    1
@<TRIPOS>MOLECULE
*****
 26 28 0 0 0
SMALL
GASTEIGER

@<TRIPOS>ATOM
      1 C          -8.7251  -18.2080   21.0031 C.ar    1  UNL1        0.1889
      2 C          -9.7058  -17.3152   21.7037 C.ar    1  UNL1        0.1403
      3 N          -9.3242  -16.6457   22.9906 N.ar    1  UNL1       -0.2204
      4 C          -7.9617  -16.8691   23.5769 C.ar    1  UNL1        0.1816
      5 N          -6.9809  -17.7619   22.8763 N.ar    1  UNL1       -0.2074
      6 C          -7.3626  -18.4313   21.5894 C.ar    1  UNL1        0.1663
      7 C          -7.5800  -16.1996   24.8638 C.ar    1  UNL1        0.1170
      8 C          -8.5989  -16.0289   25.9514 C.ar    1  UNL1        0.0223
      9 C          -8.2172  -15.3594   27.2383 C.ar    1  UNL1        0.0032
     10 C          -6.8167  -14.8607   27.4377 C.ar    1  UNL1        0.0207
     11 C          -5.7979  -15.0314   26.3502 C.ar    1  UNL1        0.0989
     12 N          -6.1795  -15.7009   25.0632 N.ar    1  UNL1       -0.2407
     13 C         -10.5158  -19.3457   19.5035 C.3     1  UNL1        0.2527
     14 O          -9.1067  -18.8774   19.7162 O.3     1  UNL1       -0.4670
     15 N          -6.3817  -19.3242   20.8888 N.pl3   1  UNL1       -0.3118
     16 H          -6.5914  -19.6804   19.9952 H       1  UNL1        0.1486
     17 C          -5.0815  -19.6743   21.5496 C.3     1  UNL1        0.1199
     18 C          -3.8350  -18.9160   21.2012 C.ar    1  UNL1        0.0525
     19 C          -3.1367  -19.1781   19.8998 C.ar    1  UNL1        0.1421
     20 F          -3.6848  -20.1985   18.9468 F       1  UNL1       -0.2043
     21 C          -1.8902  -18.4197   19.5515 C.ar    1  UNL1        0.0591
     22 C          -1.3422  -17.3993   20.5046 C.ar    1  UNL1        0.1446
     23 F          -0.0957  -16.6410   20.1562 F       1  UNL1       -0.2040
     24 C          -2.0405  -17.1372   21.8060 C.ar    1  UNL1        0.0591
     25 C          -3.2869  -17.8955   22.1543 C.ar    1  UNL1        0.1421
     26 F          -3.9852  -17.6334   23.4557 F       1  UNL1       -0.2043
@<TRIPOS>BOND
     1    13    14    1
     2    14     1    1
     3     1     2   ar
     4     2     3   ar
     5     3     4   ar
     6     4     7    1
     7     7     8   ar
     8     8     9   ar
     9     9    10   ar
    10    10    11   ar
    11    11    12   ar
    12     4     5   ar
    13     5     6   ar
    14     6    15    1
    15    15    17    1
    16    17    18    1
    17    18    19   ar
    18    19    20    1
    19    19    21   ar
    20    21    22   ar
    21    22    23    1
    22    22    24   ar
    23    24    25   ar
    24    25    26    1
    25     6     1   ar
    26    25    18   ar
    27    12     7   ar
    28    15    16    1
@<TRIPOS>MOLECULE
*****
 26 28 0 0 0
SMALL
GASTEIGER

@<TRIPOS>ATOM
      1 C          -4.5993  -19.2687   21.9199 C.ar    1  UNL1        0.1889
      2 C          -5.4113  -20.2290   21.1024 C.ar    1  UNL1        0.1403
      3 N          -6.8705  -19.9697   20.8709 N.ar    1  UNL1       -0.2204
      4 C          -7.5177  -18.7500   21.4570 C.ar    1  UNL1        0.1816
      5 N          -6.7057  -17.7897   22.2745 N.ar    1  UNL1       -0.2074
      6 C          -5.2465  -18.0490   22.5060 C.ar    1  UNL1        0.1663
      7 C          -8.9768  -18.4906   21.2255 C.ar    1  UNL1        0.1170
      8 C          -9.6569  -19.0591   20.0154 C.ar    1  UNL1        0.0223
      9 C         -11.1161  -18.7998   19.7839 C.ar    1  UNL1        0.0032
     10 C         -11.8951  -17.9719   20.7625 C.ar    1  UNL1        0.0207
     11 C         -11.2151  -17.4034   21.9725 C.ar    1  UNL1        0.0989
     12 N          -9.7559  -17.6628   22.2040 N.ar    1  UNL1       -0.2407
     13 C          -2.1968  -19.5969   20.9873 C.3     1  UNL1        0.2527
     14 O          -3.1402  -19.5281   22.1514 O.3     1  UNL1       -0.4670
     15 N          -4.4345  -17.0886   23.3235 N.pl3   1  UNL1       -0.3118
     16 H          -3.5343  -17.3424   23.6308 H       1  UNL1        0.1486
     17 C          -4.9942  -15.7415   23.6729 C.3     1  UNL1        0.1199
     18 C          -6.0078  -15.6122   24.7710 C.ar    1  UNL1        0.0525
     19 C          -7.4193  -15.2220   24.4466 C.ar    1  UNL1        0.1421
     20 F          -7.8173  -14.9611   23.0241 F       1  UNL1       -0.2043
     21 C          -8.4329  -15.0928   25.5448 C.ar    1  UNL1        0.0591
     22 C          -8.0350  -15.3537   26.9673 C.ar    1  UNL1        0.1446
     23 F          -9.0486  -15.2244   28.0654 F       1  UNL1       -0.2040
     24 C          -6.6234  -15.7439   27.2916 C.ar    1  UNL1        0.0591
     25 C          -5.6098  -15.8731   26.1936 C.ar    1  UNL1        0.1421
     26 F          -4.1982  -16.2633   26.5179 F       1  UNL1       -0.2043
@<TRIPOS>BOND
     1    13    14    1
     2    14     1    1
     3     1     2   ar
     4     2     3   ar
     5     3     4   ar
     6     4     7    1
     7     7     8   ar
     8     8     9   ar
     9     9    10   ar
    10    10    11   ar
    11    11    12   ar
    12     4     5   ar
    13     5     6   ar
    14     6    15    1
    15    15    17    1
    16    17    18    1
    17    18    19   ar
    18    19    20    1
    19    19    21   ar
    20    21    22   ar
    21    22    23    1
    22    22    24   ar
    23    24    25   ar
    24    25    26    1
    25     6     1   ar
    26    25    18   ar
    27    12     7   ar
    28    15    16    1
@<TRIPOS>MOLECULE
*****
 26 28 0 0 0
SMALL
GASTEIGER

@<TRIPOS>ATOM
      1 C          -8.7152  -18.2652   21.0450 C.ar    1  UNL1        0.1889
      2 C          -9.7222  -17.4301   21.7788 C.ar    1  UNL1        0.1403
      3 N          -9.3388  -16.7427   23.0557 N.ar    1  UNL1       -0.2204
      4 C          -7.9484  -16.8904   23.5989 C.ar    1  UNL1        0.1816
      5 N          -6.9415  -17.7256   22.8651 N.ar    1  UNL1       -0.2074
      6 C          -7.3248  -18.4129   21.5882 C.ar    1  UNL1        0.1663
      7 C          -7.5651  -16.2031   24.8758 C.ar    1  UNL1        0.1170
      8 C          -6.1615  -15.7114   25.0708 C.ar    1  UNL1        0.0223
      9 C          -5.7781  -15.0240   26.3477 C.ar    1  UNL1        0.0032
     10 C          -6.7984  -14.8283   27.4297 C.ar    1  UNL1        0.0207
     11 C          -8.2020  -15.3200   27.2347 C.ar    1  UNL1        0.0989
     12 N          -8.5853  -16.0074   25.9578 N.ar    1  UNL1       -0.2407
     13 C         -10.5393  -19.2580   19.4841 C.3     1  UNL1        0.2527
     14 O          -9.0985  -18.9525   19.7681 O.3     1  UNL1       -0.4670
     15 N          -6.3177  -19.2481   20.8544 N.pl3   1  UNL1       -0.3118
     16 H          -6.5087  -19.5592   19.9401 H       1  UNL1        0.1486
     17 C          -5.0197  -19.6091   21.5137 C.3     1  UNL1        0.1199
     18 C          -3.7672  -18.8617   21.1635 C.ar    1  UNL1        0.0525
     19 C          -3.2279  -17.8216   22.1001 C.ar    1  UNL1        0.1421
     20 F          -3.9409  -17.5289   23.3869 F       1  UNL1       -0.2043
     21 C          -1.9754  -17.0741   21.7499 C.ar    1  UNL1        0.0591
     22 C          -1.2623  -17.3667   20.4632 C.ar    1  UNL1        0.1446
     23 F          -0.0099  -16.6192   20.1130 F       1  UNL1       -0.2040
     24 C          -1.8017  -18.4068   19.5265 C.ar    1  UNL1        0.0591
     25 C          -3.0541  -19.1543   19.8767 C.ar    1  UNL1        0.1421
     26 F          -3.5935  -20.1944   18.9400 F       1  UNL1       -0.2043
@<TRIPOS>BOND
     1    13    14    1
     2    14     1    1
     3     1     2   ar
     4     2     3   ar
     5     3     4   ar
     6     4     7    1
     7     7     8   ar
     8     8     9   ar
     9     9    10   ar
    10    10    11   ar
    11    11    12   ar
    12     4     5   ar
    13     5     6   ar
    14     6    15    1
    15    15    17    1
    16    17    18    1
    17    18    19   ar
    18    19    20    1
    19    19    21   ar
    20    21    22   ar
    21    22    23    1
    22    22    24   ar
    23    24    25   ar
    24    25    26    1
    25     6     1   ar
    26    25    18   ar
    27    12     7   ar
    28    15    16    1
@<TRIPOS>MOLECULE
*****
 26 28 0 0 0
SMALL
GASTEIGER

@<TRIPOS>ATOM
      1 C          -7.9978  -19.5920   22.2865 C.ar    1  UNL1        0.1889
      2 C          -6.9558  -20.6679   22.3663 C.ar    1  UNL1        0.1403
      3 N          -5.5718  -20.4116   21.8478 N.ar    1  UNL1       -0.2204
      4 C          -5.2298  -19.0794   21.2494 C.ar    1  UNL1        0.1816
      5 N          -6.2719  -18.0034   21.1696 N.ar    1  UNL1       -0.2074
      6 C          -7.6559  -18.2597   21.6881 C.ar    1  UNL1        0.1663
      7 C          -3.8458  -18.8231   20.7309 C.ar    1  UNL1        0.1170
      8 C          -2.6529  -19.2186   21.5497 C.ar    1  UNL1        0.0223
      9 C          -1.2690  -18.9623   21.0312 C.ar    1  UNL1        0.0032
     10 C          -1.0779  -18.3105   19.6939 C.ar    1  UNL1        0.0207
     11 C          -2.2707  -17.9150   18.8750 C.ar    1  UNL1        0.0989
     12 N          -3.6547  -18.1713   19.3936 N.ar    1  UNL1       -0.2407
     13 C          -9.5762  -20.3716   24.1972 C.3     1  UNL1        0.2527
     14 O          -9.3818  -19.8483   22.8050 O.3     1  UNL1       -0.4670
     15 N          -8.6979  -17.1837   21.6082 N.pl3   1  UNL1       -0.3118
     16 H          -9.5215  -17.3335   21.0900 H       1  UNL1        0.1486
     17 C          -8.4852  -15.8795   22.3180 C.3     1  UNL1        0.1199
     18 C          -8.0458  -15.8690   23.7521 C.ar    1  UNL1        0.0525
     19 C          -6.7083  -15.3001   24.1226 C.ar    1  UNL1        0.1421
     20 F          -5.8101  -14.7416   23.0590 F       1  UNL1       -0.2043
     21 C          -6.2689  -15.2896   25.5568 C.ar    1  UNL1        0.0591
     22 C          -7.1671  -15.8481   26.6205 C.ar    1  UNL1        0.1446
     23 F          -6.7277  -15.8376   28.0546 F       1  UNL1       -0.2040
     24 C          -8.5046  -16.4170   26.2500 C.ar    1  UNL1        0.0591
     25 C          -8.9440  -16.4275   24.8158 C.ar    1  UNL1        0.1421
     26 F         -10.2815  -16.9964   24.4453 F       1  UNL1       -0.2043
@<TRIPOS>BOND
     1    13    14    1
     2    14     1    1
     3     1     2   ar
     4     2     3   ar
     5     3     4   ar
     6     4     7    1
     7     7     8   ar
     8     8     9   ar
     9     9    10   ar
    10    10    11   ar
    11    11    12   ar
    12     4     5   ar
    13     5     6   ar
    14     6    15    1
    15    15    17    1
    16    17    18    1
    17    18    19   ar
    18    19    20    1
    19    19    21   ar
    20    21    22   ar
    21    22    23    1
    22    22    24   ar
    23    24    25   ar
    24    25    26    1
    25     6     1   ar
    26    25    18   ar
    27    12     7   ar
    28    15    16    1
@<TRIPOS>MOLECULE
*****
 26 28 0 0 0
SMALL
GASTEIGER

@<TRIPOS>ATOM
      1 C          -9.8160  -17.8895   21.2630 C.ar    1  UNL1        0.1889
      2 C          -9.4857  -19.2662   20.7679 C.ar    1  UNL1        0.1403
      3 N          -8.0546  -19.7055   20.6722 N.ar    1  UNL1       -0.2204
      4 C          -6.9540  -18.7680   21.0716 C.ar    1  UNL1        0.1816
      5 N          -7.2844  -17.3912   21.5668 N.ar    1  UNL1       -0.2074
      6 C          -8.7154  -16.9519   21.6625 C.ar    1  UNL1        0.1663
      7 C          -5.5229  -19.2073   20.9759 C.ar    1  UNL1        0.1170
      8 C          -5.1569  -20.3920   20.1319 C.ar    1  UNL1        0.0223
      9 C          -3.7259  -20.8313   20.0362 C.ar    1  UNL1        0.0032
     10 C          -2.6609  -20.0859   20.7845 C.ar    1  UNL1        0.0207
     11 C          -3.0269  -18.9012   21.6285 C.ar    1  UNL1        0.0989
     12 N          -4.4579  -18.4619   21.7242 N.ar    1  UNL1       -0.2407
     13 C         -12.0286  -17.7083   22.6128 C.3     1  UNL1        0.2527
     14 O         -11.2471  -17.4502   21.3588 O.3     1  UNL1       -0.4670
     15 N          -9.0458  -15.5751   22.1577 N.pl3   1  UNL1       -0.3118
     16 H          -9.9513  -15.2103   22.0305 H       1  UNL1        0.1486
     17 C          -7.9964  -14.7540   22.8466 C.3     1  UNL1        0.1199
     18 C          -7.5671  -15.1024   24.2410 C.ar    1  UNL1        0.0525
     19 C          -6.1079  -15.2014   24.5738 C.ar    1  UNL1        0.1421
     20 F          -5.0779  -14.9521   23.5123 F       1  UNL1       -0.2043
     21 C          -5.6787  -15.5498   25.9683 C.ar    1  UNL1        0.0591
     22 C          -6.7087  -15.7991   27.0298 C.ar    1  UNL1        0.1446
     23 F          -6.2795  -16.1475   28.4242 F       1  UNL1       -0.2040
     24 C          -8.1680  -15.7000   26.6970 C.ar    1  UNL1        0.0591
     25 C          -8.5972  -15.3517   25.3026 C.ar    1  UNL1        0.1421
     26 F         -10.0564  -15.2526   24.9697 F       1  UNL1       -0.2043
@<TRIPOS>BOND
     1    13    14    1
     2    14     1    1
     3     1     2   ar
     4     2     3   ar
     5     3     4   ar
     6     4     7    1
     7     7     8   ar
     8     8     9   ar
     9     9    10   ar
    10    10    11   ar
    11    11    12   ar
    12     4     5   ar
    13     5     6   ar
    14     6    15    1
    15    15    17    1
    16    17    18    1
    17    18    19   ar
    18    19    20    1
    19    19    21   ar
    20    21    22   ar
    21    22    23    1
    22    22    24   ar
    23    24    25   ar
    24    25    26    1
    25     6     1   ar
    26    25    18   ar
    27    12     7   ar
    28    15    16    1
