@<TRIPOS>MOLECULE
*****
 33 36 0 0 0
SMALL
GASTEIGER

@<TRIPOS>ATOM
      1 N         -14.2218   -7.8178   17.9264 N.3     1  UNL1       -0.1454
      2 S         -15.0378   -6.6264   18.3323 S.O2    1  UNL1        0.0639
      3 O         -14.4316   -6.6784   19.7034 O.2     1  UNL1       -0.1528
      4 O         -15.6440   -6.5745   16.9613 O.2     1  UNL1       -0.1528
      5 C         -19.0557   -0.1693   20.4932 C.3     1  UNL1        0.0436
      6 C         -17.6266   -0.5539   20.2487 C.3     1  UNL1        0.1336
      7 C         -17.4477    0.8868   20.6261 C.3     1  UNL1        0.0436
      8 C         -16.1354   -0.4382   20.1352 C.3     1  UNL1        0.0448
      9 C         -15.3194   -1.6296   19.7293 C.3     1  UNL1        0.0330
     10 C         -15.9946   -2.9366   19.4368 C.ar    1  UNL1        0.0132
     11 C         -15.1786   -4.1280   19.0308 C.ar    1  UNL1        0.0186
     12 C         -15.8538   -5.4351   18.7383 C.ar    1  UNL1        0.1221
     13 C         -17.3451   -5.5508   18.8517 C.ar    1  UNL1        0.0230
     14 C         -18.1611   -4.3595   19.2577 C.ar    1  UNL1        0.0379
     15 C         -17.4858   -3.0523   19.5502 C.ar    1  UNL1        0.1342
     16 O         -18.3018   -1.8610   19.9562 O.3     1  UNL1       -0.4829
     17 C         -14.6958   -9.2010   18.2617 C.3     1  UNL1        0.1375
     18 C         -16.0850   -9.4110   18.7868 C.2     1  UNL1        0.0683
     19 O         -16.3134   -9.5718   20.2606 O.co2   1  UNL1       -0.5477
     20 O         -17.2459   -9.4602   17.8382 O.co2   1  UNL1       -0.5477
     21 C         -12.9320   -7.6261   17.1851 C.3     1  UNL1        0.1225
     22 C         -11.8925   -6.6859   17.7195 C.ar    1  UNL1       -0.0045
     23 C         -10.7381   -7.2181   18.5157 C.ar    1  UNL1       -0.0029
     24 C          -9.6986   -6.2778   19.0500 C.ar    1  UNL1       -0.0003
     25 C          -9.8137   -4.8054   18.7882 C.ar    1  UNL1       -0.0000
     26 C         -10.9681   -4.2731   17.9920 C.ar    1  UNL1       -0.0003
     27 C         -12.0076   -5.2133   17.4576 C.ar    1  UNL1       -0.0029
     28 C         -11.0831   -2.8006   17.7301 C.ar    1  UNL1       -0.0000
     29 C         -10.3820   -2.1912   16.5524 C.ar    1  UNL1       -0.0000
     30 C         -10.4970   -0.7188   16.2906 C.ar    1  UNL1       -0.0000
     31 C         -11.3132    0.1443   17.2065 C.ar    1  UNL1        0.0000
     32 C         -12.0144   -0.4650   18.3842 C.ar    1  UNL1       -0.0000
     33 C         -11.8993   -1.9375   18.6460 C.ar    1  UNL1       -0.0000
@<TRIPOS>UNITY_ATOM_ATTR
19 1
charge -1
@<TRIPOS>BOND
     1     5     6    1
     2     6     7    1
     3     6     8    1
     4     8     9    1
     5     9    10    1
     6    10    11   ar
     7    11    12   ar
     8    12     2    1
     9     2     3    2
    10     2     4    2
    11     2     1    1
    12     1    17    1
    13    17    18    1
    14    18    19   ar
    15    18    20   ar
    16     1    21    1
    17    21    22    1
    18    22    23   ar
    19    23    24   ar
    20    24    25   ar
    21    25    26   ar
    22    26    28    1
    23    28    29   ar
    24    29    30   ar
    25    30    31   ar
    26    31    32   ar
    27    32    33   ar
    28    26    27   ar
    29    12    13   ar
    30    13    14   ar
    31    14    15   ar
    32    15    16    1
    33    16     6    1
    34    15    10   ar
    35    27    22   ar
    36    33    28   ar
@<TRIPOS>MOLECULE
*****
 33 36 0 0 0
SMALL
GASTEIGER

@<TRIPOS>ATOM
      1 N         -11.6486   -5.3678   17.9355 N.3     1  UNL1       -0.1454
      2 S         -13.0648   -5.6518   18.3402 S.O2    1  UNL1        0.0639
      3 O         -13.4274   -5.8899   16.9043 O.2     1  UNL1       -0.1528
      4 O         -12.7021   -5.4136   19.7761 O.2     1  UNL1       -0.1528
      5 C         -20.4634   -7.4757   20.4477 C.3     1  UNL1        0.0436
      6 C         -19.2083   -8.2048   20.0691 C.3     1  UNL1        0.1336
      7 C         -20.1230   -9.3689   20.3106 C.3     1  UNL1        0.0436
      8 C         -18.2709   -9.3381   19.7743 C.3     1  UNL1        0.0448
      9 C         -16.8547   -9.0541   19.3696 C.3     1  UNL1        0.0330
     10 C         -16.3759   -7.6369   19.2596 C.ar    1  UNL1        0.0132
     11 C         -14.9598   -7.3530   18.8549 C.ar    1  UNL1        0.0186
     12 C         -14.4809   -5.9357   18.7449 C.ar    1  UNL1        0.1221
     13 C         -15.4183   -4.8023   19.0397 C.ar    1  UNL1        0.0230
     14 C         -16.8345   -5.0863   19.4444 C.ar    1  UNL1        0.0379
     15 C         -17.3133   -6.5036   19.5544 C.ar    1  UNL1        0.1342
     16 O         -18.7295   -6.7875   19.9591 O.3     1  UNL1       -0.4829
     17 C         -10.5154   -6.0534   18.6399 C.3     1  UNL1        0.1375
     18 C         -10.0940   -7.4301   18.2192 C.2     1  UNL1        0.0683
     19 O          -8.9350   -8.0995   18.8966 O.co2   1  UNL1       -0.5477
     20 O         -10.8315   -8.1375   17.1212 O.co2   1  UNL1       -0.5477
     21 C         -11.3655   -4.3984   16.8264 C.3     1  UNL1        0.1225
     22 C         -11.4732   -2.9230   17.0743 C.ar    1  UNL1       -0.0045
     23 C         -10.3563   -2.0099   16.6633 C.ar    1  UNL1       -0.0029
     24 C         -10.4641   -0.5344   16.9112 C.ar    1  UNL1       -0.0003
     25 C         -11.6886    0.0279   17.5701 C.ar    1  UNL1       -0.0000
     26 C         -12.8055   -0.8852   17.9811 C.ar    1  UNL1       -0.0003
     27 C         -12.6978   -2.3606   17.7332 C.ar    1  UNL1       -0.0029
     28 C         -14.0301   -0.3227   18.6401 C.ar    1  UNL1       -0.0000
     29 C         -14.3023    1.1512   18.5835 C.ar    1  UNL1       -0.0000
     30 C         -15.5268    1.7136   19.2424 C.ar    1  UNL1       -0.0000
     31 C         -16.4792    0.8020   19.9579 C.ar    1  UNL1        0.0000
     32 C         -16.2070   -0.6720   20.0145 C.ar    1  UNL1       -0.0000
     33 C         -14.9825   -1.2344   19.3556 C.ar    1  UNL1       -0.0000
@<TRIPOS>UNITY_ATOM_ATTR
19 1
charge -1
@<TRIPOS>BOND
     1     5     6    1
     2     6     7    1
     3     6     8    1
     4     8     9    1
     5     9    10    1
     6    10    11   ar
     7    11    12   ar
     8    12     2    1
     9     2     3    2
    10     2     4    2
    11     2     1    1
    12     1    17    1
    13    17    18    1
    14    18    19   ar
    15    18    20   ar
    16     1    21    1
    17    21    22    1
    18    22    23   ar
    19    23    24   ar
    20    24    25   ar
    21    25    26   ar
    22    26    28    1
    23    28    29   ar
    24    29    30   ar
    25    30    31   ar
    26    31    32   ar
    27    32    33   ar
    28    26    27   ar
    29    12    13   ar
    30    13    14   ar
    31    14    15   ar
    32    15    16    1
    33    16     6    1
    34    15    10   ar
    35    27    22   ar
    36    33    28   ar
@<TRIPOS>MOLECULE
*****
 33 36 0 0 0
SMALL
GASTEIGER

@<TRIPOS>ATOM
      1 N           4.7639   -0.9505   28.7918 N.3     1  UNL1       -0.1454
      2 S           4.4577   -1.0462   27.3265 S.O2    1  UNL1        0.0639
      3 O           3.1812   -1.7688   27.6404 O.2     1  UNL1       -0.1528
      4 O           5.7341   -0.3236   27.0125 O.2     1  UNL1       -0.1528
      5 C           3.0442   -1.8181   19.5860 C.3     1  UNL1        0.0436
      6 C           3.8522   -2.5168   20.6391 C.3     1  UNL1        0.1336
      7 C           4.1911   -3.3621   19.4472 C.3     1  UNL1        0.0436
      8 C           4.7780   -3.5090   21.2782 C.3     1  UNL1        0.0448
      9 C           5.0842   -3.4133   22.7435 C.3     1  UNL1        0.0330
     10 C           4.4647   -2.3254   23.5697 C.ar    1  UNL1        0.0132
     11 C           4.7709   -2.2297   25.0350 C.ar    1  UNL1        0.0186
     12 C           4.1514   -1.1418   25.8612 C.ar    1  UNL1        0.1221
     13 C           3.2257   -0.1495   25.2221 C.ar    1  UNL1        0.0230
     14 C           2.9194   -0.2452   23.7568 C.ar    1  UNL1        0.0379
     15 C           3.5390   -1.3332   22.9306 C.ar    1  UNL1        0.1342
     16 O           3.2327   -1.4289   21.4653 O.3     1  UNL1       -0.4829
     17 C           3.7285   -0.4252   29.7416 C.3     1  UNL1        0.1375
     18 C           3.9864   -0.4470   31.2191 C.2     1  UNL1        0.0683
     19 O           3.4695   -1.5810   32.0540 O.co2   1  UNL1       -0.5477
     20 O           4.7610    0.6651   31.8618 O.co2   1  UNL1       -0.5477
     21 C           6.1054   -1.3801   29.3072 C.3     1  UNL1        0.1225
     22 C           6.4712   -2.8346   29.3253 C.ar    1  UNL1       -0.0045
     23 C           6.5131   -3.5814   30.6255 C.ar    1  UNL1       -0.0029
     24 C           6.8789   -5.0361   30.6435 C.ar    1  UNL1       -0.0003
     25 C           7.2029   -5.7439   29.3613 C.ar    1  UNL1       -0.0000
     26 C           7.1610   -4.9971   28.0611 C.ar    1  UNL1       -0.0003
     27 C           6.7952   -3.5425   28.0430 C.ar    1  UNL1       -0.0029
     28 C           7.4850   -5.7050   26.7789 C.ar    1  UNL1       -0.0000
     29 C           7.9051   -7.1447   26.8025 C.ar    1  UNL1       -0.0000
     30 C           8.2291   -7.8525   25.5203 C.ar    1  UNL1       -0.0000
     31 C           8.1329   -7.1206   24.2145 C.ar    1  UNL1        0.0000
     32 C           7.7128   -5.6809   24.1909 C.ar    1  UNL1       -0.0000
     33 C           7.3888   -4.9730   25.4731 C.ar    1  UNL1       -0.0000
@<TRIPOS>UNITY_ATOM_ATTR
19 1
charge -1
@<TRIPOS>BOND
     1     5     6    1
     2     6     7    1
     3     6     8    1
     4     8     9    1
     5     9    10    1
     6    10    11   ar
     7    11    12   ar
     8    12     2    1
     9     2     3    2
    10     2     4    2
    11     2     1    1
    12     1    17    1
    13    17    18    1
    14    18    19   ar
    15    18    20   ar
    16     1    21    1
    17    21    22    1
    18    22    23   ar
    19    23    24   ar
    20    24    25   ar
    21    25    26   ar
    22    26    28    1
    23    28    29   ar
    24    29    30   ar
    25    30    31   ar
    26    31    32   ar
    27    32    33   ar
    28    26    27   ar
    29    12    13   ar
    30    13    14   ar
    31    14    15   ar
    32    15    16    1
    33    16     6    1
    34    15    10   ar
    35    27    22   ar
    36    33    28   ar
@<TRIPOS>MOLECULE
*****
 33 36 0 0 0
SMALL
GASTEIGER

@<TRIPOS>ATOM
      1 N          -5.1265  -19.6589   20.2721 N.3     1  UNL1       -0.1454
      2 S          -5.3417  -18.8092   21.4894 S.O2    1  UNL1        0.0639
      3 O          -4.6129  -19.8202   22.3240 O.2     1  UNL1       -0.1528
      4 O          -6.0705  -17.7981   20.6547 O.2     1  UNL1       -0.1528
      5 C          -6.8059  -14.3754   27.8695 C.3     1  UNL1        0.0436
      6 C          -7.5941  -15.1443   26.8509 C.3     1  UNL1        0.1336
      7 C          -8.7120  -14.6114   27.6972 C.3     1  UNL1        0.0436
      8 C          -8.7705  -15.7282   26.1262 C.3     1  UNL1        0.0448
      9 C          -8.5553  -16.5779   24.9090 C.3     1  UNL1        0.0330
     10 C          -7.1637  -16.8438   24.4164 C.ar    1  UNL1        0.0132
     11 C          -6.9485  -17.6935   23.1992 C.ar    1  UNL1        0.0186
     12 C          -5.5569  -17.9594   22.7066 C.ar    1  UNL1        0.1221
     13 C          -4.3804  -17.3756   23.4312 C.ar    1  UNL1        0.0230
     14 C          -4.5956  -16.5258   24.6485 C.ar    1  UNL1        0.0379
     15 C          -5.9873  -16.2600   25.1410 C.ar    1  UNL1        0.1342
     16 O          -6.2025  -15.4102   26.3583 O.3     1  UNL1       -0.4829
     17 C          -3.8993  -19.4673   19.4311 C.3     1  UNL1        0.1375
     18 C          -2.7622  -18.6335   19.9427 C.2     1  UNL1        0.0683
     19 O          -1.6247  -19.2836   20.6732 O.co2   1  UNL1       -0.5477
     20 O          -2.7625  -17.1496   19.7239 O.co2   1  UNL1       -0.5477
     21 C          -6.1385  -20.7001   19.8959 C.3     1  UNL1        0.1225
     22 C          -7.5885  -20.3319   19.7872 C.ar    1  UNL1       -0.0045
     23 C          -8.2598  -20.3163   18.4459 C.ar    1  UNL1       -0.0029
     24 C          -9.7099  -19.9481   18.3372 C.ar    1  UNL1       -0.0003
     25 C         -10.4886  -19.5955   19.5697 C.ar    1  UNL1       -0.0000
     26 C          -9.8173  -19.6111   20.9110 C.ar    1  UNL1       -0.0003
     27 C          -8.3673  -19.9793   21.0198 C.ar    1  UNL1       -0.0029
     28 C         -10.5961  -19.2585   22.1437 C.ar    1  UNL1       -0.0000
     29 C         -10.1593  -19.7785   23.4811 C.ar    1  UNL1       -0.0000
     30 C         -10.9381  -19.4259   24.7136 C.ar    1  UNL1       -0.0000
     31 C         -12.1536  -18.5532   24.6087 C.ar    1  UNL1        0.0000
     32 C         -12.5903  -18.0332   23.2713 C.ar    1  UNL1       -0.0000
     33 C         -11.8116  -18.3858   22.0387 C.ar    1  UNL1       -0.0000
@<TRIPOS>UNITY_ATOM_ATTR
19 1
charge -1
@<TRIPOS>BOND
     1     5     6    1
     2     6     7    1
     3     6     8    1
     4     8     9    1
     5     9    10    1
     6    10    11   ar
     7    11    12   ar
     8    12     2    1
     9     2     3    2
    10     2     4    2
    11     2     1    1
    12     1    17    1
    13    17    18    1
    14    18    19   ar
    15    18    20   ar
    16     1    21    1
    17    21    22    1
    18    22    23   ar
    19    23    24   ar
    20    24    25   ar
    21    25    26   ar
    22    26    28    1
    23    28    29   ar
    24    29    30   ar
    25    30    31   ar
    26    31    32   ar
    27    32    33   ar
    28    26    27   ar
    29    12    13   ar
    30    13    14   ar
    31    14    15   ar
    32    15    16    1
    33    16     6    1
    34    15    10   ar
    35    27    22   ar
    36    33    28   ar
@<TRIPOS>MOLECULE
*****
 33 36 0 0 0
SMALL
GASTEIGER

@<TRIPOS>ATOM
      1 N         -11.8372   -3.7032   18.1900 N.3     1  UNL1       -0.1454
      2 S         -12.8346   -4.8226   18.1446 S.O2    1  UNL1        0.0639
      3 O         -12.9269   -4.8010   19.6416 O.2     1  UNL1       -0.1528
      4 O         -12.7423   -4.8442   16.6476 O.2     1  UNL1       -0.1528
      5 C         -18.2894  -10.5455   18.1098 C.3     1  UNL1        0.0436
      6 C         -18.1077   -9.1928   18.7323 C.3     1  UNL1        0.1336
      7 C         -19.4542   -9.5553   19.2852 C.3     1  UNL1        0.0436
      8 C         -18.3936   -7.9661   19.5467 C.3     1  UNL1        0.0448
      9 C         -17.3961   -6.8467   19.5921 C.3     1  UNL1        0.0330
     10 C         -16.1128   -6.9541   18.8230 C.ar    1  UNL1        0.0132
     11 C         -15.1154   -5.8347   18.8683 C.ar    1  UNL1        0.0186
     12 C         -13.8321   -5.9420   18.0992 C.ar    1  UNL1        0.1221
     13 C         -13.5462   -7.1687   17.2847 C.ar    1  UNL1        0.0230
     14 C         -14.5436   -8.2881   17.2394 C.ar    1  UNL1        0.0379
     15 C         -15.8270   -8.1808   18.0085 C.ar    1  UNL1        0.1342
     16 O         -16.8244   -9.3002   17.9632 O.3     1  UNL1       -0.4829
     17 C         -10.5781   -3.8526   18.9915 C.3     1  UNL1        0.1375
     18 C          -9.6025   -4.9425   18.6593 C.2     1  UNL1        0.0683
     19 O          -9.0157   -5.7832   19.7543 O.co2   1  UNL1       -0.5477
     20 O          -9.2136   -5.1916   17.2322 O.co2   1  UNL1       -0.5477
     21 C         -12.0988   -2.4344   17.4338 C.3     1  UNL1        0.1225
     22 C         -13.0917   -1.4400   17.9583 C.ar    1  UNL1       -0.0045
     23 C         -12.7601    0.0229   17.9575 C.ar    1  UNL1       -0.0029
     24 C         -13.7531    1.0174   18.4820 C.ar    1  UNL1       -0.0003
     25 C         -15.0777    0.5489   19.0073 C.ar    1  UNL1       -0.0000
     26 C         -15.4093   -0.9140   19.0081 C.ar    1  UNL1       -0.0003
     27 C         -14.4164   -1.9084   18.4836 C.ar    1  UNL1       -0.0029
     28 C         -16.7340   -1.3824   19.5334 C.ar    1  UNL1       -0.0000
     29 C         -17.0097   -2.8504   19.6708 C.ar    1  UNL1       -0.0000
     30 C         -18.3343   -3.3187   20.1961 C.ar    1  UNL1       -0.0000
     31 C         -19.3832   -2.3190   20.5841 C.ar    1  UNL1        0.0000
     32 C         -19.1075   -0.8511   20.4467 C.ar    1  UNL1       -0.0000
     33 C         -17.7829   -0.3827   19.9214 C.ar    1  UNL1       -0.0000
@<TRIPOS>UNITY_ATOM_ATTR
19 1
charge -1
@<TRIPOS>BOND
     1     5     6    1
     2     6     7    1
     3     6     8    1
     4     8     9    1
     5     9    10    1
     6    10    11   ar
     7    11    12   ar
     8    12     2    1
     9     2     3    2
    10     2     4    2
    11     2     1    1
    12     1    17    1
    13    17    18    1
    14    18    19   ar
    15    18    20   ar
    16     1    21    1
    17    21    22    1
    18    22    23   ar
    19    23    24   ar
    20    24    25   ar
    21    25    26   ar
    22    26    28    1
    23    28    29   ar
    24    29    30   ar
    25    30    31   ar
    26    31    32   ar
    27    32    33   ar
    28    26    27   ar
    29    12    13   ar
    30    13    14   ar
    31    14    15   ar
    32    15    16    1
    33    16     6    1
    34    15    10   ar
    35    27    22   ar
    36    33    28   ar
@<TRIPOS>MOLECULE
*****
 33 36 0 0 0
SMALL
GASTEIGER

@<TRIPOS>ATOM
      1 N          -0.3675    2.9337   19.7340 N.3     1  UNL1       -0.1454
      2 S           0.0703    2.4723   21.0925 S.O2    1  UNL1        0.0639
      3 O          -0.4888    1.1094   20.8098 O.2     1  UNL1       -0.1528
      4 O           0.6294    3.8352   21.3752 O.2     1  UNL1       -0.1528
      5 C           2.1033    0.1820   28.3815 C.3     1  UNL1        0.0436
      6 C           0.9824    0.9369   27.7303 C.3     1  UNL1        0.1336
      7 C           0.5325    0.9848   29.1605 C.3     1  UNL1        0.0436
      8 C          -0.2946    1.7083   27.5758 C.3     1  UNL1        0.0448
      9 C          -0.7324    2.1697   26.2173 C.3     1  UNL1        0.0330
     10 C           0.1068    1.8596   25.0134 C.ar    1  UNL1        0.0132
     11 C          -0.3311    2.3210   23.6549 C.ar    1  UNL1        0.0186
     12 C           0.5081    2.0109   22.4510 C.ar    1  UNL1        0.1221
     13 C           1.7853    1.2394   22.6055 C.ar    1  UNL1        0.0230
     14 C           2.2231    0.7780   23.9639 C.ar    1  UNL1        0.0379
     15 C           1.3838    1.0881   25.1679 C.ar    1  UNL1        0.1342
     16 O           1.8217    0.6268   26.5264 O.3     1  UNL1       -0.4829
     17 C          -1.4393    3.9753   19.6051 C.3     1  UNL1        0.1375
     18 C          -2.8837    3.5796   19.6894 C.2     1  UNL1        0.0683
     19 O          -3.3893    2.8383   20.8914 O.co2   1  UNL1       -0.5477
     20 O          -3.8224    3.9252   18.5717 O.co2   1  UNL1       -0.5477
     21 C           0.2663    2.3535   18.5046 C.3     1  UNL1        0.1225
     22 C           1.7214    1.9895   18.5115 C.ar    1  UNL1       -0.0045
     23 C           2.7639    3.0646   18.4252 C.ar    1  UNL1       -0.0029
     24 C           4.2190    2.7006   18.4321 C.ar    1  UNL1       -0.0003
     25 C           4.6317    1.2615   18.5254 C.ar    1  UNL1       -0.0000
     26 C           3.5892    0.1864   18.6118 C.ar    1  UNL1       -0.0003
     27 C           2.1341    0.5504   18.6049 C.ar    1  UNL1       -0.0029
     28 C           4.0020   -1.2527   18.7051 C.ar    1  UNL1       -0.0000
     29 C           3.1295   -2.2380   19.4249 C.ar    1  UNL1       -0.0000
     30 C           3.5423   -3.6770   19.5182 C.ar    1  UNL1       -0.0000
     31 C           4.8274   -4.1308   18.8917 C.ar    1  UNL1        0.0000
     32 C           5.6999   -3.1455   18.1720 C.ar    1  UNL1       -0.0000
     33 C           5.2871   -1.7065   18.0787 C.ar    1  UNL1       -0.0000
@<TRIPOS>UNITY_ATOM_ATTR
19 1
charge -1
@<TRIPOS>BOND
     1     5     6    1
     2     6     7    1
     3     6     8    1
     4     8     9    1
     5     9    10    1
     6    10    11   ar
     7    11    12   ar
     8    12     2    1
     9     2     3    2
    10     2     4    2
    11     2     1    1
    12     1    17    1
    13    17    18    1
    14    18    19   ar
    15    18    20   ar
    16     1    21    1
    17    21    22    1
    18    22    23   ar
    19    23    24   ar
    20    24    25   ar
    21    25    26   ar
    22    26    28    1
    23    28    29   ar
    24    29    30   ar
    25    30    31   ar
    26    31    32   ar
    27    32    33   ar
    28    26    27   ar
    29    12    13   ar
    30    13    14   ar
    31    14    15   ar
    32    15    16    1
    33    16     6    1
    34    15    10   ar
    35    27    22   ar
    36    33    28   ar
@<TRIPOS>MOLECULE
*****
 33 36 0 0 0
SMALL
GASTEIGER

@<TRIPOS>ATOM
      1 N          -0.3614    3.0232   19.8272 N.3     1  UNL1       -0.1454
      2 S           0.1566    2.5095   21.1378 S.O2    1  UNL1        0.0639
      3 O          -0.4470    1.1668   20.8502 O.2     1  UNL1       -0.1528
      4 O           0.7602    3.8522   21.4255 O.2     1  UNL1       -0.1528
      5 C           3.0918   -0.4019   27.8770 C.3     1  UNL1        0.0436
      6 C           3.2921   -0.6027   26.4040 C.3     1  UNL1        0.1336
      7 C           4.2860   -1.5906   26.9392 C.3     1  UNL1        0.0436
      8 C           3.8376   -1.1466   25.1169 C.3     1  UNL1        0.0448
      9 C           3.3196   -0.6329   23.8063 C.3     1  UNL1        0.0330
     10 C           2.2561    0.4246   23.7827 C.ar    1  UNL1        0.0132
     11 C           1.7381    0.9383   22.4721 C.ar    1  UNL1        0.0186
     12 C           0.6746    1.9958   22.4485 C.ar    1  UNL1        0.1221
     13 C           0.1291    2.5397   23.7356 C.ar    1  UNL1        0.0230
     14 C           0.6471    2.0260   25.0463 C.ar    1  UNL1        0.0379
     15 C           1.7106    0.9685   25.0698 C.ar    1  UNL1        0.1342
     16 O           2.2286    0.4548   26.3805 O.3     1  UNL1       -0.4829
     17 C          -1.5013    3.9979   19.8014 C.3     1  UNL1        0.1375
     18 C          -2.9157    3.4984   19.8151 C.2     1  UNL1        0.0683
     19 O          -3.4501    2.7926   21.0260 O.co2   1  UNL1       -0.5477
     20 O          -3.7955    3.7046   18.6179 O.co2   1  UNL1       -0.5477
     21 C           0.2605    2.5622   18.5424 C.3     1  UNL1        0.1225
     22 C           1.7096    2.1768   18.5066 C.ar    1  UNL1       -0.0045
     23 C           2.7625    3.2321   18.3400 C.ar    1  UNL1       -0.0029
     24 C           4.2117    2.8467   18.3041 C.ar    1  UNL1       -0.0003
     25 C           4.6080    1.4059   18.4349 C.ar    1  UNL1       -0.0000
     26 C           3.5552    0.3506   18.6015 C.ar    1  UNL1       -0.0003
     27 C           2.1060    0.7360   18.6373 C.ar    1  UNL1       -0.0029
     28 C           3.9516   -1.0902   18.7322 C.ar    1  UNL1       -0.0000
     29 C           3.1650   -2.0067   19.6217 C.ar    1  UNL1       -0.0000
     30 C           3.5614   -3.4475   19.7525 C.ar    1  UNL1       -0.0000
     31 C           4.7443   -3.9717   18.9937 C.ar    1  UNL1        0.0000
     32 C           5.5309   -3.0552   18.1041 C.ar    1  UNL1       -0.0000
     33 C           5.1345   -1.6145   17.9734 C.ar    1  UNL1       -0.0000
@<TRIPOS>UNITY_ATOM_ATTR
19 1
charge -1
@<TRIPOS>BOND
     1     5     6    1
     2     6     7    1
     3     6     8    1
     4     8     9    1
     5     9    10    1
     6    10    11   ar
     7    11    12   ar
     8    12     2    1
     9     2     3    2
    10     2     4    2
    11     2     1    1
    12     1    17    1
    13    17    18    1
    14    18    19   ar
    15    18    20   ar
    16     1    21    1
    17    21    22    1
    18    22    23   ar
    19    23    24   ar
    20    24    25   ar
    21    25    26   ar
    22    26    28    1
    23    28    29   ar
    24    29    30   ar
    25    30    31   ar
    26    31    32   ar
    27    32    33   ar
    28    26    27   ar
    29    12    13   ar
    30    13    14   ar
    31    14    15   ar
    32    15    16    1
    33    16     6    1
    34    15    10   ar
    35    27    22   ar
    36    33    28   ar
@<TRIPOS>MOLECULE
*****
 33 36 0 0 0
SMALL
GASTEIGER

@<TRIPOS>ATOM
      1 N         -11.7173   -2.9635   18.2129 N.3     1  UNL1       -0.1454
      2 S         -12.7902   -3.9894   18.4283 S.O2    1  UNL1        0.0639
      3 O         -12.9700   -3.5056   19.8367 O.2     1  UNL1       -0.1528
      4 O         -12.6105   -4.4731   17.0199 O.2     1  UNL1       -0.1528
      5 C         -18.2466   -9.6243   19.4200 C.3     1  UNL1        0.0436
      6 C         -16.8664   -9.5086   18.8441 C.3     1  UNL1        0.1336
      7 C         -17.1301  -10.9646   18.5982 C.3     1  UNL1        0.0436
      8 C         -15.5778   -9.8986   18.1827 C.3     1  UNL1        0.0448
      9 C         -14.5049   -8.8727   17.9673 C.3     1  UNL1        0.0330
     10 C         -14.7205   -7.4569   18.4132 C.ar    1  UNL1        0.0132
     11 C         -13.6476   -6.4310   18.1978 C.ar    1  UNL1        0.0186
     12 C         -13.8632   -5.0152   18.6437 C.ar    1  UNL1        0.1221
     13 C         -15.1518   -4.6252   19.3051 C.ar    1  UNL1        0.0230
     14 C         -16.2248   -5.6510   19.5205 C.ar    1  UNL1        0.0379
     15 C         -16.0091   -7.0669   19.0746 C.ar    1  UNL1        0.1342
     16 O         -17.0820   -8.0928   19.2900 O.3     1  UNL1       -0.4829
     17 C         -10.3417   -3.1892   18.7670 C.3     1  UNL1        0.1375
     18 C          -9.6010   -4.4528   18.4436 C.2     1  UNL1        0.0683
     19 O          -9.2349   -4.7649   17.0228 O.co2   1  UNL1       -0.5477
     20 O          -9.2263   -5.4043   19.5410 O.co2   1  UNL1       -0.5477
     21 C         -12.0198   -1.7120   17.4433 C.3     1  UNL1        0.1225
     22 C         -13.4257   -1.1931   17.3782 C.ar    1  UNL1       -0.0045
     23 C         -14.3161   -1.5811   16.2351 C.ar    1  UNL1       -0.0029
     24 C         -15.7220   -1.0622   16.1700 C.ar    1  UNL1       -0.0003
     25 C         -16.2374   -0.1552   17.2478 C.ar    1  UNL1       -0.0000
     26 C         -15.3470    0.2328   18.3909 C.ar    1  UNL1       -0.0003
     27 C         -13.9411   -0.2861   18.4560 C.ar    1  UNL1       -0.0029
     28 C         -15.8624    1.1398   19.4688 C.ar    1  UNL1       -0.0000
     29 C         -16.8071    0.6100   20.5065 C.ar    1  UNL1       -0.0000
     30 C         -17.3225    1.5170   21.5843 C.ar    1  UNL1       -0.0000
     31 C         -16.8932    2.9537   21.6244 C.ar    1  UNL1        0.0000
     32 C         -15.9486    3.4835   20.5866 C.ar    1  UNL1       -0.0000
     33 C         -15.4332    2.5765   19.5088 C.ar    1  UNL1       -0.0000
@<TRIPOS>UNITY_ATOM_ATTR
19 1
charge -1
@<TRIPOS>BOND
     1     5     6    1
     2     6     7    1
     3     6     8    1
     4     8     9    1
     5     9    10    1
     6    10    11   ar
     7    11    12   ar
     8    12     2    1
     9     2     3    2
    10     2     4    2
    11     2     1    1
    12     1    17    1
    13    17    18    1
    14    18    19   ar
    15    18    20   ar
    16     1    21    1
    17    21    22    1
    18    22    23   ar
    19    23    24   ar
    20    24    25   ar
    21    25    26   ar
    22    26    28    1
    23    28    29   ar
    24    29    30   ar
    25    30    31   ar
    26    31    32   ar
    27    32    33   ar
    28    26    27   ar
    29    12    13   ar
    30    13    14   ar
    31    14    15   ar
    32    15    16    1
    33    16     6    1
    34    15    10   ar
    35    27    22   ar
    36    33    28   ar
@<TRIPOS>MOLECULE
*****
 33 36 0 0 0
SMALL
GASTEIGER

@<TRIPOS>ATOM
      1 N           4.3174   -2.0337   18.7891 N.3     1  UNL1       -0.1454
      2 S           4.0094   -1.6410   20.2036 S.O2    1  UNL1        0.0639
      3 O           5.4192   -1.1589   20.3768 O.2     1  UNL1       -0.1528
      4 O           2.5995   -2.1230   20.0305 O.2     1  UNL1       -0.1528
      5 C           2.1564    0.6433   27.5423 C.3     1  UNL1        0.0436
      6 C           1.7272    0.9641   26.1413 C.3     1  UNL1        0.1336
      7 C           0.8262    1.8867   26.9074 C.3     1  UNL1        0.0436
      8 C           0.9852    1.6053   25.0063 C.3     1  UNL1        0.0448
      9 C           1.2932    1.2125   23.5918 C.3     1  UNL1        0.0330
     10 C           2.3433    0.1785   23.3122 C.ar    1  UNL1        0.0132
     11 C           2.6513   -0.2142   21.8977 C.ar    1  UNL1        0.0186
     12 C           3.7013   -1.2482   21.6182 C.ar    1  UNL1        0.1221
     13 C           4.4435   -1.8895   22.7531 C.ar    1  UNL1        0.0230
     14 C           4.1355   -1.4967   24.1677 C.ar    1  UNL1        0.0379
     15 C           3.0853   -0.4627   24.4472 C.ar    1  UNL1        0.1342
     16 O           2.7773   -0.0699   25.8617 O.3     1  UNL1       -0.4829
     17 C           4.9966   -3.3406   18.5046 C.3     1  UNL1        0.1375
     18 C           5.0490   -4.4042   19.5610 C.2     1  UNL1        0.0683
     19 O           3.9335   -5.4002   19.6785 O.co2   1  UNL1       -0.5477
     20 O           6.2168   -4.4718   20.4999 O.co2   1  UNL1       -0.5477
     21 C           3.9462   -1.1197   17.6592 C.3     1  UNL1        0.1225
     22 C           3.6959    0.3355   17.9230 C.ar    1  UNL1       -0.0045
     23 C           4.8259    1.3183   17.8385 C.ar    1  UNL1       -0.0029
     24 C           4.5756    2.7735   18.1024 C.ar    1  UNL1       -0.0003
     25 C           3.1952    3.2460   18.4506 C.ar    1  UNL1       -0.0000
     26 C           2.0651    2.2632   18.5351 C.ar    1  UNL1       -0.0003
     27 C           2.3155    0.8080   18.2713 C.ar    1  UNL1       -0.0029
     28 C           0.6847    2.7357   18.8834 C.ar    1  UNL1       -0.0000
     29 C           0.1041    2.4267   20.2314 C.ar    1  UNL1       -0.0000
     30 C          -1.2763    2.8992   20.5797 C.ar    1  UNL1       -0.0000
     31 C          -2.0760    3.6807   19.5798 C.ar    1  UNL1        0.0000
     32 C          -1.4954    3.9896   18.2317 C.ar    1  UNL1       -0.0000
     33 C          -0.1151    3.5171   17.8835 C.ar    1  UNL1       -0.0000
@<TRIPOS>UNITY_ATOM_ATTR
19 1
charge -1
@<TRIPOS>BOND
     1     5     6    1
     2     6     7    1
     3     6     8    1
     4     8     9    1
     5     9    10    1
     6    10    11   ar
     7    11    12   ar
     8    12     2    1
     9     2     3    2
    10     2     4    2
    11     2     1    1
    12     1    17    1
    13    17    18    1
    14    18    19   ar
    15    18    20   ar
    16     1    21    1
    17    21    22    1
    18    22    23   ar
    19    23    24   ar
    20    24    25   ar
    21    25    26   ar
    22    26    28    1
    23    28    29   ar
    24    29    30   ar
    25    30    31   ar
    26    31    32   ar
    27    32    33   ar
    28    26    27   ar
    29    12    13   ar
    30    13    14   ar
    31    14    15   ar
    32    15    16    1
    33    16     6    1
    34    15    10   ar
    35    27    22   ar
    36    33    28   ar
