@<TRIPOS>MOLECULE
*****
 41 44 0 0 0
SMALL
GASTEIGER

@<TRIPOS>ATOM
      1 C           2.7091    3.3272   34.0945 C.3     1  UNL1        0.1146
      2 C           3.4033    2.3171   34.9592 C.ar    1  UNL1        0.0045
      3 C           4.6296    1.6151   34.4557 C.ar    1  UNL1        0.0275
      4 C           5.3238    0.6050   35.3204 C.ar    1  UNL1        0.1429
      5 F           6.5523   -0.1845   34.9777 F       1  UNL1       -0.2041
      6 C           4.7918    0.2969   36.6886 C.ar    1  UNL1        0.0667
      7 C           3.5656    0.9989   37.1921 C.ar    1  UNL1        0.1461
      8 C           2.8713    2.0090   36.3274 C.ar    1  UNL1        0.0349
      9 O           3.0336    0.6908   38.5604 O.3     1  UNL1       -0.4263
     10 C           1.8828    1.4787   39.1126 C.3     1  UNL1        0.4723
     11 F           0.9585    0.3344   38.8192 F       1  UNL1       -0.1579
     12 F           2.8071    2.6230   39.4061 F       1  UNL1       -0.1579
     13 C           0.7321    2.2665   39.6648 C.3     1  UNL1        0.4202
     14 F          -0.1701    3.0263   38.7381 F       1  UNL1       -0.1876
     15 F           0.4835    2.2946   41.1439 F       1  UNL1       -0.1876
     16 C           3.7807    4.3297   34.4052 C.ar    1  UNL1        0.0792
     17 C           4.5601    4.9640   33.2916 C.ar    1  UNL1        0.0175
     18 C           5.6318    5.9665   33.6025 C.ar    1  UNL1        0.0142
     19 C           5.9240    6.3347   35.0269 C.ar    1  UNL1        0.0768
     20 CL          6.9957    7.3372   35.3377 Cl      1  UNL1       -0.0806
     21 C           5.1446    5.7004   36.1405 C.ar    1  UNL1        0.1098
     22 N           4.0729    4.6979   35.8297 N.ar    1  UNL1       -0.2454
     23 N           1.6375    2.3248   33.7837 N.pl3   1  UNL1       -0.3078
     24 H           1.0281    2.0194   34.4941 H       1  UNL1        0.1492
     25 C           2.4861   -0.1277   29.1292 C.3     1  UNL1        0.0398
     26 C           1.9530    0.6467   30.2979 C.ar    1  UNL1        0.0318
     27 S           2.5089    0.9635   31.6546 S.2     1  UNL1       -0.0562
     28 C           1.4942    1.7876   32.3904 C.ar    1  UNL1        0.1599
     29 N           0.3112    1.9801   31.4885 N.ar    1  UNL1       -0.2206
     30 C           0.5947    1.2751   30.1953 C.ar    1  UNL1        0.1565
     31 C          -0.3195    1.2098   29.0078 C.3     1  UNL1        0.4351
     32 F          -1.2337    1.1445   27.8204 F       1  UNL1       -0.1644
     33 F          -0.8224   -0.1261   29.4685 F       1  UNL1       -0.1644
     34 F           0.1835    2.5457   28.5471 F       1  UNL1       -0.1644
     35 C           2.0149    4.3373   33.2298 C.3     1  UNL1        0.0543
     36 C           0.8456    5.1078   33.7675 C.ar    1  UNL1       -0.0199
     37 C           0.9264    5.7445   35.1232 C.ar    1  UNL1       -0.0042
     38 C          -0.2430    6.5149   35.6608 C.ar    1  UNL1       -0.0003
     39 C          -1.4931    6.6486   34.8427 C.ar    1  UNL1       -0.0000
     40 C          -1.5739    6.0119   33.4870 C.ar    1  UNL1       -0.0003
     41 C          -0.4046    5.2415   32.9494 C.ar    1  UNL1       -0.0042
@<TRIPOS>BOND
     1    25    26    1
     2    26    27   ar
     3    27    28   ar
     4    28    23    1
     5    23     1    1
     6     1    35    1
     7    35    36    1
     8    36    37   ar
     9    37    38   ar
    10    38    39   ar
    11    39    40   ar
    12    40    41   ar
    13     1     2    1
    14     2     3   ar
    15     3     4   ar
    16     4     5    1
    17     4     6   ar
    18     6     7   ar
    19     7     9    1
    20     9    10    1
    21    10    11    1
    22    10    12    1
    23    10    13    1
    24    13    14    1
    25    13    15    1
    26     7     8   ar
    27     1    16    1
    28    16    17   ar
    29    17    18   ar
    30    18    19   ar
    31    19    20    1
    32    19    21   ar
    33    21    22   ar
    34    28    29   ar
    35    29    30   ar
    36    30    31    1
    37    31    32    1
    38    31    33    1
    39    31    34    1
    40    30    26   ar
    41    41    36   ar
    42     8     2   ar
    43    22    16   ar
    44    23    24    1
@<TRIPOS>MOLECULE
*****
 41 44 0 0 0
SMALL
GASTEIGER

@<TRIPOS>ATOM
      1 C           0.3116    2.9183   20.4094 C.3     1  UNL1        0.1146
      2 C           0.6236    3.0460   21.8711 C.ar    1  UNL1        0.0045
      3 C           1.3166    4.2728   22.3856 C.ar    1  UNL1        0.0275
      4 C           1.6287    4.4005   23.8472 C.ar    1  UNL1        0.1429
      5 F           2.3116    5.5498   24.5274 F       1  UNL1       -0.2041
      6 C           1.2478    3.3014   24.7942 C.ar    1  UNL1        0.0667
      7 C           0.5548    2.0746   24.2796 C.ar    1  UNL1        0.1461
      8 C           0.2427    1.9469   22.8181 C.ar    1  UNL1        0.0349
      9 O           0.1739    0.9755   25.2268 O.3     1  UNL1       -0.4263
     10 C          -0.2380    1.3047   26.6310 C.3     1  UNL1        0.4723
     11 F           0.9818    0.6049   27.1528 F       1  UNL1       -0.1579
     12 F          -1.4578    2.0045   26.1091 F       1  UNL1       -0.1579
     13 C          -0.6499    1.6339   28.0352 C.3     1  UNL1        0.4202
     14 F          -1.6532    0.7730   28.7439 F       1  UNL1       -0.1876
     15 F          -0.0585    2.8241   28.7309 F       1  UNL1       -0.1876
     16 C           1.1620    1.6849   20.3356 C.ar    1  UNL1        0.0792
     17 C           0.5241    0.3467   20.1066 C.ar    1  UNL1        0.0175
     18 C           1.3746   -0.8867   20.0329 C.ar    1  UNL1        0.0142
     19 C           2.8628   -0.7819   20.1881 C.ar    1  UNL1        0.0768
     20 CL          3.7133   -2.0154   20.1143 Cl      1  UNL1       -0.0806
     21 C           3.5007    0.5562   20.4171 C.ar    1  UNL1        0.1098
     22 N           2.6503    1.7896   20.4908 N.ar    1  UNL1       -0.2454
     23 N          -0.5388    4.1517   20.4832 N.pl3   1  UNL1       -0.3078
     24 H          -0.1333    5.0382   20.3456 H       1  UNL1        0.1492
     25 C          -5.8195    3.6188   20.0040 C.3     1  UNL1        0.0398
     26 C          -4.4031    3.7867   20.4682 C.ar    1  UNL1        0.0318
     27 S          -3.0909    3.8565   19.7448 S.2     1  UNL1       -0.0562
     28 C          -2.0072    4.0345   20.7666 C.ar    1  UNL1        0.1599
     29 N          -2.6496    4.0747   22.1214 N.ar    1  UNL1       -0.2206
     30 C          -4.1304    3.9215   21.9370 C.ar    1  UNL1        0.1565
     31 C          -5.1580    3.9060   23.0297 C.3     1  UNL1        0.4351
     32 F          -6.1856    3.8904   24.1223 F       1  UNL1       -0.1644
     33 F          -4.9609    2.4281   23.1939 F       1  UNL1       -0.1644
     34 F          -5.3550    5.3839   22.8654 F       1  UNL1       -0.1644
     35 C          -0.0005    2.7906   18.9478 C.3     1  UNL1        0.0543
     36 C           0.4673    3.8427   17.9863 C.ar    1  UNL1       -0.0199
     37 C           1.8814    4.3392   18.0474 C.ar    1  UNL1       -0.0042
     38 C           2.3490    5.3912   17.0859 C.ar    1  UNL1       -0.0003
     39 C           1.4026    5.9467   16.0633 C.ar    1  UNL1       -0.0000
     40 C          -0.0115    5.4502   16.0022 C.ar    1  UNL1       -0.0003
     41 C          -0.4792    4.3982   16.9637 C.ar    1  UNL1       -0.0042
@<TRIPOS>BOND
     1    25    26    1
     2    26    27   ar
     3    27    28   ar
     4    28    23    1
     5    23     1    1
     6     1    35    1
     7    35    36    1
     8    36    37   ar
     9    37    38   ar
    10    38    39   ar
    11    39    40   ar
    12    40    41   ar
    13     1     2    1
    14     2     3   ar
    15     3     4   ar
    16     4     5    1
    17     4     6   ar
    18     6     7   ar
    19     7     9    1
    20     9    10    1
    21    10    11    1
    22    10    12    1
    23    10    13    1
    24    13    14    1
    25    13    15    1
    26     7     8   ar
    27     1    16    1
    28    16    17   ar
    29    17    18   ar
    30    18    19   ar
    31    19    20    1
    32    19    21   ar
    33    21    22   ar
    34    28    29   ar
    35    29    30   ar
    36    30    31    1
    37    31    32    1
    38    31    33    1
    39    31    34    1
    40    30    26   ar
    41    41    36   ar
    42     8     2   ar
    43    22    16   ar
    44    23    24    1
@<TRIPOS>MOLECULE
*****
 41 44 0 0 0
SMALL
GASTEIGER

@<TRIPOS>ATOM
      1 C           3.3739    2.0407   33.2289 C.3     1  UNL1        0.1146
      2 C           2.8286    2.7441   34.4364 C.ar    1  UNL1        0.0045
      3 C           1.9263    3.9307   34.2693 C.ar    1  UNL1        0.0275
      4 C           1.3809    4.6341   35.4767 C.ar    1  UNL1        0.1429
      5 F           0.4721    5.8273   35.4925 F       1  UNL1       -0.2041
      6 C           1.7379    4.1509   36.8511 C.ar    1  UNL1        0.0667
      7 C           2.6402    2.9643   37.0182 C.ar    1  UNL1        0.1461
      8 C           3.1855    2.2609   35.8108 C.ar    1  UNL1        0.0349
      9 O           2.9971    2.4812   38.3927 O.3     1  UNL1       -0.4263
     10 C           2.0447    1.6043   39.1503 C.3     1  UNL1        0.4723
     11 F           1.5823    2.7910   39.9426 F       1  UNL1       -0.1579
     12 F           2.5071    0.4176   38.3579 F       1  UNL1       -0.1579
     13 C           1.0923    0.7274   39.9078 C.3     1  UNL1        0.4202
     14 F           0.8596   -0.6864   39.4637 F       1  UNL1       -0.1876
     15 F           0.3727    1.2641   41.1095 F       1  UNL1       -0.1876
     16 C           4.7574    2.4944   33.5895 C.ar    1  UNL1        0.0792
     17 C           5.3293    3.7301   32.9603 C.ar    1  UNL1        0.0175
     18 C           6.7129    4.1838   33.3210 C.ar    1  UNL1        0.0142
     19 C           7.5244    3.4018   34.3108 C.ar    1  UNL1        0.0768
     20 CL          8.9080    3.8555   34.6715 Cl      1  UNL1       -0.0806
     21 C           6.9525    2.1661   34.9400 C.ar    1  UNL1        0.1098
     22 N           5.5691    1.7124   34.5794 N.ar    1  UNL1       -0.2454
     23 N           1.9905    1.5870   32.8683 N.pl3   1  UNL1       -0.3078
     24 H           1.4508    1.0858   33.5217 H       1  UNL1        0.1492
     25 C           0.2561    4.0884   28.4941 C.3     1  UNL1        0.0398
     26 C           0.6576    3.1067   29.5548 C.ar    1  UNL1        0.0318
     27 S           1.2485    3.2650   30.9244 S.2     1  UNL1       -0.0562
     28 C           1.4291    1.8968   31.5122 C.ar    1  UNL1        0.1599
     29 N           0.9499    0.8930   30.5059 N.ar    1  UNL1       -0.2206
     30 C           0.4731    1.6407   29.2962 C.ar    1  UNL1        0.1565
     31 C          -0.0895    1.0297   28.0471 C.3     1  UNL1        0.4351
     32 F          -0.6520    0.4187   26.7979 F       1  UNL1       -0.1644
     33 F          -1.4426    0.9601   28.6905 F       1  UNL1       -0.1644
     34 F           1.2637    1.0994   27.4035 F       1  UNL1       -0.1644
     35 C           3.9193    1.3373   32.0216 C.3     1  UNL1        0.0543
     36 C           4.5502   -0.0162   32.1632 C.ar    1  UNL1       -0.0199
     37 C           3.9257   -1.0447   33.0589 C.ar    1  UNL1       -0.0042
     38 C           4.5565   -2.3982   33.2005 C.ar    1  UNL1       -0.0003
     39 C           5.8118   -2.7232   32.4465 C.ar    1  UNL1       -0.0000
     40 C           6.4363   -1.6947   31.5509 C.ar    1  UNL1       -0.0003
     41 C           5.8055   -0.3412   31.4092 C.ar    1  UNL1       -0.0042
@<TRIPOS>BOND
     1    25    26    1
     2    26    27   ar
     3    27    28   ar
     4    28    23    1
     5    23     1    1
     6     1    35    1
     7    35    36    1
     8    36    37   ar
     9    37    38   ar
    10    38    39   ar
    11    39    40   ar
    12    40    41   ar
    13     1     2    1
    14     2     3   ar
    15     3     4   ar
    16     4     5    1
    17     4     6   ar
    18     6     7   ar
    19     7     9    1
    20     9    10    1
    21    10    11    1
    22    10    12    1
    23    10    13    1
    24    13    14    1
    25    13    15    1
    26     7     8   ar
    27     1    16    1
    28    16    17   ar
    29    17    18   ar
    30    18    19   ar
    31    19    20    1
    32    19    21   ar
    33    21    22   ar
    34    28    29   ar
    35    29    30   ar
    36    30    31    1
    37    31    32    1
    38    31    33    1
    39    31    34    1
    40    30    26   ar
    41    41    36   ar
    42     8     2   ar
    43    22    16   ar
    44    23    24    1
@<TRIPOS>MOLECULE
*****
 41 44 0 0 0
SMALL
GASTEIGER

@<TRIPOS>ATOM
      1 C           3.6507    0.0217   20.7206 C.3     1  UNL1        0.1146
      2 C           3.9485   -1.4324   20.5041 C.ar    1  UNL1        0.0045
      3 C           3.0493   -2.2609   19.6353 C.ar    1  UNL1        0.0275
      4 C           3.3471   -3.7150   19.4187 C.ar    1  UNL1        0.1429
      5 F           2.5598   -4.6836   18.5870 F       1  UNL1       -0.2041
      6 C           4.5442   -4.3405   20.0711 C.ar    1  UNL1        0.0667
      7 C           5.4434   -3.5120   20.9400 C.ar    1  UNL1        0.1461
      8 C           5.1456   -2.0580   21.1565 C.ar    1  UNL1        0.0349
      9 O           6.6406   -4.1377   21.5924 O.3     1  UNL1       -0.4263
     10 C           6.7457   -4.1750   23.0882 C.3     1  UNL1        0.4723
     11 F           8.2405   -4.1065   22.9849 F       1  UNL1       -0.1579
     12 F           5.2508   -4.2436   23.1915 F       1  UNL1       -0.1579
     13 C           6.8508   -4.2123   24.5840 C.3     1  UNL1        0.4202
     14 F           6.0724   -3.2360   25.4152 F       1  UNL1       -0.1876
     15 F           7.7343   -5.2261   25.2487 F       1  UNL1       -0.1876
     16 C           4.7554    0.3888   19.7748 C.ar    1  UNL1        0.0792
     17 C           4.6228    0.0837   18.3121 C.ar    1  UNL1        0.0175
     18 C           5.7277    0.4508   17.3662 C.ar    1  UNL1        0.0142
     19 C           6.9650    1.1230   17.8830 C.ar    1  UNL1        0.0768
     20 CL          8.0698    1.4901   16.9371 Cl      1  UNL1       -0.0806
     21 C           7.0976    1.4282   19.3456 C.ar    1  UNL1        0.1098
     22 N           5.9928    1.0611   20.2915 N.ar    1  UNL1       -0.2454
     23 N           2.5459   -0.3453   21.6665 N.pl3   1  UNL1       -0.3078
     24 H           1.7080   -0.7287   21.3197 H       1  UNL1        0.1492
     25 C           1.9928    1.3358   26.6932 C.3     1  UNL1        0.0398
     26 C           2.4035    0.6831   25.4065 C.ar    1  UNL1        0.0318
     27 S           1.8826    0.7717   24.0027 S.2     1  UNL1       -0.0562
     28 C           2.7177   -0.1283   23.1408 C.ar    1  UNL1        0.1599
     29 N           3.7546   -0.7730   24.0120 N.ar    1  UNL1       -0.2206
     30 C           3.5605   -0.2716   25.4123 C.ar    1  UNL1        0.1565
     31 C           4.3795   -0.6571   26.6084 C.3     1  UNL1        0.4351
     32 F           5.1985   -1.0426   27.8045 F       1  UNL1       -0.1644
     33 F           3.3766   -1.7178   26.9532 F       1  UNL1       -0.1644
     34 F           5.3824    0.4037   26.2636 F       1  UNL1       -0.1644
     35 C           3.3528    1.4758   20.9371 C.3     1  UNL1        0.0543
     36 C           2.5091    2.2240   19.9478 C.ar    1  UNL1       -0.0199
     37 C           1.2750    1.5869   19.3813 C.ar    1  UNL1       -0.0042
     38 C           0.4314    2.3350   18.3921 C.ar    1  UNL1       -0.0003
     39 C           0.8219    3.7203   17.9695 C.ar    1  UNL1       -0.0000
     40 C           2.0560    4.3574   18.5361 C.ar    1  UNL1       -0.0003
     41 C           2.8996    3.6092   19.5253 C.ar    1  UNL1       -0.0042
@<TRIPOS>BOND
     1    25    26    1
     2    26    27   ar
     3    27    28   ar
     4    28    23    1
     5    23     1    1
     6     1    35    1
     7    35    36    1
     8    36    37   ar
     9    37    38   ar
    10    38    39   ar
    11    39    40   ar
    12    40    41   ar
    13     1     2    1
    14     2     3   ar
    15     3     4   ar
    16     4     5    1
    17     4     6   ar
    18     6     7   ar
    19     7     9    1
    20     9    10    1
    21    10    11    1
    22    10    12    1
    23    10    13    1
    24    13    14    1
    25    13    15    1
    26     7     8   ar
    27     1    16    1
    28    16    17   ar
    29    17    18   ar
    30    18    19   ar
    31    19    20    1
    32    19    21   ar
    33    21    22   ar
    34    28    29   ar
    35    29    30   ar
    36    30    31    1
    37    31    32    1
    38    31    33    1
    39    31    34    1
    40    30    26   ar
    41    41    36   ar
    42     8     2   ar
    43    22    16   ar
    44    23    24    1
@<TRIPOS>MOLECULE
*****
 41 44 0 0 0
SMALL
GASTEIGER

@<TRIPOS>ATOM
      1 C           2.7142    1.0491   30.1603 C.3     1  UNL1        0.1146
      2 C           1.4737    1.0489   29.3169 C.ar    1  UNL1        0.0045
      3 C           0.5145   -0.1018   29.3940 C.ar    1  UNL1        0.0275
      4 C          -0.7259   -0.1020   28.5507 C.ar    1  UNL1        0.1429
      5 F          -1.7850   -1.1632   28.5032 F       1  UNL1       -0.2041
      6 C          -1.0073    1.0485   27.6304 C.ar    1  UNL1        0.0667
      7 C          -0.0482    2.1992   27.5533 C.ar    1  UNL1        0.1461
      8 C           1.1923    2.1994   28.3966 C.ar    1  UNL1        0.0349
      9 O          -0.3296    3.3498   26.6329 O.3     1  UNL1       -0.4263
     10 C          -1.6562    3.4487   25.9398 C.3     1  UNL1        0.4723
     11 F          -1.1032    2.6857   24.7727 F       1  UNL1       -0.1579
     12 F          -2.2091    4.2116   27.1069 F       1  UNL1       -0.1579
     13 C          -2.9827    3.5475   25.2467 C.3     1  UNL1        0.4202
     14 F          -4.2364    3.7319   26.0493 F       1  UNL1       -0.1876
     15 F          -3.0556    3.4621   23.7508 F       1  UNL1       -0.1876
     16 C           3.5560    1.1377   28.9219 C.ar    1  UNL1        0.0792
     17 C           3.5567    0.0097   27.9332 C.ar    1  UNL1        0.0175
     18 C           4.3985    0.0984   26.6948 C.ar    1  UNL1        0.0142
     19 C           5.2395    1.3151   26.4452 C.ar    1  UNL1        0.0768
     20 CL          6.0814    1.4038   25.2068 Cl      1  UNL1       -0.0806
     21 C           5.2388    2.4431   27.4339 C.ar    1  UNL1        0.1098
     22 N           4.3971    2.3544   28.6723 N.ar    1  UNL1       -0.2454
     23 N           1.8724    0.9604   31.3986 N.pl3   1  UNL1       -0.3078
     24 H           1.5569    0.0841   31.7176 H       1  UNL1        0.1492
     25 C           1.4647    4.7659   35.1069 C.3     1  UNL1        0.0398
     26 C           1.3746    3.8969   33.8876 C.ar    1  UNL1        0.0318
     27 S           1.9767    2.5704   33.5298 S.2     1  UNL1       -0.0562
     28 C           1.5114    2.2069   32.1509 C.ar    1  UNL1        0.1599
     29 N           0.6218    3.3087   31.6564 N.ar    1  UNL1       -0.2206
     30 C           0.5372    4.3532   32.7297 C.ar    1  UNL1        0.1565
     31 C          -0.2471    5.6298   32.6577 C.3     1  UNL1        0.4351
     32 F          -1.0313    6.9065   32.5858 F       1  UNL1       -0.1644
     33 F          -1.4406    4.9292   33.2360 F       1  UNL1       -0.1644
     34 F           0.9465    6.3305   32.0794 F       1  UNL1       -0.1644
     35 C           3.9547    1.0492   31.0035 C.3     1  UNL1        0.0543
     36 C           4.4432   -0.2284   31.6193 C.ar    1  UNL1       -0.0199
     37 C           3.9968   -0.6151   32.9981 C.ar    1  UNL1       -0.0042
     38 C           4.4853   -1.8926   33.6138 C.ar    1  UNL1       -0.0003
     39 C           5.4202   -2.7835   32.8507 C.ar    1  UNL1       -0.0000
     40 C           5.8665   -2.3969   31.4719 C.ar    1  UNL1       -0.0003
     41 C           5.3781   -1.1193   30.8562 C.ar    1  UNL1       -0.0042
@<TRIPOS>BOND
     1    25    26    1
     2    26    27   ar
     3    27    28   ar
     4    28    23    1
     5    23     1    1
     6     1    35    1
     7    35    36    1
     8    36    37   ar
     9    37    38   ar
    10    38    39   ar
    11    39    40   ar
    12    40    41   ar
    13     1     2    1
    14     2     3   ar
    15     3     4   ar
    16     4     5    1
    17     4     6   ar
    18     6     7   ar
    19     7     9    1
    20     9    10    1
    21    10    11    1
    22    10    12    1
    23    10    13    1
    24    13    14    1
    25    13    15    1
    26     7     8   ar
    27     1    16    1
    28    16    17   ar
    29    17    18   ar
    30    18    19   ar
    31    19    20    1
    32    19    21   ar
    33    21    22   ar
    34    28    29   ar
    35    29    30   ar
    36    30    31    1
    37    31    32    1
    38    31    33    1
    39    31    34    1
    40    30    26   ar
    41    41    36   ar
    42     8     2   ar
    43    22    16   ar
    44    23    24    1
@<TRIPOS>MOLECULE
*****
 41 44 0 0 0
SMALL
GASTEIGER

@<TRIPOS>ATOM
      1 C           5.8074   -1.0437   31.4854 C.3     1  UNL1        0.1146
      2 C           4.8169   -0.8862   30.3700 C.ar    1  UNL1        0.0045
      3 C           5.2748   -0.9644   28.9437 C.ar    1  UNL1        0.0275
      4 C           4.2843   -0.8070   27.8283 C.ar    1  UNL1        0.1429
      5 F           4.5673   -0.8569   26.3561 F       1  UNL1       -0.2041
      6 C           2.8360   -0.5713   28.1392 C.ar    1  UNL1        0.0667
      7 C           2.3781   -0.4932   29.5654 C.ar    1  UNL1        0.1461
      8 C           3.3685   -0.6506   30.6808 C.ar    1  UNL1        0.0349
      9 O           0.9296   -0.2576   29.8762 O.3     1  UNL1       -0.4263
     10 C           0.0301    0.3519   28.8421 C.3     1  UNL1        0.4723
     11 F           0.7318    1.6673   29.0069 F       1  UNL1       -0.1579
     12 F          -0.6716   -0.9636   28.6772 F       1  UNL1       -0.1579
     13 C          -0.8694    0.9613   27.8079 C.3     1  UNL1        0.4202
     14 F          -2.1594    1.6051   28.2216 F       1  UNL1       -0.1876
     15 F          -0.4788    0.9268   26.3600 F       1  UNL1       -0.1876
     16 C           6.1951    0.3984   31.3446 C.ar    1  UNL1        0.0792
     17 C           7.5772    0.7625   30.8894 C.ar    1  UNL1        0.0175
     18 C           7.9649    2.2048   30.7486 C.ar    1  UNL1        0.0142
     19 C           6.9705    3.2828   31.0631 C.ar    1  UNL1        0.0768
     20 CL          7.3582    4.7251   30.9223 Cl      1  UNL1       -0.0806
     21 C           5.5884    2.9187   31.5183 C.ar    1  UNL1        0.1098
     22 N           5.2007    1.4766   31.6591 N.ar    1  UNL1       -0.2454
     23 N           5.4197   -2.4858   31.6262 N.pl3   1  UNL1       -0.3078
     24 H           4.5491   -2.7255   32.0186 H       1  UNL1        0.1492
     25 C           8.6941   -6.6864   31.4454 C.3     1  UNL1        0.0398
     26 C           7.8385   -5.4864   31.1661 C.ar    1  UNL1        0.0318
     27 S           6.9679   -4.6265   32.0336 S.2     1  UNL1       -0.0562
     28 C           6.3583   -3.5629   31.1691 C.ar    1  UNL1        0.1599
     29 N           6.8523   -3.7655   29.7674 N.ar    1  UNL1       -0.2206
     30 C           7.7670   -4.9543   29.7655 C.ar    1  UNL1        0.1565
     31 C           8.4844   -5.5129   28.5724 C.3     1  UNL1        0.4351
     32 F           9.2018   -6.0715   27.3794 F       1  UNL1       -0.1644
     33 F           9.5339   -4.4496   28.7057 F       1  UNL1       -0.1644
     34 F           7.4348   -6.5762   28.4392 F       1  UNL1       -0.1644
     35 C           6.7979   -1.2011   32.6008 C.3     1  UNL1        0.0543
     36 C           6.4383   -0.7649   33.9903 C.ar    1  UNL1       -0.0199
     37 C           7.4800   -0.1478   34.8758 C.ar    1  UNL1       -0.0042
     38 C           7.1204    0.2883   36.2652 C.ar    1  UNL1       -0.0003
     39 C           5.7192    0.1073   36.7691 C.ar    1  UNL1       -0.0000
     40 C           4.6776   -0.5098   35.8836 C.ar    1  UNL1       -0.0003
     41 C           5.0371   -0.9459   34.4942 C.ar    1  UNL1       -0.0042
@<TRIPOS>BOND
     1    25    26    1
     2    26    27   ar
     3    27    28   ar
     4    28    23    1
     5    23     1    1
     6     1    35    1
     7    35    36    1
     8    36    37   ar
     9    37    38   ar
    10    38    39   ar
    11    39    40   ar
    12    40    41   ar
    13     1     2    1
    14     2     3   ar
    15     3     4   ar
    16     4     5    1
    17     4     6   ar
    18     6     7   ar
    19     7     9    1
    20     9    10    1
    21    10    11    1
    22    10    12    1
    23    10    13    1
    24    13    14    1
    25    13    15    1
    26     7     8   ar
    27     1    16    1
    28    16    17   ar
    29    17    18   ar
    30    18    19   ar
    31    19    20    1
    32    19    21   ar
    33    21    22   ar
    34    28    29   ar
    35    29    30   ar
    36    30    31    1
    37    31    32    1
    38    31    33    1
    39    31    34    1
    40    30    26   ar
    41    41    36   ar
    42     8     2   ar
    43    22    16   ar
    44    23    24    1
@<TRIPOS>MOLECULE
*****
 41 44 0 0 0
SMALL
GASTEIGER

@<TRIPOS>ATOM
      1 C           3.5874    2.6610   35.5220 C.3     1  UNL1        0.1146
      2 C           4.4792    1.9540   34.5446 C.ar    1  UNL1        0.0045
      3 C           5.2031    2.7356   33.4887 C.ar    1  UNL1        0.0275
      4 C           6.0948    2.0287   32.5114 C.ar    1  UNL1        0.1429
      5 F           6.8878    2.6500   31.4001 F       1  UNL1       -0.2041
      6 C           6.2626    0.5403   32.5901 C.ar    1  UNL1        0.0667
      7 C           5.5387   -0.2413   33.6460 C.ar    1  UNL1        0.1461
      8 C           4.6470    0.4655   34.6233 C.ar    1  UNL1        0.0349
      9 O           5.7065   -1.7299   33.7247 O.3     1  UNL1       -0.4263
     10 C           5.9788   -2.5208   32.4796 C.3     1  UNL1        0.4723
     11 F           4.5252   -2.4496   32.1165 F       1  UNL1       -0.1579
     12 F           7.4324   -2.5919   32.8426 F       1  UNL1       -0.1579
     13 C           6.2511   -3.3116   31.2345 C.3     1  UNL1        0.4202
     14 F           6.6967   -4.7403   31.3358 F       1  UNL1       -0.1876
     15 F           6.0778   -2.6738   29.8879 F       1  UNL1       -0.1876
     16 C           4.7818    3.3477   36.1150 C.ar    1  UNL1        0.0792
     17 C           5.8146    2.5505   36.8551 C.ar    1  UNL1        0.0175
     18 C           7.0091    3.2373   37.4481 C.ar    1  UNL1        0.0142
     19 C           7.1707    4.7213   37.3010 C.ar    1  UNL1        0.0768
     20 CL          8.3652    5.4081   37.8940 Cl      1  UNL1       -0.0806
     21 C           6.1379    5.5185   36.5609 C.ar    1  UNL1        0.1098
     22 N           4.9435    4.8318   35.9679 N.ar    1  UNL1       -0.2454
     23 N           2.3930    1.9742   34.9290 N.pl3   1  UNL1       -0.3078
     24 H           1.9615    1.2327   35.4118 H       1  UNL1        0.1492
     25 C           0.3473    4.8455   30.9327 C.3     1  UNL1        0.0398
     26 C           0.9216    3.7891   31.8294 C.ar    1  UNL1        0.0318
     27 S           1.3656    3.7940   33.2622 S.2     1  UNL1       -0.0562
     28 C           1.8560    2.4173   33.6003 C.ar    1  UNL1        0.1599
     29 N           1.7151    1.5616   32.3764 N.ar    1  UNL1       -0.2206
     30 C           1.1376    2.4093   31.2820 C.ar    1  UNL1        0.1565
     31 C           0.8302    1.9568   29.8853 C.3     1  UNL1        0.4351
     32 F           0.5227    1.5043   28.4886 F       1  UNL1       -0.1644
     33 F          -0.4648    1.3682   30.3611 F       1  UNL1       -0.1644
     34 F           2.1252    2.5454   29.4095 F       1  UNL1       -0.1644
     35 C           2.6958    3.3679   36.4993 C.3     1  UNL1        0.0543
     36 C           2.0645    2.6052   37.6262 C.ar    1  UNL1       -0.0199
     37 C           2.6181    1.2715   38.0320 C.ar    1  UNL1       -0.0042
     38 C           1.9868    0.5089   39.1588 C.ar    1  UNL1       -0.0003
     39 C           0.8020    1.0800   39.8799 C.ar    1  UNL1       -0.0000
     40 C           0.2484    2.4137   39.4742 C.ar    1  UNL1       -0.0003
     41 C           0.8797    3.1763   38.3473 C.ar    1  UNL1       -0.0042
@<TRIPOS>BOND
     1    25    26    1
     2    26    27   ar
     3    27    28   ar
     4    28    23    1
     5    23     1    1
     6     1    35    1
     7    35    36    1
     8    36    37   ar
     9    37    38   ar
    10    38    39   ar
    11    39    40   ar
    12    40    41   ar
    13     1     2    1
    14     2     3   ar
    15     3     4   ar
    16     4     5    1
    17     4     6   ar
    18     6     7   ar
    19     7     9    1
    20     9    10    1
    21    10    11    1
    22    10    12    1
    23    10    13    1
    24    13    14    1
    25    13    15    1
    26     7     8   ar
    27     1    16    1
    28    16    17   ar
    29    17    18   ar
    30    18    19   ar
    31    19    20    1
    32    19    21   ar
    33    21    22   ar
    34    28    29   ar
    35    29    30   ar
    36    30    31    1
    37    31    32    1
    38    31    33    1
    39    31    34    1
    40    30    26   ar
    41    41    36   ar
    42     8     2   ar
    43    22    16   ar
    44    23    24    1
@<TRIPOS>MOLECULE
*****
 41 44 0 0 0
SMALL
GASTEIGER

@<TRIPOS>ATOM
      1 C           4.8607    1.2033   34.1725 C.3     1  UNL1        0.1146
      2 C           4.9538    2.6946   34.0405 C.ar    1  UNL1        0.0045
      3 C           6.2955    3.3653   34.0416 C.ar    1  UNL1        0.0275
      4 C           6.3887    4.8565   33.9096 C.ar    1  UNL1        0.1429
      5 F           7.6391    5.6848   33.8920 F       1  UNL1       -0.2041
      6 C           5.1402    5.6771   33.7766 C.ar    1  UNL1        0.0667
      7 C           3.7985    5.0065   33.7755 C.ar    1  UNL1        0.1461
      8 C           3.7053    3.5152   33.9075 C.ar    1  UNL1        0.0349
      9 O           2.5499    5.8271   33.6425 O.3     1  UNL1       -0.4263
     10 C           1.2658    5.1762   33.2214 C.3     1  UNL1        0.4723
     11 F           1.7041    5.2386   31.7883 F       1  UNL1       -0.1579
     12 F           0.8275    5.1137   34.6546 F       1  UNL1       -0.1579
     13 C          -0.0183    4.5252   32.8004 C.3     1  UNL1        0.4202
     14 F           0.0110    3.2568   32.0002 F       1  UNL1       -0.1876
     15 F          -1.3317    5.1426   33.1796 F       1  UNL1       -0.1876
     16 C           4.3224    1.1133   32.7753 C.ar    1  UNL1        0.0792
     17 C           2.9040    0.6834   32.5442 C.ar    1  UNL1        0.0175
     18 C           2.3658    0.5935   31.1470 C.ar    1  UNL1        0.0142
     19 C           3.2459    0.9334   29.9809 C.ar    1  UNL1        0.0768
     20 CL          2.7077    0.8434   28.5836 Cl      1  UNL1       -0.0806
     21 C           4.6643    1.3633   30.2120 C.ar    1  UNL1        0.1098
     22 N           5.2025    1.4533   31.6092 N.ar    1  UNL1       -0.2454
     23 N           5.3989    1.2933   35.5697 N.pl3   1  UNL1       -0.3078
     24 H           6.3022    0.9580   35.7718 H       1  UNL1        0.1492
     25 C           3.7105    4.1014   39.7724 C.3     1  UNL1        0.0398
     26 C           3.8664    3.2032   38.5813 C.ar    1  UNL1        0.0318
     27 S           5.0312    2.8694   37.6972 S.2     1  UNL1       -0.0562
     28 C           4.5608    1.8941   36.6591 C.ar    1  UNL1        0.1599
     29 N           3.1052    1.6251   36.9016 N.ar    1  UNL1       -0.2206
     30 C           2.6760    2.4342   38.0896 C.ar    1  UNL1        0.1565
     31 C           1.2983    2.4682   38.6819 C.3     1  UNL1        0.4351
     32 F          -0.0794    2.5023   39.2743 F       1  UNL1       -0.1644
     33 F           1.6379    1.2856   39.5397 F       1  UNL1       -0.1644
     34 F           0.9588    3.6510   37.8241 F       1  UNL1       -0.1644
     35 C           4.7675   -0.2879   34.3045 C.3     1  UNL1        0.0543
     36 C           5.7778   -1.1654   33.6266 C.ar    1  UNL1       -0.0199
     37 C           5.3360   -2.4188   32.9310 C.ar    1  UNL1       -0.0042
     38 C           6.3462   -3.2962   32.2532 C.ar    1  UNL1       -0.0003
     39 C           7.7982   -2.9203   32.2709 C.ar    1  UNL1       -0.0000
     40 C           8.2400   -1.6669   32.9665 C.ar    1  UNL1       -0.0003
     41 C           7.2298   -0.7895   33.6443 C.ar    1  UNL1       -0.0042
@<TRIPOS>BOND
     1    25    26    1
     2    26    27   ar
     3    27    28   ar
     4    28    23    1
     5    23     1    1
     6     1    35    1
     7    35    36    1
     8    36    37   ar
     9    37    38   ar
    10    38    39   ar
    11    39    40   ar
    12    40    41   ar
    13     1     2    1
    14     2     3   ar
    15     3     4   ar
    16     4     5    1
    17     4     6   ar
    18     6     7   ar
    19     7     9    1
    20     9    10    1
    21    10    11    1
    22    10    12    1
    23    10    13    1
    24    13    14    1
    25    13    15    1
    26     7     8   ar
    27     1    16    1
    28    16    17   ar
    29    17    18   ar
    30    18    19   ar
    31    19    20    1
    32    19    21   ar
    33    21    22   ar
    34    28    29   ar
    35    29    30   ar
    36    30    31    1
    37    31    32    1
    38    31    33    1
    39    31    34    1
    40    30    26   ar
    41    41    36   ar
    42     8     2   ar
    43    22    16   ar
    44    23    24    1
@<TRIPOS>MOLECULE
*****
 41 44 0 0 0
SMALL
GASTEIGER

@<TRIPOS>ATOM
      1 C           1.4160    2.3720   21.6318 C.3     1  UNL1        0.1146
      2 C           2.1562    1.4579   20.7009 C.ar    1  UNL1        0.0045
      3 C           2.9808    2.0301   19.5862 C.ar    1  UNL1        0.0275
      4 C           3.7209    1.1160   18.6553 C.ar    1  UNL1        0.1429
      5 F           4.5855    1.5150   17.4963 F       1  UNL1       -0.2041
      6 C           3.6364   -0.3703   18.8390 C.ar    1  UNL1        0.0667
      7 C           2.8118   -0.9425   19.9537 C.ar    1  UNL1        0.1461
      8 C           2.0717   -0.0284   20.8847 C.ar    1  UNL1        0.0349
      9 O           2.7273   -2.4288   20.1375 O.3     1  UNL1       -0.4263
     10 C           3.8760   -3.3018   19.7272 C.3     1  UNL1        0.4723
     11 F           4.7611   -2.6014   20.7151 F       1  UNL1       -0.1579
     12 F           2.9908   -4.0021   18.7393 F       1  UNL1       -0.1579
     13 C           5.0247   -4.1747   19.3168 C.3     1  UNL1        0.4202
     14 F           6.3925   -3.9287   19.8811 F       1  UNL1       -0.1876
     15 F           4.8055   -5.2937   18.3421 F       1  UNL1       -0.1876
     16 C           2.7173    2.9671   22.0819 C.ar    1  UNL1        0.0792
     17 C           3.7187    2.1186   22.8080 C.ar    1  UNL1        0.0175
     18 C           5.0200    2.7138   23.2581 C.ar    1  UNL1        0.0142
     19 C           5.3198    4.1573   22.9821 C.ar    1  UNL1        0.0768
     20 CL          6.6211    4.7525   23.4322 Cl      1  UNL1       -0.0806
     21 C           4.3183    5.0058   22.2561 C.ar    1  UNL1        0.1098
     22 N           3.0171    4.4107   21.8060 N.ar    1  UNL1       -0.2454
     23 N           0.1148    1.7769   21.1817 N.pl3   1  UNL1       -0.3078
     24 H          -0.0846    0.8311   21.3683 H       1  UNL1        0.1492
     25 C          -2.2588    5.0145   17.6770 C.3     1  UNL1        0.0398
     26 C          -1.8940    4.1025   18.8106 C.ar    1  UNL1        0.0318
     27 S          -0.6218    3.4075   19.1958 S.2     1  UNL1       -0.0562
     28 C          -0.8827    2.6230   20.4474 C.ar    1  UNL1        0.1599
     29 N          -2.3162    2.8332   20.8358 N.ar    1  UNL1       -0.2206
     30 C          -2.9413    3.7475   19.8242 C.ar    1  UNL1        0.1565
     31 C          -4.3638    4.2234   19.8259 C.3     1  UNL1        0.4351
     32 F          -5.7863    4.6993   19.8276 F       1  UNL1       -0.1644
     33 F          -4.7066    3.2023   18.7820 F       1  UNL1       -0.1644
     34 F          -4.0210    5.2445   20.8698 F       1  UNL1       -0.1644
     35 C           0.6760    3.2861   22.5628 C.3     1  UNL1        0.0543
     36 C           0.1775    2.7713   23.8806 C.ar    1  UNL1       -0.0199
     37 C           0.8205    1.5703   24.5083 C.ar    1  UNL1       -0.0042
     38 C           0.3220    1.0555   25.8260 C.ar    1  UNL1       -0.0003
     39 C          -0.8194    1.7418   26.5160 C.ar    1  UNL1       -0.0000
     40 C          -1.4624    2.9428   25.8884 C.ar    1  UNL1       -0.0003
     41 C          -0.9639    3.4576   24.5706 C.ar    1  UNL1       -0.0042
@<TRIPOS>BOND
     1    25    26    1
     2    26    27   ar
     3    27    28   ar
     4    28    23    1
     5    23     1    1
     6     1    35    1
     7    35    36    1
     8    36    37   ar
     9    37    38   ar
    10    38    39   ar
    11    39    40   ar
    12    40    41   ar
    13     1     2    1
    14     2     3   ar
    15     3     4   ar
    16     4     5    1
    17     4     6   ar
    18     6     7   ar
    19     7     9    1
    20     9    10    1
    21    10    11    1
    22    10    12    1
    23    10    13    1
    24    13    14    1
    25    13    15    1
    26     7     8   ar
    27     1    16    1
    28    16    17   ar
    29    17    18   ar
    30    18    19   ar
    31    19    20    1
    32    19    21   ar
    33    21    22   ar
    34    28    29   ar
    35    29    30   ar
    36    30    31    1
    37    31    32    1
    38    31    33    1
    39    31    34    1
    40    30    26   ar
    41    41    36   ar
    42     8     2   ar
    43    22    16   ar
    44    23    24    1
