@<TRIPOS>MOLECULE
*****
 17 18 0 0 0
SMALL
GASTEIGER

@<TRIPOS>ATOM
      1 O         -12.3932  -18.6260   24.7289 O.2     1  UNL1       -0.2866
      2 C         -11.1639  -18.2099   23.9767 C.2     1  UNL1        0.1957
      3 C         -11.1425  -18.2778   22.4785 C.ar    1  UNL1        0.0398
      4 C         -10.7794  -19.5605   21.7909 C.ar    1  UNL1        0.0032
      5 C         -10.7579  -19.6283   20.2926 C.ar    1  UNL1        0.0010
      6 C         -11.0996  -18.4134   19.4818 C.ar    1  UNL1        0.0114
      7 C         -11.4627  -17.1307   20.1694 C.ar    1  UNL1        0.0578
      8 CL        -11.8044  -15.9158   19.3587 Cl      1  UNL1       -0.0822
      9 C         -11.4841  -17.0629   21.6678 C.ar    1  UNL1        0.0146
     10 C          -9.9559  -17.7260   24.7230 C.2     1  UNL1        0.0421
     11 C          -9.3087  -16.4279   24.3410 C.2     1  UNL1        0.0048
     12 C          -8.1008  -15.9439   25.0872 C.ar    1  UNL1        0.0193
     13 C          -8.0797  -15.9837   26.5865 C.ar    1  UNL1        0.0031
     14 C          -6.8718  -15.4997   27.3327 C.ar    1  UNL1        0.0207
     15 C          -5.6850  -14.9761   26.5795 C.ar    1  UNL1        0.0989
     16 N          -5.7061  -14.9363   25.0802 N.ar    1  UNL1       -0.2423
     17 C          -6.9139  -15.4203   24.3341 C.ar    1  UNL1        0.0988
@<TRIPOS>BOND
     1     1     2    2
     2     2    10    1
     3    10    11    2
     4    11    12    1
     5    12    13   ar
     6    13    14   ar
     7    14    15   ar
     8    15    16   ar
     9    16    17   ar
    10     2     3    1
    11     3     4   ar
    12     4     5   ar
    13     5     6   ar
    14     6     7   ar
    15     7     8    1
    16     7     9   ar
    17    17    12   ar
    18     9     3   ar
@<TRIPOS>MOLECULE
*****
 17 18 0 0 0
SMALL
GASTEIGER

@<TRIPOS>ATOM
      1 O          -9.2018  -20.7862   24.1130 O.2     1  UNL1       -0.2866
      2 C          -9.1494  -19.6666   23.1162 C.2     1  UNL1        0.1957
      3 C         -10.4180  -19.0115   22.6566 C.ar    1  UNL1        0.0398
      4 C         -10.5641  -18.5795   21.2277 C.ar    1  UNL1        0.0032
      5 C         -11.8328  -17.9244   20.7681 C.ar    1  UNL1        0.0010
      6 C         -12.9555  -17.7013   21.7376 C.ar    1  UNL1        0.0114
      7 C         -12.8095  -18.1333   23.1666 C.ar    1  UNL1        0.0578
      8 CL        -13.9321  -17.9103   24.1360 Cl      1  UNL1       -0.0822
      9 C         -11.5407  -18.7885   23.6261 C.ar    1  UNL1        0.0146
     10 C          -7.8281  -19.2021   22.5788 C.2     1  UNL1        0.0421
     11 C          -6.8411  -20.1999   22.0495 C.2     1  UNL1        0.0048
     12 C          -5.5199  -19.7354   21.5121 C.ar    1  UNL1        0.0193
     13 C          -4.9425  -20.3757   20.2847 C.ar    1  UNL1        0.0031
     14 C          -3.6213  -19.9112   19.7475 C.ar    1  UNL1        0.0207
     15 C          -2.8776  -18.8064   20.4376 C.ar    1  UNL1        0.0989
     16 N          -3.4550  -18.1661   21.6650 N.ar    1  UNL1       -0.2423
     17 C          -4.7762  -18.6306   22.2022 C.ar    1  UNL1        0.0988
@<TRIPOS>BOND
     1     1     2    2
     2     2    10    1
     3    10    11    2
     4    11    12    1
     5    12    13   ar
     6    13    14   ar
     7    14    15   ar
     8    15    16   ar
     9    16    17   ar
    10     2     3    1
    11     3     4   ar
    12     4     5   ar
    13     5     6   ar
    14     6     7   ar
    15     7     8    1
    16     7     9   ar
    17    17    12   ar
    18     9     3   ar
@<TRIPOS>MOLECULE
*****
 17 18 0 0 0
SMALL
GASTEIGER

@<TRIPOS>ATOM
      1 O         -12.2875  -18.6586   24.7148 O.2     1  UNL1       -0.2866
      2 C         -11.1438  -18.0521   23.9571 C.2     1  UNL1        0.1957
      3 C         -11.2295  -17.8961   22.4677 C.ar    1  UNL1        0.0398
      4 C         -11.9695  -16.7329   21.8768 C.ar    1  UNL1        0.0032
      5 C         -12.0552  -16.5770   20.3874 C.ar    1  UNL1        0.0010
      6 C         -11.4008  -17.5843   19.4889 C.ar    1  UNL1        0.0114
      7 C         -10.6608  -18.7475   20.0799 C.ar    1  UNL1        0.0578
      8 CL        -10.0064  -19.7548   19.1815 Cl      1  UNL1       -0.0822
      9 C         -10.5751  -18.9034   21.5694 C.ar    1  UNL1        0.0146
     10 C          -9.9144  -17.6014   24.6889 C.2     1  UNL1        0.0421
     11 C          -9.2542  -16.3061   24.3197 C.2     1  UNL1        0.0048
     12 C          -8.0248  -15.8555   25.0515 C.ar    1  UNL1        0.0193
     13 C          -7.9835  -15.9053   26.5500 C.ar    1  UNL1        0.0031
     14 C          -6.7541  -15.4547   27.2818 C.ar    1  UNL1        0.0207
     15 C          -5.5660  -14.9543   26.5150 C.ar    1  UNL1        0.0989
     16 N          -5.6073  -14.9044   25.0164 N.ar    1  UNL1       -0.2423
     17 C          -6.8367  -15.3551   24.2846 C.ar    1  UNL1        0.0988
@<TRIPOS>BOND
     1     1     2    2
     2     2    10    1
     3    10    11    2
     4    11    12    1
     5    12    13   ar
     6    13    14   ar
     7    14    15   ar
     8    15    16   ar
     9    16    17   ar
    10     2     3    1
    11     3     4   ar
    12     4     5   ar
    13     5     6   ar
    14     6     7   ar
    15     7     8    1
    16     7     9   ar
    17    17    12   ar
    18     9     3   ar
@<TRIPOS>MOLECULE
*****
 17 18 0 0 0
SMALL
GASTEIGER

@<TRIPOS>ATOM
      1 O          -9.1596  -18.8916   19.6064 O.2     1  UNL1       -0.2866
      2 C          -8.5819  -18.9812   20.9878 C.2     1  UNL1        0.1957
      3 C          -9.4910  -19.1103   22.1739 C.ar    1  UNL1        0.0398
      4 C          -9.0721  -19.9370   23.3533 C.ar    1  UNL1        0.0032
      5 C          -9.9811  -20.0662   24.5395 C.ar    1  UNL1        0.0010
      6 C         -11.3091  -19.3685   24.5462 C.ar    1  UNL1        0.0114
      7 C         -11.7279  -18.5418   23.3668 C.ar    1  UNL1        0.0578
      8 CL        -13.0557  -17.8441   23.3735 Cl      1  UNL1       -0.0822
      9 C         -10.8188  -18.4127   22.1806 C.ar    1  UNL1        0.0146
     10 C          -7.0952  -18.9415   21.1830 C.2     1  UNL1        0.0421
     11 C          -6.1800  -19.2904   20.0469 C.2     1  UNL1        0.0048
     12 C          -4.6932  -19.2507   20.2421 C.ar    1  UNL1        0.0193
     13 C          -3.8252  -18.5360   19.2493 C.ar    1  UNL1        0.0031
     14 C          -2.3385  -18.4964   19.4446 C.ar    1  UNL1        0.0207
     15 C          -1.7199  -19.1716   20.6326 C.ar    1  UNL1        0.0989
     16 N          -2.5879  -19.8863   21.6254 N.ar    1  UNL1       -0.2423
     17 C          -4.0746  -19.9259   21.4302 C.ar    1  UNL1        0.0988
@<TRIPOS>BOND
     1     1     2    2
     2     2    10    1
     3    10    11    2
     4    11    12    1
     5    12    13   ar
     6    13    14   ar
     7    14    15   ar
     8    15    16   ar
     9    16    17   ar
    10     2     3    1
    11     3     4   ar
    12     4     5   ar
    13     5     6   ar
    14     6     7   ar
    15     7     8    1
    16     7     9   ar
    17    17    12   ar
    18     9     3   ar
@<TRIPOS>MOLECULE
*****
 17 18 0 0 0
SMALL
GASTEIGER

@<TRIPOS>ATOM
      1 O          -5.7156  -21.3679   20.1118 O.2     1  UNL1       -0.2866
      2 C          -5.6341  -20.2674   21.1278 C.2     1  UNL1        0.1957
      3 C          -4.4207  -19.3875   21.1847 C.ar    1  UNL1        0.0398
      4 C          -3.9457  -18.8492   22.5017 C.ar    1  UNL1        0.0032
      5 C          -2.7322  -17.9693   22.5586 C.ar    1  UNL1        0.0010
      6 C          -1.9937  -17.6277   21.2984 C.ar    1  UNL1        0.0114
      7 C          -2.4687  -18.1661   19.9814 C.ar    1  UNL1        0.0578
      8 CL         -1.7302  -17.8245   18.7212 Cl      1  UNL1       -0.0822
      9 C          -3.6822  -19.0460   19.9245 C.ar    1  UNL1        0.0146
     10 C          -6.7662  -20.0468   22.0869 C.2     1  UNL1        0.0421
     11 C          -8.0290  -19.3872   21.6176 C.2     1  UNL1        0.0048
     12 C          -9.1611  -19.1666   22.5767 C.ar    1  UNL1        0.0193
     13 C          -9.3918  -20.1337   23.6998 C.ar    1  UNL1        0.0031
     14 C         -10.5238  -19.9130   24.6589 C.ar    1  UNL1        0.0207
     15 C         -11.4251  -18.7252   24.4948 C.ar    1  UNL1        0.0989
     16 N         -11.1944  -17.7581   23.3717 N.ar    1  UNL1       -0.2423
     17 C         -10.0623  -17.9788   22.4127 C.ar    1  UNL1        0.0988
@<TRIPOS>BOND
     1     1     2    2
     2     2    10    1
     3    10    11    2
     4    11    12    1
     5    12    13   ar
     6    13    14   ar
     7    14    15   ar
     8    15    16   ar
     9    16    17   ar
    10     2     3    1
    11     3     4   ar
    12     4     5   ar
    13     5     6   ar
    14     6     7   ar
    15     7     8    1
    16     7     9   ar
    17    17    12   ar
    18     9     3   ar
@<TRIPOS>MOLECULE
*****
 17 18 0 0 0
SMALL
GASTEIGER

@<TRIPOS>ATOM
      1 O          -6.3480  -20.9675   22.1306 O.2     1  UNL1       -0.2866
      2 C          -6.1501  -19.4990   21.8971 C.2     1  UNL1        0.1957
      3 C          -4.7646  -18.9425   21.7535 C.ar    1  UNL1        0.0398
      4 C          -4.0660  -18.3532   22.9429 C.ar    1  UNL1        0.0032
      5 C          -2.6806  -17.7966   22.7993 C.ar    1  UNL1        0.0010
      6 C          -1.9936  -17.8293   21.4662 C.ar    1  UNL1        0.0114
      7 C          -2.6922  -18.4185   20.2768 C.ar    1  UNL1        0.0578
      8 CL         -2.0053  -18.4512   18.9437 Cl      1  UNL1       -0.0822
      9 C          -4.0777  -18.9751   20.4204 C.ar    1  UNL1        0.0146
     10 C          -7.3377  -18.5871   21.8072 C.2     1  UNL1        0.0421
     11 C          -8.6299  -19.0925   21.2372 C.2     1  UNL1        0.0048
     12 C          -9.8175  -18.1806   21.1473 C.ar    1  UNL1        0.0193
     13 C         -10.1261  -17.2378   22.2724 C.ar    1  UNL1        0.0031
     14 C         -11.3137  -16.3260   22.1824 C.ar    1  UNL1        0.0207
     15 C         -12.1928  -16.3570   20.9674 C.ar    1  UNL1        0.0989
     16 N         -11.8842  -17.2998   19.8423 N.ar    1  UNL1       -0.2423
     17 C         -10.6966  -18.2117   19.9323 C.ar    1  UNL1        0.0988
@<TRIPOS>BOND
     1     1     2    2
     2     2    10    1
     3    10    11    2
     4    11    12    1
     5    12    13   ar
     6    13    14   ar
     7    14    15   ar
     8    15    16   ar
     9    16    17   ar
    10     2     3    1
    11     3     4   ar
    12     4     5   ar
    13     5     6   ar
    14     6     7   ar
    15     7     8    1
    16     7     9   ar
    17    17    12   ar
    18     9     3   ar
@<TRIPOS>MOLECULE
*****
 17 18 0 0 0
SMALL
GASTEIGER

@<TRIPOS>ATOM
      1 O         -11.9506  -18.7228   23.4809 O.2     1  UNL1       -0.2866
      2 C         -10.4966  -18.5433   23.1589 C.2     1  UNL1        0.1957
      3 C          -9.9731  -18.9369   21.8095 C.ar    1  UNL1        0.0398
      4 C         -10.9224  -19.1332   20.6648 C.ar    1  UNL1        0.0032
      5 C         -10.3989  -19.5269   19.3154 C.ar    1  UNL1        0.0010
      6 C          -8.9260  -19.7242   19.1106 C.ar    1  UNL1        0.0114
      7 C          -7.9768  -19.5279   20.2553 C.ar    1  UNL1        0.0578
      8 CL         -6.5040  -19.7253   20.0506 Cl      1  UNL1       -0.0822
      9 C          -8.5004  -19.1343   21.6048 C.ar    1  UNL1        0.0146
     10 C          -9.5661  -17.9701   24.1864 C.2     1  UNL1        0.0421
     11 C          -8.9760  -16.6057   23.9858 C.2     1  UNL1        0.0048
     12 C          -8.0455  -16.0325   25.0133 C.ar    1  UNL1        0.0193
     13 C          -8.4332  -16.0379   26.4623 C.ar    1  UNL1        0.0031
     14 C          -7.5027  -15.4648   27.4897 C.ar    1  UNL1        0.0207
     15 C          -6.1846  -14.8862   27.0682 C.ar    1  UNL1        0.0989
     16 N          -5.7969  -14.8808   25.6192 N.ar    1  UNL1       -0.2423
     17 C          -6.7274  -15.4540   24.5917 C.ar    1  UNL1        0.0988
@<TRIPOS>BOND
     1     1     2    2
     2     2    10    1
     3    10    11    2
     4    11    12    1
     5    12    13   ar
     6    13    14   ar
     7    14    15   ar
     8    15    16   ar
     9    16    17   ar
    10     2     3    1
    11     3     4   ar
    12     4     5   ar
    13     5     6   ar
    14     6     7   ar
    15     7     8    1
    16     7     9   ar
    17    17    12   ar
    18     9     3   ar
@<TRIPOS>MOLECULE
*****
 17 18 0 0 0
SMALL
GASTEIGER

@<TRIPOS>ATOM
      1 O          -5.8902  -16.6867   23.2581 O.2     1  UNL1       -0.2866
      2 C          -6.5717  -17.8955   22.6885 C.2     1  UNL1        0.1957
      3 C          -5.7951  -18.8712   21.8550 C.ar    1  UNL1        0.0398
      4 C          -6.5173  -19.9055   21.0433 C.ar    1  UNL1        0.0032
      5 C          -5.7407  -20.8812   20.2097 C.ar    1  UNL1        0.0010
      6 C          -4.2420  -20.8227   20.1878 C.ar    1  UNL1        0.0114
      7 C          -3.5198  -19.7885   20.9996 C.ar    1  UNL1        0.0578
      8 CL         -2.0212  -19.7300   20.9777 Cl      1  UNL1       -0.0822
      9 C          -4.2965  -18.8127   21.8331 C.ar    1  UNL1        0.0146
     10 C          -8.0298  -18.1285   22.9526 C.2     1  UNL1        0.0421
     11 C          -9.0107  -17.0058   22.7873 C.2     1  UNL1        0.0048
     12 C         -10.4688  -17.2387   23.0513 C.ar    1  UNL1        0.0193
     13 C         -10.8975  -18.3465   23.9672 C.ar    1  UNL1        0.0031
     14 C         -12.3556  -18.5795   24.2312 C.ar    1  UNL1        0.0207
     15 C         -13.3850  -17.7046   23.5792 C.ar    1  UNL1        0.0989
     16 N         -12.9563  -16.5968   22.6633 N.ar    1  UNL1       -0.2423
     17 C         -11.4982  -16.3639   22.3993 C.ar    1  UNL1        0.0988
@<TRIPOS>BOND
     1     1     2    2
     2     2    10    1
     3    10    11    2
     4    11    12    1
     5    12    13   ar
     6    13    14   ar
     7    14    15   ar
     8    15    16   ar
     9    16    17   ar
    10     2     3    1
    11     3     4   ar
    12     4     5   ar
    13     5     6   ar
    14     6     7   ar
    15     7     8    1
    16     7     9   ar
    17    17    12   ar
    18     9     3   ar
@<TRIPOS>MOLECULE
*****
 17 18 0 0 0
SMALL
GASTEIGER

@<TRIPOS>ATOM
      1 O          -6.0505  -15.7348   24.0336 O.2     1  UNL1       -0.2866
      2 C          -6.3403  -16.9803   23.2494 C.2     1  UNL1        0.1957
      3 C          -5.2109  -17.7999   22.6993 C.ar    1  UNL1        0.0398
      4 C          -3.8068  -17.5492   23.1634 C.ar    1  UNL1        0.0032
      5 C          -2.6774  -18.3688   22.6132 C.ar    1  UNL1        0.0010
      6 C          -2.9522  -19.4392   21.5988 C.ar    1  UNL1        0.0114
      7 C          -4.3564  -19.6898   21.1347 C.ar    1  UNL1        0.0578
      8 CL         -4.6312  -20.7601   20.1203 Cl      1  UNL1       -0.0822
      9 C          -5.4858  -18.8701   21.6849 C.ar    1  UNL1        0.0146
     10 C          -7.7595  -17.4061   23.0155 C.2     1  UNL1        0.0421
     11 C          -8.7139  -16.4835   22.3172 C.2     1  UNL1        0.0048
     12 C         -10.1331  -16.9094   22.0832 C.ar    1  UNL1        0.0193
     13 C         -10.8762  -17.6598   23.1484 C.ar    1  UNL1        0.0031
     14 C         -12.2953  -18.0856   22.9145 C.ar    1  UNL1        0.0207
     15 C         -12.9713  -17.7610   21.6153 C.ar    1  UNL1        0.0989
     16 N         -12.2282  -17.0106   20.5502 N.ar    1  UNL1       -0.2423
     17 C         -10.8091  -16.5848   20.7841 C.ar    1  UNL1        0.0988
@<TRIPOS>BOND
     1     1     2    2
     2     2    10    1
     3    10    11    2
     4    11    12    1
     5    12    13   ar
     6    13    14   ar
     7    14    15   ar
     8    15    16   ar
     9    16    17   ar
    10     2     3    1
    11     3     4   ar
    12     4     5   ar
    13     5     6   ar
    14     6     7   ar
    15     7     8    1
    16     7     9   ar
    17    17    12   ar
    18     9     3   ar
