@<TRIPOS>MOLECULE
*****
 32 36 0 0 0
SMALL
GASTEIGER

@<TRIPOS>ATOM
      1 N         -16.9060   -3.4767   19.6534 N.am    1  UNL1       -0.2723
      2 C         -18.0917   -2.6161   19.9749 C.2     1  UNL1        0.2685
      3 O         -19.3437   -3.2372   20.5197 O.2     1  UNL1       -0.2682
      4 C         -10.5490   -0.3227   16.8873 C.3     1  UNL1        0.0896
      5 N         -11.8009   -0.9438   17.4321 N.3     1  UNL1       -0.2715
      6 C         -12.9361   -1.4957   16.6217 C.3     1  UNL1        0.0722
      7 C         -13.9743   -2.0151   17.5716 C.3     1  UNL1        0.0190
      8 C         -15.3175   -2.6773   17.6579 C.3     1  UNL1        0.0213
      9 C         -15.6540   -2.8555   19.1087 C.3     1  UNL1        0.0761
     10 C         -14.5190   -2.3036   19.9191 C.3     1  UNL1        0.0213
     11 C         -13.4808   -1.7842   18.9692 C.3     1  UNL1        0.0190
     12 C         -12.1376   -1.1221   18.8829 C.3     1  UNL1        0.0722
     13 C         -18.0255   -1.1342   19.7516 C.ar    1  UNL1        0.1535
     14 C         -18.3401   -0.4208   18.4702 C.ar    1  UNL1        0.1012
     15 N         -18.1420    1.0487   18.6972 N.ar    1  UNL1       -0.3057
     16 C         -18.3453    2.1331   17.6810 C.3     1  UNL1        0.1321
     17 C         -17.7051    1.2434   20.1189 C.ar    1  UNL1        0.1787
     18 N         -17.6331   -0.1058   20.7705 N.ar    1  UNL1       -0.2192
     19 C         -16.9723   -4.9585   19.8767 C.3     1  UNL1        0.1205
     20 C         -16.0756   -5.8751   19.0983 C.ar    1  UNL1        0.0008
     21 C         -16.6157   -6.6301   17.9201 C.ar    1  UNL1       -0.0001
     22 C         -15.7191   -7.5467   17.1417 C.ar    1  UNL1        0.0325
     23 C         -14.2823   -7.7083   17.5416 C.ar    1  UNL1        0.1738
     24 F         -13.3857   -8.6249   16.7632 F       1  UNL1       -0.2010
     25 C         -13.7423   -6.9532   18.7198 C.ar    1  UNL1        0.1653
     26 C         -14.6390   -6.0366   19.4982 C.ar    1  UNL1        0.0366
     27 O         -12.3057   -7.1148   19.1197 O.3     1  UNL1       -0.4769
     28 C         -11.2790   -6.1313   18.6416 C.3     1  UNL1        0.1660
     29 C         -10.2131   -6.3960   17.6198 C.3     1  UNL1        0.0435
     30 C          -9.4132   -5.1387   17.4481 C.3     1  UNL1        0.0038
     31 C          -9.9847   -4.0970   18.3637 C.3     1  UNL1        0.0038
     32 C         -11.1378   -4.7105   19.1013 C.3     1  UNL1        0.0435
@<TRIPOS>BOND
     1     4     5    1
     2     5     6    1
     3     7     6    1
     4     7     8    1
     5     8     9    1
     6     9     1    1
     7     1    19    1
     8    19    20    1
     9    20    21   ar
    10    21    22   ar
    11    22    23   ar
    12    23    24    1
    13    23    25   ar
    14    25    27    1
    15    27    28    1
    16    28    29    1
    17    29    30    1
    18    30    31    1
    19    31    32    1
    20    25    26   ar
    21     1     2   am
    22     2     3    2
    23     2    13    1
    24    13    14   ar
    25    14    15   ar
    26    15    16    1
    27    15    17   ar
    28    17    18   ar
    29     9    10    1
    30    11    10    1
    31    11    12    1
    32    12     5    1
    33    11     7    1
    34    26    20   ar
    35    18    13   ar
    36    32    28    1
@<TRIPOS>MOLECULE
*****
 32 36 0 0 0
SMALL
GASTEIGER

@<TRIPOS>ATOM
      1 N         -16.8471   -4.4587   19.4166 N.am    1  UNL1       -0.2723
      2 C         -18.1309   -5.2194   19.5681 C.2     1  UNL1        0.2685
      3 O         -19.3742   -4.5105   20.0172 O.2     1  UNL1       -0.2682
      4 C         -10.5341   -8.0583   17.1362 C.3     1  UNL1        0.0896
      5 N         -11.7774   -7.3494   17.5853 N.3     1  UNL1       -0.2715
      6 C         -12.1884   -7.1054   19.0071 C.3     1  UNL1        0.0722
      7 C         -13.4930   -6.3652   18.9920 C.3     1  UNL1        0.0190
      8 C         -14.5533   -5.7570   19.8614 C.3     1  UNL1        0.0213
      9 C         -15.6038   -5.1676   18.9675 C.3     1  UNL1        0.0761
     10 C         -15.1928   -5.4115   17.5457 C.3     1  UNL1        0.0213
     11 C         -13.8882   -6.1517   17.5608 C.3     1  UNL1        0.0190
     12 C         -12.8279   -6.7600   16.6915 C.3     1  UNL1        0.0722
     13 C         -18.1716   -6.6891   19.2705 C.ar    1  UNL1        0.1535
     14 C         -18.7107   -7.3211   18.0215 C.ar    1  UNL1        0.1012
     15 N         -18.5525   -8.8074   18.1488 N.ar    1  UNL1       -0.3057
     16 C         -18.9597   -9.8280   17.1277 C.3     1  UNL1        0.1321
     17 C         -17.9156   -9.0938   19.4763 C.ar    1  UNL1        0.1787
     18 N         -17.6802   -7.7846   20.1695 N.ar    1  UNL1       -0.2192
     19 C         -16.8065   -2.9891   19.7142 C.3     1  UNL1        0.1205
     20 C         -15.8125   -2.1095   19.0154 C.ar    1  UNL1        0.0008
     21 C         -16.2768   -1.1287   17.9797 C.ar    1  UNL1       -0.0001
     22 C         -15.2828   -0.2491   17.2809 C.ar    1  UNL1        0.0325
     23 C         -13.8246   -0.3504   17.6178 C.ar    1  UNL1        0.1738
     24 F         -12.8306    0.5292   16.9190 F       1  UNL1       -0.2010
     25 C         -13.3604   -1.3311   18.6534 C.ar    1  UNL1        0.1653
     26 C         -14.3544   -2.2107   19.3522 C.ar    1  UNL1        0.0366
     27 O         -11.9022   -1.4323   18.9902 O.3     1  UNL1       -0.4769
     28 C         -11.0170   -2.3648   18.2176 C.3     1  UNL1        0.1660
     29 C         -10.6100   -3.7458   18.6389 C.3     1  UNL1        0.0435
     30 C          -9.7248   -4.3145   17.5698 C.3     1  UNL1        0.0038
     31 C          -9.5847   -3.2851   16.4878 C.3     1  UNL1        0.0038
     32 C         -10.3833   -2.0801   16.8882 C.3     1  UNL1        0.0435
@<TRIPOS>BOND
     1     4     5    1
     2     5     6    1
     3     7     6    1
     4     7     8    1
     5     8     9    1
     6     9     1    1
     7     1    19    1
     8    19    20    1
     9    20    21   ar
    10    21    22   ar
    11    22    23   ar
    12    23    24    1
    13    23    25   ar
    14    25    27    1
    15    27    28    1
    16    28    29    1
    17    29    30    1
    18    30    31    1
    19    31    32    1
    20    25    26   ar
    21     1     2   am
    22     2     3    2
    23     2    13    1
    24    13    14   ar
    25    14    15   ar
    26    15    16    1
    27    15    17   ar
    28    17    18   ar
    29     9    10    1
    30    11    10    1
    31    11    12    1
    32    12     5    1
    33    11     7    1
    34    26    20   ar
    35    18    13   ar
    36    32    28    1
@<TRIPOS>MOLECULE
*****
 32 36 0 0 0
SMALL
GASTEIGER

@<TRIPOS>ATOM
      1 N           7.0096   -3.4573   22.5165 N.am    1  UNL1       -0.2723
      2 C           6.8591   -4.1150   21.1768 C.2     1  UNL1        0.2685
      3 O           7.7987   -5.2110   20.7696 O.2     1  UNL1       -0.2682
      4 C           2.2389    2.1083   24.5843 C.3     1  UNL1        0.0896
      5 N           3.1784    1.0122   24.1770 N.3     1  UNL1       -0.2715
      6 C           4.5334    1.1961   23.5605 C.3     1  UNL1        0.0722
      7 C           5.1204   -0.1627   23.3172 C.3     1  UNL1        0.0190
      8 C           6.3206   -0.8888   22.7859 C.3     1  UNL1        0.0213
      9 C           6.0701   -2.3612   22.9237 C.3     1  UNL1        0.0761
     10 C           4.7151   -2.5452   23.5403 C.3     1  UNL1        0.0213
     11 C           4.1282   -1.1864   23.7835 C.3     1  UNL1        0.0190
     12 C           2.9280   -0.4603   24.3148 C.3     1  UNL1        0.0722
     13 C           5.7690   -3.6766   20.2443 C.ar    1  UNL1        0.1535
     14 C           5.8257   -2.5032   19.3115 C.ar    1  UNL1        0.1012
     15 N           4.5225   -2.4361   18.5716 N.ar    1  UNL1       -0.3057
     16 C           4.1472   -1.4162   17.5377 C.3     1  UNL1        0.1321
     17 C           3.6606   -3.5679   19.0471 C.ar    1  UNL1        0.1787
     18 N           4.4310   -4.3345   20.0809 N.ar    1  UNL1       -0.2192
     19 C           8.0997   -3.8957   23.4489 C.3     1  UNL1        0.1205
     20 C           7.8891   -5.0804   24.3446 C.ar    1  UNL1        0.0008
     21 C           8.5126   -6.4007   24.0009 C.ar    1  UNL1       -0.0001
     22 C           8.3021   -7.5854   24.8966 C.ar    1  UNL1        0.0325
     23 C           7.4680   -7.4497   26.1359 C.ar    1  UNL1        0.1738
     24 F           7.2574   -8.6344   27.0316 F       1  UNL1       -0.2010
     25 C           6.8445   -6.1294   26.4796 C.ar    1  UNL1        0.1653
     26 C           7.0551   -4.9448   25.5839 C.ar    1  UNL1        0.0366
     27 O           6.0105   -5.9938   27.7189 O.3     1  UNL1       -0.4769
     28 C           6.5231   -5.2017   28.8850 C.3     1  UNL1        0.1660
     29 C           7.0264   -5.7654   30.1808 C.3     1  UNL1        0.0435
     30 C           7.4368   -4.6188   31.0567 C.3     1  UNL1        0.0038
     31 C           7.1872   -3.3466   30.3022 C.3     1  UNL1        0.0038
     32 C           6.6225   -3.7069   28.9600 C.3     1  UNL1        0.0435
@<TRIPOS>BOND
     1     4     5    1
     2     5     6    1
     3     7     6    1
     4     7     8    1
     5     8     9    1
     6     9     1    1
     7     1    19    1
     8    19    20    1
     9    20    21   ar
    10    21    22   ar
    11    22    23   ar
    12    23    24    1
    13    23    25   ar
    14    25    27    1
    15    27    28    1
    16    28    29    1
    17    29    30    1
    18    30    31    1
    19    31    32    1
    20    25    26   ar
    21     1     2   am
    22     2     3    2
    23     2    13    1
    24    13    14   ar
    25    14    15   ar
    26    15    16    1
    27    15    17   ar
    28    17    18   ar
    29     9    10    1
    30    11    10    1
    31    11    12    1
    32    12     5    1
    33    11     7    1
    34    26    20   ar
    35    18    13   ar
    36    32    28    1
@<TRIPOS>MOLECULE
*****
 32 36 0 0 0
SMALL
GASTEIGER

@<TRIPOS>ATOM
      1 N           4.4409   -2.4646   21.0646 N.am    1  UNL1       -0.2723
      2 C           5.5276   -2.3854   20.0338 C.2     1  UNL1        0.2685
      3 O           6.6308   -3.4018   20.0273 O.2     1  UNL1       -0.2682
      4 C          -1.1603    2.6964   21.0977 C.3     1  UNL1        0.0896
      5 N          -0.0572    1.6800   21.0912 N.3     1  UNL1       -0.2715
      6 C           1.0427    1.5660   22.1047 C.3     1  UNL1        0.0722
      7 C           1.9194    0.4147   21.7100 C.3     1  UNL1        0.0190
      8 C           3.1410   -0.3673   22.0923 C.3     1  UNL1        0.0213
      9 C           3.3378   -1.4482   21.0712 C.3     1  UNL1        0.0761
     10 C           2.2380   -1.3343   20.0576 C.3     1  UNL1        0.0213
     11 C           1.3613   -0.1830   20.4524 C.3     1  UNL1        0.0190
     12 C           0.1397    0.5991   20.0700 C.3     1  UNL1        0.0722
     13 C           5.5113   -1.2898   19.0093 C.ar    1  UNL1        0.1535
     14 C           5.9991    0.1142   19.2121 C.ar    1  UNL1        0.1012
     15 N           5.7935    0.8658   17.9303 N.ar    1  UNL1       -0.3057
     16 C           6.1416    2.3043   17.6863 C.3     1  UNL1        0.1321
     17 C           5.1787   -0.0735   16.9356 C.ar    1  UNL1        0.1787
     18 N           5.0043   -1.4057   17.6025 N.ar    1  UNL1       -0.2192
     19 C           4.4574   -3.5602   22.0890 C.3     1  UNL1        0.1205
     20 C           5.2901   -3.4159   23.3282 C.ar    1  UNL1        0.0008
     21 C           4.9515   -2.3625   24.3410 C.ar    1  UNL1       -0.0001
     22 C           5.7843   -2.2182   25.5802 C.ar    1  UNL1        0.0325
     23 C           6.9557   -3.1274   25.8066 C.ar    1  UNL1        0.1738
     24 F           7.7885   -2.9831   27.0458 F       1  UNL1       -0.2010
     25 C           7.2944   -4.1807   24.7939 C.ar    1  UNL1        0.1653
     26 C           6.4616   -4.3250   23.5546 C.ar    1  UNL1        0.0366
     27 O           8.4658   -5.0898   25.0203 O.3     1  UNL1       -0.4769
     28 C           8.3456   -6.2460   25.9683 C.3     1  UNL1        0.1660
     29 C           8.5566   -6.1949   27.4526 C.3     1  UNL1        0.0435
     30 C           8.3347   -7.5737   28.0000 C.3     1  UNL1        0.0038
     31 C           7.9866   -8.4770   26.8542 C.3     1  UNL1        0.0038
     32 C           7.9933   -7.6564   25.5985 C.3     1  UNL1        0.0435
@<TRIPOS>BOND
     1     4     5    1
     2     5     6    1
     3     7     6    1
     4     7     8    1
     5     8     9    1
     6     9     1    1
     7     1    19    1
     8    19    20    1
     9    20    21   ar
    10    21    22   ar
    11    22    23   ar
    12    23    24    1
    13    23    25   ar
    14    25    27    1
    15    27    28    1
    16    28    29    1
    17    29    30    1
    18    30    31    1
    19    31    32    1
    20    25    26   ar
    21     1     2   am
    22     2     3    2
    23     2    13    1
    24    13    14   ar
    25    14    15   ar
    26    15    16    1
    27    15    17   ar
    28    17    18   ar
    29     9    10    1
    30    11    10    1
    31    11    12    1
    32    12     5    1
    33    11     7    1
    34    26    20   ar
    35    18    13   ar
    36    32    28    1
@<TRIPOS>MOLECULE
*****
 32 36 0 0 0
SMALL
GASTEIGER

@<TRIPOS>ATOM
      1 N           6.6199   -3.7722   21.5871 N.am    1  UNL1       -0.2723
      2 C           7.7544   -4.6181   22.0846 C.2     1  UNL1        0.2685
      3 O           8.3784   -5.6416   21.1829 O.2     1  UNL1       -0.2682
      4 C           3.4515    1.4248   26.1657 C.3     1  UNL1        0.0896
      5 N           4.0755    0.4013   25.2640 N.3     1  UNL1       -0.2715
      6 C           5.1758    0.6507   24.2755 C.3     1  UNL1        0.0722
      7 C           5.4891   -0.6478   23.5930 C.3     1  UNL1        0.0190
      8 C           6.3627   -1.2961   22.5603 C.3     1  UNL1        0.0213
      9 C           5.9960   -2.7487   22.4888 C.3     1  UNL1        0.0761
     10 C           4.8957   -2.9983   23.4772 C.3     1  UNL1        0.0213
     11 C           4.5824   -1.6998   24.1597 C.3     1  UNL1        0.0190
     12 C           3.7088   -1.0514   25.1924 C.3     1  UNL1        0.0722
     13 C           8.2649   -4.4404   23.4839 C.ar    1  UNL1        0.1535
     14 C           7.8410   -5.2336   24.6844 C.ar    1  UNL1        0.1012
     15 N           8.6032   -4.7217   25.8707 N.ar    1  UNL1       -0.3057
     16 C           8.4902   -5.2302   27.2774 C.3     1  UNL1        0.1321
     17 C           9.4979   -3.6123   25.4033 C.ar    1  UNL1        0.1787
     18 N           9.2888   -3.4385   23.9282 N.ar    1  UNL1       -0.2192
     19 C           6.1095   -3.9499   20.1879 C.3     1  UNL1        0.1205
     20 C           5.2796   -2.8754   19.5502 C.ar    1  UNL1        0.0008
     21 C           5.8492   -2.0510   18.4340 C.ar    1  UNL1       -0.0001
     22 C           5.0194   -0.9764   17.7962 C.ar    1  UNL1        0.0325
     23 C           3.6198   -0.7263   18.2748 C.ar    1  UNL1        0.1738
     24 F           2.7900    0.3482   17.6370 F       1  UNL1       -0.2010
     25 C           3.0503   -1.5508   19.3909 C.ar    1  UNL1        0.1653
     26 C           3.8802   -2.6253   20.0286 C.ar    1  UNL1        0.0366
     27 O           1.6508   -1.3006   19.8694 O.3     1  UNL1       -0.4769
     28 C           1.3727   -0.1715   20.8168 C.3     1  UNL1        0.1660
     29 C           2.1863    0.1864   22.0251 C.3     1  UNL1        0.0435
     30 C           1.5485    1.3772   22.6773 C.3     1  UNL1        0.0038
     31 C           0.3407    1.7552   21.8721 C.3     1  UNL1        0.0038
     32 C           0.2321    0.7981   20.7223 C.3     1  UNL1        0.0435
@<TRIPOS>BOND
     1     4     5    1
     2     5     6    1
     3     7     6    1
     4     7     8    1
     5     8     9    1
     6     9     1    1
     7     1    19    1
     8    19    20    1
     9    20    21   ar
    10    21    22   ar
    11    22    23   ar
    12    23    24    1
    13    23    25   ar
    14    25    27    1
    15    27    28    1
    16    28    29    1
    17    29    30    1
    18    30    31    1
    19    31    32    1
    20    25    26   ar
    21     1     2   am
    22     2     3    2
    23     2    13    1
    24    13    14   ar
    25    14    15   ar
    26    15    16    1
    27    15    17   ar
    28    17    18   ar
    29     9    10    1
    30    11    10    1
    31    11    12    1
    32    12     5    1
    33    11     7    1
    34    26    20   ar
    35    18    13   ar
    36    32    28    1
@<TRIPOS>MOLECULE
*****
 32 36 0 0 0
SMALL
GASTEIGER

@<TRIPOS>ATOM
      1 N           6.9129   -3.9247   22.3390 N.am    1  UNL1       -0.2723
      2 C           7.6629   -4.8213   23.2790 C.2     1  UNL1        0.2685
      3 O           8.4680   -5.9668   22.7407 O.2     1  UNL1       -0.2682
      4 C           2.8249    1.8917   25.0719 C.3     1  UNL1        0.0896
      5 N           3.6300    0.7462   24.5336 N.3     1  UNL1       -0.2715
      6 C           3.1081   -0.6215   24.2066 C.3     1  UNL1        0.0722
      7 C           4.2539   -1.4457   23.6988 C.3     1  UNL1        0.0190
      8 C           4.6395   -2.8004   23.1829 C.3     1  UNL1        0.0213
      9 C           6.1078   -2.7792   22.8772 C.3     1  UNL1        0.0761
     10 C           6.6297   -1.4116   23.2042 C.3     1  UNL1        0.0213
     11 C           5.4840   -0.5873   23.7120 C.3     1  UNL1        0.0190
     12 C           5.0983    0.7673   24.2280 C.3     1  UNL1        0.0722
     13 C           7.6078   -4.5725   24.7572 C.ar    1  UNL1        0.1535
     14 C           6.7377   -5.2967   25.7413 C.ar    1  UNL1        0.1012
     15 N           7.0053   -4.7275   27.1032 N.ar    1  UNL1       -0.3057
     16 C           6.3521   -5.1587   28.3828 C.3     1  UNL1        0.1321
     17 C           8.0407   -3.6516   26.9606 C.ar    1  UNL1        0.1787
     18 N           8.4130   -3.5558   25.5107 N.ar    1  UNL1       -0.2192
     19 C           6.9680   -4.1735   20.8609 C.3     1  UNL1        0.1205
     20 C           6.7621   -3.0393   19.9011 C.ar    1  UNL1        0.0008
     21 C           7.9230   -2.1808   19.4944 C.ar    1  UNL1       -0.0001
     22 C           7.7171   -1.0466   18.5347 C.ar    1  UNL1        0.0325
     23 C           6.3502   -0.7708   17.9817 C.ar    1  UNL1        0.1738
     24 F           6.1443    0.3635   17.0220 F       1  UNL1       -0.2010
     25 C           5.1894   -1.6292   18.3885 C.ar    1  UNL1        0.1653
     26 C           5.3953   -2.7635   19.3482 C.ar    1  UNL1        0.0366
     27 O           3.8226   -1.3534   17.8355 O.3     1  UNL1       -0.4769
     28 C           2.7679   -0.7449   18.7115 C.3     1  UNL1        0.1660
     29 C           1.9180    0.4437   18.3724 C.3     1  UNL1        0.0435
     30 C           1.0027    0.7049   19.5317 C.3     1  UNL1        0.0038
     31 C           1.2869   -0.3222   20.5873 C.3     1  UNL1        0.0038
     32 C           2.3779   -1.2182   20.0804 C.3     1  UNL1        0.0435
@<TRIPOS>BOND
     1     4     5    1
     2     5     6    1
     3     7     6    1
     4     7     8    1
     5     8     9    1
     6     9     1    1
     7     1    19    1
     8    19    20    1
     9    20    21   ar
    10    21    22   ar
    11    22    23   ar
    12    23    24    1
    13    23    25   ar
    14    25    27    1
    15    27    28    1
    16    28    29    1
    17    29    30    1
    18    30    31    1
    19    31    32    1
    20    25    26   ar
    21     1     2   am
    22     2     3    2
    23     2    13    1
    24    13    14   ar
    25    14    15   ar
    26    15    16    1
    27    15    17   ar
    28    17    18   ar
    29     9    10    1
    30    11    10    1
    31    11    12    1
    32    12     5    1
    33    11     7    1
    34    26    20   ar
    35    18    13   ar
    36    32    28    1
@<TRIPOS>MOLECULE
*****
 32 36 0 0 0
SMALL
GASTEIGER

@<TRIPOS>ATOM
      1 N           6.8757   -3.9688   22.3939 N.am    1  UNL1       -0.2723
      2 C           7.5809   -4.8320   23.3977 C.2     1  UNL1        0.2685
      3 O           8.3691   -6.0234   22.9402 O.2     1  UNL1       -0.2682
      4 C           2.8732    2.0806   24.7169 C.3     1  UNL1        0.0896
      5 N           3.6615    0.8892   24.2594 N.3     1  UNL1       -0.2715
      6 C           3.1846   -0.5329   24.2504 C.3     1  UNL1        0.0722
      7 C           4.2934   -1.3903   23.7160 C.3     1  UNL1        0.0190
      8 C           4.6840   -2.7991   23.3802 C.3     1  UNL1        0.0213
      9 C           6.0875   -2.7774   22.8514 C.3     1  UNL1        0.0761
     10 C           6.5644   -1.3554   22.8604 C.3     1  UNL1        0.0213
     11 C           5.4556   -0.4980   23.3948 C.3     1  UNL1        0.0190
     12 C           5.0650    0.9108   23.7306 C.3     1  UNL1        0.0722
     13 C           7.4978   -4.5039   24.8591 C.ar    1  UNL1        0.1535
     14 C           6.7738   -5.3025   25.9022 C.ar    1  UNL1        0.1012
     15 N           6.9527   -4.6116   27.2217 N.ar    1  UNL1       -0.3057
     16 C           6.3950   -5.0665   28.5378 C.3     1  UNL1        0.1321
     17 C           7.7871   -3.3862   26.9939 C.ar    1  UNL1        0.1787
     18 N           8.1239   -3.3196   25.5337 N.ar    1  UNL1       -0.2192
     19 C           6.9589   -4.2970   20.9327 C.3     1  UNL1        0.1205
     20 C           6.1340   -3.5285   19.9433 C.ar    1  UNL1        0.0008
     21 C           4.6421   -3.6841   19.9292 C.ar    1  UNL1       -0.0001
     22 C           3.8172   -2.9155   18.9398 C.ar    1  UNL1        0.0325
     23 C           4.4842   -1.9914   17.9645 C.ar    1  UNL1        0.1738
     24 F           3.6592   -1.2229   16.9751 F       1  UNL1       -0.2010
     25 C           5.9760   -1.8359   17.9786 C.ar    1  UNL1        0.1653
     26 C           6.8009   -2.6044   18.9680 C.ar    1  UNL1        0.0366
     27 O           6.6429   -0.9118   17.0033 O.3     1  UNL1       -0.4769
     28 C           6.3944    0.5655   17.0796 C.3     1  UNL1        0.1660
     29 C           5.6677    1.2817   18.1792 C.3     1  UNL1        0.0435
     30 C           5.6531    2.7449   17.8488 C.3     1  UNL1        0.0038
     31 C           6.3708    2.9329   16.5451 C.3     1  UNL1        0.0038
     32 C           6.8289    1.5860   16.0697 C.3     1  UNL1        0.0435
@<TRIPOS>BOND
     1     4     5    1
     2     5     6    1
     3     7     6    1
     4     7     8    1
     5     8     9    1
     6     9     1    1
     7     1    19    1
     8    19    20    1
     9    20    21   ar
    10    21    22   ar
    11    22    23   ar
    12    23    24    1
    13    23    25   ar
    14    25    27    1
    15    27    28    1
    16    28    29    1
    17    29    30    1
    18    30    31    1
    19    31    32    1
    20    25    26   ar
    21     1     2   am
    22     2     3    2
    23     2    13    1
    24    13    14   ar
    25    14    15   ar
    26    15    16    1
    27    15    17   ar
    28    17    18   ar
    29     9    10    1
    30    11    10    1
    31    11    12    1
    32    12     5    1
    33    11     7    1
    34    26    20   ar
    35    18    13   ar
    36    32    28    1
@<TRIPOS>MOLECULE
*****
 32 36 0 0 0
SMALL
GASTEIGER

@<TRIPOS>ATOM
      1 N           2.5246    1.5864   20.5644 N.am    1  UNL1       -0.2723
      2 C           1.6682    2.5392   21.3445 C.2     1  UNL1        0.2685
      3 O           0.8995    3.6124   20.6321 O.2     1  UNL1       -0.2682
      4 C           6.4275   -3.8626   24.1818 C.3     1  UNL1        0.0896
      5 N           5.6589   -2.7895   23.4694 N.3     1  UNL1       -0.2715
      6 C           4.2912   -2.9342   22.8707 C.3     1  UNL1        0.0722
      7 C           3.9100   -1.6173   22.2619 C.3     1  UNL1        0.0190
      8 C           2.8291   -0.8929   21.5156 C.3     1  UNL1        0.0213
      9 C           3.2933    0.5133   21.2768 C.3     1  UNL1        0.0761
     10 C           4.6609    0.6580   21.8755 C.3     1  UNL1        0.0213
     11 C           5.0421   -0.6588   22.4843 C.3     1  UNL1        0.0190
     12 C           6.1230   -1.3832   23.2306 C.3     1  UNL1        0.0722
     13 C           1.5803    2.4189   22.8371 C.ar    1  UNL1        0.1535
     14 C           0.4966    1.7195   23.6030 C.ar    1  UNL1        0.1012
     15 N           0.8073    1.8452   25.0651 N.ar    1  UNL1       -0.3057
     16 C          -0.0136    1.2912   26.1917 C.3     1  UNL1        0.1321
     17 C           2.0830    2.6222   25.2028 C.ar    1  UNL1        0.1787
     18 N           2.5607    2.9767   23.8258 N.ar    1  UNL1       -0.2192
     19 C           2.6124    1.7068   19.0718 C.3     1  UNL1        0.1205
     20 C           3.9397    1.5749   18.3856 C.ar    1  UNL1        0.0008
     21 C           4.6694    2.8008   17.9219 C.ar    1  UNL1       -0.0001
     22 C           5.9967    2.6689   17.2357 C.ar    1  UNL1        0.0325
     23 C           6.5942    1.3111   17.0130 C.ar    1  UNL1        0.1738
     24 F           7.9215    1.1792   16.3267 F       1  UNL1       -0.2010
     25 C           5.8645    0.0853   17.4766 C.ar    1  UNL1        0.1653
     26 C           4.5372    0.2172   18.1629 C.ar    1  UNL1        0.0366
     27 O           6.4620   -1.2723   17.2539 O.3     1  UNL1       -0.4769
     28 C           6.3118   -2.3384   18.2984 C.3     1  UNL1        0.1660
     29 C           5.1980   -3.3397   18.3824 C.3     1  UNL1        0.0435
     30 C           5.4469   -4.2104   19.5782 C.3     1  UNL1        0.0038
     31 C           6.7144   -3.7474   20.2331 C.3     1  UNL1        0.0038
     32 C           7.2490   -2.5904   19.4421 C.3     1  UNL1        0.0435
@<TRIPOS>BOND
     1     4     5    1
     2     5     6    1
     3     7     6    1
     4     7     8    1
     5     8     9    1
     6     9     1    1
     7     1    19    1
     8    19    20    1
     9    20    21   ar
    10    21    22   ar
    11    22    23   ar
    12    23    24    1
    13    23    25   ar
    14    25    27    1
    15    27    28    1
    16    28    29    1
    17    29    30    1
    18    30    31    1
    19    31    32    1
    20    25    26   ar
    21     1     2   am
    22     2     3    2
    23     2    13    1
    24    13    14   ar
    25    14    15   ar
    26    15    16    1
    27    15    17   ar
    28    17    18   ar
    29     9    10    1
    30    11    10    1
    31    11    12    1
    32    12     5    1
    33    11     7    1
    34    26    20   ar
    35    18    13   ar
    36    32    28    1
@<TRIPOS>MOLECULE
*****
 32 36 0 0 0
SMALL
GASTEIGER

@<TRIPOS>ATOM
      1 N           3.4456    0.5250   29.9215 N.am    1  UNL1       -0.2723
      2 C           2.0783    0.8231   30.4613 C.2     1  UNL1        0.2685
      3 O           1.8844    1.0435   31.9323 O.2     1  UNL1       -0.2682
      4 C           4.4304   -0.5940   22.4523 C.3     1  UNL1        0.0896
      5 N           4.2364   -0.3736   23.9233 N.3     1  UNL1       -0.2715
      6 C           3.8714   -1.4226   24.9314 C.3     1  UNL1        0.0722
      7 C           3.7829   -0.7629   26.2756 C.3     1  UNL1        0.0190
      8 C           3.5025   -1.0034   27.7294 C.3     1  UNL1        0.0213
      9 C           3.6396    0.3046   28.4505 C.3     1  UNL1        0.0761
     10 C           4.0046    1.3537   27.4425 C.3     1  UNL1        0.0213
     11 C           4.0932    0.6939   26.0983 C.3     1  UNL1        0.0190
     12 C           4.3735    0.9345   24.6444 C.3     1  UNL1        0.0722
     13 C           0.9048    0.9009   29.5302 C.ar    1  UNL1        0.1535
     14 C           0.5066    2.0929   28.7113 C.ar    1  UNL1        0.1012
     15 N          -0.7208    1.7289   27.9295 N.ar    1  UNL1       -0.3057
     16 C          -1.4584    2.6246   26.9789 C.3     1  UNL1        0.1321
     17 C          -1.0810    0.3120   28.2652 C.ar    1  UNL1        0.1787
     18 N          -0.0763   -0.1997   29.2545 N.ar    1  UNL1       -0.2192
     19 C           4.6190    0.4473   30.8526 C.3     1  UNL1        0.1205
     20 C           5.2049   -0.8862   31.2112 C.ar    1  UNL1        0.0008
     21 C           4.7083   -1.6231   32.4196 C.ar    1  UNL1       -0.0001
     22 C           5.2942   -2.9566   32.7781 C.ar    1  UNL1        0.0325
     23 C           6.3768   -3.5531   31.9282 C.ar    1  UNL1        0.1738
     24 F           6.9627   -4.8866   32.2868 F       1  UNL1       -0.2010
     25 C           6.8734   -2.8162   30.7199 C.ar    1  UNL1        0.1653
     26 C           6.2875   -1.4827   30.3613 C.ar    1  UNL1        0.0366
     27 O           7.9559   -3.4127   29.8700 O.3     1  UNL1       -0.4769
     28 C           7.6323   -4.5198   28.9112 C.3     1  UNL1        0.1660
     29 C           6.4490   -4.5712   27.9906 C.3     1  UNL1        0.0435
     30 C           6.5206   -5.8532   27.2150 C.3     1  UNL1        0.0038
     31 C           7.7480   -6.5940   27.6561 C.3     1  UNL1        0.0038
     32 C           8.4351   -5.7700   28.7044 C.3     1  UNL1        0.0435
@<TRIPOS>BOND
     1     4     5    1
     2     5     6    1
     3     7     6    1
     4     7     8    1
     5     8     9    1
     6     9     1    1
     7     1    19    1
     8    19    20    1
     9    20    21   ar
    10    21    22   ar
    11    22    23   ar
    12    23    24    1
    13    23    25   ar
    14    25    27    1
    15    27    28    1
    16    28    29    1
    17    29    30    1
    18    30    31    1
    19    31    32    1
    20    25    26   ar
    21     1     2   am
    22     2     3    2
    23     2    13    1
    24    13    14   ar
    25    14    15   ar
    26    15    16    1
    27    15    17   ar
    28    17    18   ar
    29     9    10    1
    30    11    10    1
    31    11    12    1
    32    12     5    1
    33    11     7    1
    34    26    20   ar
    35    18    13   ar
    36    32    28    1
