@<TRIPOS>MOLECULE
*****
 36 40 0 0 0
SMALL
GASTEIGER

@<TRIPOS>ATOM
      1 N         -10.6059  -16.7424   21.1164 N.3     1  UNL1       -0.2679
      2 C         -11.3131  -17.4136   22.2563 C.3     1  UNL1        0.0978
      3 C         -12.6756  -16.9453   22.6737 C.3     1  UNL1        0.0224
      4 C         -13.3828  -17.6165   23.8136 C.3     1  UNL1        0.0065
      5 C         -12.7274  -18.7559   24.5362 C.3     1  UNL1        0.0277
      6 C         -11.3649  -19.2241   24.1189 C.ar    1  UNL1       -0.0073
      7 C         -10.7094  -20.3636   24.8415 C.ar    1  UNL1       -0.0015
      8 C          -9.3469  -20.8318   24.4242 C.ar    1  UNL1        0.0203
      9 C          -8.6397  -20.1606   23.2842 C.ar    1  UNL1        0.0985
     10 N          -9.2951  -19.0212   22.5616 N.ar    1  UNL1       -0.2471
     11 C         -10.6577  -18.5530   22.9789 C.ar    1  UNL1        0.0695
     12 C         -10.7171  -17.3038   19.7300 C.3     1  UNL1        0.0725
     13 C         -11.1148  -18.7364   19.5305 C.3     1  UNL1        0.0188
     14 C         -10.0615  -19.7982   19.4161 C.3     1  UNL1        0.0185
     15 C          -8.6827  -19.4393   18.9471 C.3     1  UNL1        0.0689
     16 N          -7.6068  -19.1321   19.9463 N.3     1  UNL1       -0.2937
     17 H          -7.1082  -18.3127   19.5994 H       1  UNL1        0.1236
     18 C          -6.5690  -20.1648   20.2722 C.3     1  UNL1        0.0956
     19 C          -2.6885  -18.9289   22.1865 C.ar    1  UNL1       -0.0000
     20 C          -3.9923  -18.4761   22.7740 C.ar    1  UNL1       -0.0003
     21 C          -5.2858  -18.8881   22.1359 C.ar    1  UNL1       -0.0029
     22 C          -5.2755  -19.7528   20.9104 C.ar    1  UNL1       -0.0064
     23 C          -3.9717  -20.2056   20.3229 C.ar    1  UNL1       -0.0029
     24 C          -2.6782  -19.7936   20.9610 C.ar    1  UNL1       -0.0003
     25 C          -9.7875  -15.5097   21.3630 C.3     1  UNL1        0.0886
     26 C          -8.8051  -15.4759   22.4961 C.3     1  UNL1        0.0748
     27 C          -9.2632  -15.7657   23.8947 C.3     1  UNL1        0.0432
     28 C          -8.2808  -15.7319   25.0278 C.ar    1  UNL1       -0.0234
     29 C          -8.7388  -16.0216   26.4265 C.ar    1  UNL1       -0.0045
     30 C          -7.7565  -15.9878   27.5595 C.ar    1  UNL1       -0.0003
     31 C          -6.3161  -15.6642   27.2939 C.ar    1  UNL1       -0.0003
     32 C          -5.8581  -15.3744   25.8953 C.ar    1  UNL1       -0.0032
     33 C          -6.8404  -15.4082   24.7622 C.ar    1  UNL1       -0.0103
     34 C          -6.3824  -15.1185   23.3635 C.3     1  UNL1        0.0953
     35 N          -7.3647  -15.1523   22.2305 N.3     1  UNL1       -0.2934
     36 H          -7.0244  -15.8476   21.5664 H       1  UNL1        0.1236
@<TRIPOS>BOND
     1    19    20   ar
     2    20    21   ar
     3    21    22   ar
     4    22    18    1
     5    18    16    1
     6    16    15    1
     7    15    14    1
     8    14    13    1
     9    13    12    1
    10    12     1    1
    11     1    25    1
    12    26    25    1
    13    26    27    1
    14    27    28    1
    15    28    29   ar
    16    29    30   ar
    17    30    31   ar
    18    31    32   ar
    19    32    33   ar
    20    33    34    1
    21    34    35    1
    22     2     1    1
    23     2     3    1
    24     3     4    1
    25     4     5    1
    26     5     6    1
    27     6     7   ar
    28     7     8   ar
    29     8     9   ar
    30     9    10   ar
    31    10    11   ar
    32    22    23   ar
    33    23    24   ar
    34    24    19   ar
    35    35    26    1
    36    11     2    1
    37    33    28   ar
    38    11     6   ar
    39    16    17    1
    40    35    36    1
@<TRIPOS>MOLECULE
*****
 36 40 0 0 0
SMALL
GASTEIGER

@<TRIPOS>ATOM
      1 N          -8.9904  -18.2301   21.2351 N.3     1  UNL1       -0.2679
      2 C          -9.5827  -18.9198   22.4282 C.3     1  UNL1        0.0978
      3 C          -8.8202  -20.0115   23.1186 C.3     1  UNL1        0.0224
      4 C          -9.4126  -20.7012   24.3117 C.3     1  UNL1        0.0065
      5 C         -10.7675  -20.2992   24.8143 C.3     1  UNL1        0.0277
      6 C         -11.5300  -19.2076   24.1239 C.ar    1  UNL1       -0.0073
      7 C         -12.8850  -18.8056   24.6265 C.ar    1  UNL1       -0.0015
      8 C         -13.6475  -17.7139   23.9360 C.ar    1  UNL1        0.0203
      9 C         -13.0551  -17.0242   22.7429 C.ar    1  UNL1        0.0985
     10 N         -11.7002  -17.4262   22.2403 N.ar    1  UNL1       -0.2471
     11 C         -10.9376  -18.5179   22.9308 C.ar    1  UNL1        0.0695
     12 C          -9.0087  -18.9025   19.8944 C.3     1  UNL1        0.0725
     13 C          -7.8028  -19.6561   19.4167 C.3     1  UNL1        0.0188
     14 C          -6.4368  -19.2709   19.9021 C.3     1  UNL1        0.0185
     15 C          -5.8108  -20.0121   21.0460 C.3     1  UNL1        0.0689
     16 N          -5.3874  -19.2698   22.2788 N.3     1  UNL1       -0.2937
     17 H          -5.6593  -18.2960   22.1441 H       1  UNL1        0.1236
     18 C          -3.9456  -19.2635   22.6925 C.3     1  UNL1        0.0956
     19 C          -0.9086  -17.0333   20.2322 C.ar    1  UNL1       -0.0000
     20 C          -1.2262  -18.4645   19.9147 C.ar    1  UNL1       -0.0003
     21 C          -2.2385  -19.2079   20.7348 C.ar    1  UNL1       -0.0029
     22 C          -2.9332  -18.5201   21.8724 C.ar    1  UNL1       -0.0064
     23 C          -2.6157  -17.0889   22.1899 C.ar    1  UNL1       -0.0029
     24 C          -1.6034  -16.3455   21.3698 C.ar    1  UNL1       -0.0003
     25 C          -8.3797  -16.8681   21.3828 C.3     1  UNL1        0.0886
     26 C          -7.7542  -16.4637   22.6848 C.3     1  UNL1        0.0748
     27 C          -8.6218  -16.1320   23.8626 C.3     1  UNL1        0.0432
     28 C          -7.9963  -15.7276   25.1647 C.ar    1  UNL1       -0.0234
     29 C          -8.8638  -15.3959   26.3425 C.ar    1  UNL1       -0.0045
     30 C          -8.2383  -14.9915   27.6445 C.ar    1  UNL1       -0.0003
     31 C          -6.7452  -14.9189   27.7686 C.ar    1  UNL1       -0.0003
     32 C          -5.8777  -15.2506   26.5908 C.ar    1  UNL1       -0.0032
     33 C          -6.5032  -15.6549   25.2889 C.ar    1  UNL1       -0.0103
     34 C          -5.6356  -15.9867   24.1110 C.3     1  UNL1        0.0953
     35 N          -6.2611  -16.3910   22.8090 N.3     1  UNL1       -0.2934
     36 H          -5.9015  -17.3189   22.5852 H       1  UNL1        0.1236
@<TRIPOS>BOND
     1    19    20   ar
     2    20    21   ar
     3    21    22   ar
     4    22    18    1
     5    18    16    1
     6    16    15    1
     7    15    14    1
     8    14    13    1
     9    13    12    1
    10    12     1    1
    11     1    25    1
    12    26    25    1
    13    26    27    1
    14    27    28    1
    15    28    29   ar
    16    29    30   ar
    17    30    31   ar
    18    31    32   ar
    19    32    33   ar
    20    33    34    1
    21    34    35    1
    22     2     1    1
    23     2     3    1
    24     3     4    1
    25     4     5    1
    26     5     6    1
    27     6     7   ar
    28     7     8   ar
    29     8     9   ar
    30     9    10   ar
    31    10    11   ar
    32    22    23   ar
    33    23    24   ar
    34    24    19   ar
    35    35    26    1
    36    11     2    1
    37    33    28   ar
    38    11     6   ar
    39    16    17    1
    40    35    36    1
@<TRIPOS>MOLECULE
*****
 36 40 0 0 0
SMALL
GASTEIGER

@<TRIPOS>ATOM
      1 N          -7.4296  -19.5680   21.6432 N.3     1  UNL1       -0.2679
      2 C          -8.3621  -19.1542   22.7429 C.3     1  UNL1        0.0978
      3 C          -9.3919  -20.1170   23.2550 C.3     1  UNL1        0.0224
      4 C         -10.3243  -19.7033   24.3547 C.3     1  UNL1        0.0065
      5 C         -10.2269  -18.3266   24.9424 C.3     1  UNL1        0.0277
      6 C          -9.1971  -17.3638   24.4303 C.ar    1  UNL1       -0.0073
      7 C          -9.0997  -15.9871   25.0179 C.ar    1  UNL1       -0.0015
      8 C          -8.0698  -15.0242   24.5058 C.ar    1  UNL1        0.0203
      9 C          -7.1374  -15.4380   23.4061 C.ar    1  UNL1        0.0985
     10 N          -7.2348  -16.8146   22.8185 N.ar    1  UNL1       -0.2471
     11 C          -8.2647  -17.7775   23.3306 C.ar    1  UNL1        0.0695
     12 C          -7.8449  -19.4140   20.2102 C.3     1  UNL1        0.0725
     13 C          -7.6720  -20.5554   19.2523 C.3     1  UNL1        0.0188
     14 C          -8.7990  -20.9501   18.3447 C.3     1  UNL1        0.0185
     15 C         -10.0215  -20.0864   18.2476 C.3     1  UNL1        0.0689
     16 N         -10.6789  -19.5742   19.4949 N.3     1  UNL1       -0.2937
     17 H         -11.5997  -20.0104   19.5428 H       1  UNL1        0.1236
     18 C         -10.8876  -18.1006   19.6818 C.3     1  UNL1        0.0956
     19 C         -12.9421  -16.5704   23.3814 C.ar    1  UNL1       -0.0000
     20 C         -13.2329  -17.9538   22.8799 C.ar    1  UNL1       -0.0003
     21 C         -12.5480  -18.4639   21.6467 C.ar    1  UNL1       -0.0029
     22 C         -11.5725  -17.5905   20.9150 C.ar    1  UNL1       -0.0064
     23 C         -11.2818  -16.2071   21.4165 C.ar    1  UNL1       -0.0029
     24 C         -11.9666  -15.6970   22.6497 C.ar    1  UNL1       -0.0003
     25 C          -6.0819  -20.1357   21.9766 C.3     1  UNL1        0.0886
     26 C          -4.8525  -19.2904   21.8209 C.3     1  UNL1        0.0748
     27 C          -4.0477  -19.3629   20.5572 C.3     1  UNL1        0.0432
     28 C          -2.8183  -18.5175   20.4015 C.ar    1  UNL1       -0.0234
     29 C          -2.0134  -18.5900   19.1378 C.ar    1  UNL1       -0.0045
     30 C          -0.7841  -17.7447   18.9821 C.ar    1  UNL1       -0.0003
     31 C          -0.3597  -16.8270   20.0901 C.ar    1  UNL1       -0.0003
     32 C          -1.1645  -16.7546   21.3538 C.ar    1  UNL1       -0.0032
     33 C          -2.3938  -17.5999   21.5095 C.ar    1  UNL1       -0.0103
     34 C          -3.1988  -17.5275   22.7732 C.3     1  UNL1        0.0953
     35 N          -4.4281  -18.3727   22.9289 N.3     1  UNL1       -0.2934
     36 H          -5.2054  -17.7339   23.0962 H       1  UNL1        0.1236
@<TRIPOS>BOND
     1    19    20   ar
     2    20    21   ar
     3    21    22   ar
     4    22    18    1
     5    18    16    1
     6    16    15    1
     7    15    14    1
     8    14    13    1
     9    13    12    1
    10    12     1    1
    11     1    25    1
    12    26    25    1
    13    26    27    1
    14    27    28    1
    15    28    29   ar
    16    29    30   ar
    17    30    31   ar
    18    31    32   ar
    19    32    33   ar
    20    33    34    1
    21    34    35    1
    22     2     1    1
    23     2     3    1
    24     3     4    1
    25     4     5    1
    26     5     6    1
    27     6     7   ar
    28     7     8   ar
    29     8     9   ar
    30     9    10   ar
    31    10    11   ar
    32    22    23   ar
    33    23    24   ar
    34    24    19   ar
    35    35    26    1
    36    11     2    1
    37    33    28   ar
    38    11     6   ar
    39    16    17    1
    40    35    36    1
@<TRIPOS>MOLECULE
*****
 36 40 0 0 0
SMALL
GASTEIGER

@<TRIPOS>ATOM
      1 N          -8.9673  -18.4167   23.2901 N.3     1  UNL1       -0.2679
      2 C         -10.4497  -18.2047   23.2035 C.3     1  UNL1        0.0978
      3 C         -11.3500  -18.7585   24.2678 C.3     1  UNL1        0.0224
      4 C         -12.8324  -18.5465   24.1812 C.3     1  UNL1        0.0065
      5 C         -13.4145  -17.7806   23.0303 C.3     1  UNL1        0.0277
      6 C         -12.5142  -17.2267   21.9661 C.ar    1  UNL1       -0.0073
      7 C         -13.0963  -16.4608   20.8151 C.ar    1  UNL1       -0.0015
      8 C         -12.1960  -15.9069   19.7509 C.ar    1  UNL1        0.0203
      9 C         -10.7136  -16.1190   19.8375 C.ar    1  UNL1        0.0985
     10 N         -10.1315  -16.8849   20.9883 N.ar    1  UNL1       -0.2471
     11 C         -11.0318  -17.4388   22.0527 C.ar    1  UNL1        0.0695
     12 C          -8.1099  -17.4286   24.0240 C.3     1  UNL1        0.0725
     13 C          -8.7177  -16.5356   25.0648 C.3     1  UNL1        0.0188
     14 C          -8.8308  -17.0072   26.4842 C.3     1  UNL1        0.0185
     15 C          -8.4183  -16.1050   27.6093 C.3     1  UNL1        0.0689
     16 N          -7.6218  -14.8664   27.3239 N.3     1  UNL1       -0.2937
     17 H          -7.9566  -14.4997   26.4330 H       1  UNL1        0.1236
     18 C          -6.1269  -14.9417   27.2268 C.3     1  UNL1        0.0956
     19 C          -4.1937  -16.5867   23.5110 C.ar    1  UNL1       -0.0000
     20 C          -4.9986  -15.3229   23.4411 C.ar    1  UNL1       -0.0003
     21 C          -5.6429  -14.7745   24.6796 C.ar    1  UNL1       -0.0029
     22 C          -5.4825  -15.4901   25.9881 C.ar    1  UNL1       -0.0064
     23 C          -4.6776  -16.7539   26.0581 C.ar    1  UNL1       -0.0029
     24 C          -4.0332  -17.3022   24.8195 C.ar    1  UNL1       -0.0003
     25 C          -8.3422  -19.6168   22.6429 C.3     1  UNL1        0.0886
     26 C          -7.1243  -19.4557   21.7822 C.3     1  UNL1        0.0748
     27 C          -5.7589  -19.6579   22.3694 C.3     1  UNL1        0.0432
     28 C          -4.5409  -19.4968   21.5087 C.ar    1  UNL1       -0.0234
     29 C          -3.1756  -19.6990   22.0959 C.ar    1  UNL1       -0.0045
     30 C          -1.9577  -19.5379   21.2353 C.ar    1  UNL1       -0.0003
     31 C          -2.1052  -19.1747   19.7874 C.ar    1  UNL1       -0.0003
     32 C          -3.4705  -18.9725   19.2002 C.ar    1  UNL1       -0.0032
     33 C          -4.6884  -19.1336   20.0609 C.ar    1  UNL1       -0.0103
     34 C          -6.0539  -18.9314   19.4737 C.3     1  UNL1        0.0953
     35 N          -7.2718  -19.0925   20.3344 N.3     1  UNL1       -0.2934
     36 H          -7.8418  -19.8211   19.9046 H       1  UNL1        0.1236
@<TRIPOS>BOND
     1    19    20   ar
     2    20    21   ar
     3    21    22   ar
     4    22    18    1
     5    18    16    1
     6    16    15    1
     7    15    14    1
     8    14    13    1
     9    13    12    1
    10    12     1    1
    11     1    25    1
    12    26    25    1
    13    26    27    1
    14    27    28    1
    15    28    29   ar
    16    29    30   ar
    17    30    31   ar
    18    31    32   ar
    19    32    33   ar
    20    33    34    1
    21    34    35    1
    22     2     1    1
    23     2     3    1
    24     3     4    1
    25     4     5    1
    26     5     6    1
    27     6     7   ar
    28     7     8   ar
    29     8     9   ar
    30     9    10   ar
    31    10    11   ar
    32    22    23   ar
    33    23    24   ar
    34    24    19   ar
    35    35    26    1
    36    11     2    1
    37    33    28   ar
    38    11     6   ar
    39    16    17    1
    40    35    36    1
@<TRIPOS>MOLECULE
*****
 36 40 0 0 0
SMALL
GASTEIGER

@<TRIPOS>ATOM
      1 N          -8.0030  -16.9761   22.9334 N.3     1  UNL1       -0.2679
      2 C          -9.3932  -17.4826   23.1800 C.3     1  UNL1        0.0978
      3 C          -9.6793  -18.3335   24.3817 C.3     1  UNL1        0.0224
      4 C         -11.0695  -18.8400   24.6282 C.3     1  UNL1        0.0065
      5 C         -12.1736  -18.4957   23.6731 C.3     1  UNL1        0.0277
      6 C         -11.8875  -17.6448   22.4714 C.ar    1  UNL1       -0.0073
      7 C         -12.9916  -17.3004   21.5162 C.ar    1  UNL1       -0.0015
      8 C         -12.7055  -16.4495   20.3145 C.ar    1  UNL1        0.0203
      9 C         -11.3153  -15.9430   20.0679 C.ar    1  UNL1        0.0985
     10 N         -10.2112  -16.2873   21.0231 N.ar    1  UNL1       -0.2471
     11 C         -10.4973  -17.1383   22.2248 C.ar    1  UNL1        0.0695
     12 C          -7.7323  -15.5008   22.9276 C.3     1  UNL1        0.0725
     13 C          -7.4153  -14.7913   24.2107 C.3     1  UNL1        0.0188
     14 C          -6.5216  -15.4403   25.2256 C.3     1  UNL1        0.0185
     15 C          -5.0391  -15.4829   25.0013 C.3     1  UNL1        0.0689
     16 N          -4.4932  -15.9371   23.6800 N.3     1  UNL1       -0.2937
     17 H          -5.2874  -16.0175   23.0452 H       1  UNL1        0.1236
     18 C          -3.7318  -17.2261   23.5863 C.3     1  UNL1        0.0956
     19 C          -1.1178  -18.0407   20.0151 C.ar    1  UNL1       -0.0000
     20 C          -1.2112  -16.6523   20.5750 C.ar    1  UNL1       -0.0003
     21 C          -2.0825  -16.3807   21.7654 C.ar    1  UNL1       -0.0029
     22 C          -2.8604  -17.4976   22.3958 C.ar    1  UNL1       -0.0064
     23 C          -2.7670  -18.8860   21.8359 C.ar    1  UNL1       -0.0029
     24 C          -1.8957  -19.1576   20.6455 C.ar    1  UNL1       -0.0003
     25 C          -6.8835  -17.9449   22.6927 C.3     1  UNL1        0.0886
     26 C          -7.0137  -18.9917   21.6262 C.3     1  UNL1        0.0748
     27 C          -8.1589  -18.9384   20.6589 C.3     1  UNL1        0.0432
     28 C          -8.2891  -19.9852   19.5923 C.ar    1  UNL1       -0.0234
     29 C          -9.4343  -19.9319   18.6251 C.ar    1  UNL1       -0.0045
     30 C          -9.5645  -20.9786   17.5586 C.ar    1  UNL1       -0.0003
     31 C          -8.5495  -22.0786   17.4594 C.ar    1  UNL1       -0.0003
     32 C          -7.4043  -22.1318   18.4267 C.ar    1  UNL1       -0.0032
     33 C          -7.2741  -21.0851   19.4932 C.ar    1  UNL1       -0.0103
     34 C          -6.1289  -21.1384   20.4605 C.3     1  UNL1        0.0953
     35 N          -5.9987  -20.0917   21.5270 N.3     1  UNL1       -0.2934
     36 H          -5.0921  -19.6444   21.3914 H       1  UNL1        0.1236
@<TRIPOS>BOND
     1    19    20   ar
     2    20    21   ar
     3    21    22   ar
     4    22    18    1
     5    18    16    1
     6    16    15    1
     7    15    14    1
     8    14    13    1
     9    13    12    1
    10    12     1    1
    11     1    25    1
    12    26    25    1
    13    26    27    1
    14    27    28    1
    15    28    29   ar
    16    29    30   ar
    17    30    31   ar
    18    31    32   ar
    19    32    33   ar
    20    33    34    1
    21    34    35    1
    22     2     1    1
    23     2     3    1
    24     3     4    1
    25     4     5    1
    26     5     6    1
    27     6     7   ar
    28     7     8   ar
    29     8     9   ar
    30     9    10   ar
    31    10    11   ar
    32    22    23   ar
    33    23    24   ar
    34    24    19   ar
    35    35    26    1
    36    11     2    1
    37    33    28   ar
    38    11     6   ar
    39    16    17    1
    40    35    36    1
@<TRIPOS>MOLECULE
*****
 36 40 0 0 0
SMALL
GASTEIGER

@<TRIPOS>ATOM
      1 N          -7.4526  -18.4322   21.8122 N.3     1  UNL1       -0.2679
      2 C          -8.8231  -18.8664   22.2403 C.3     1  UNL1        0.0978
      3 C          -8.9850  -20.0412   23.1586 C.3     1  UNL1        0.0224
      4 C         -10.3555  -20.4753   23.5867 C.3     1  UNL1        0.0065
      5 C         -11.5641  -19.7346   23.0964 C.3     1  UNL1        0.0277
      6 C         -11.4022  -18.5597   22.1780 C.ar    1  UNL1       -0.0073
      7 C         -12.6109  -17.8189   21.6877 C.ar    1  UNL1       -0.0015
      8 C         -12.4490  -16.6440   20.7693 C.ar    1  UNL1        0.0203
      9 C         -11.0785  -16.2099   20.3413 C.ar    1  UNL1        0.0985
     10 N          -9.8699  -16.9506   20.8316 N.ar    1  UNL1       -0.2471
     11 C         -10.0317  -18.1256   21.7500 C.ar    1  UNL1        0.0695
     12 C          -6.8954  -17.1253   22.2933 C.3     1  UNL1        0.0725
     13 C          -6.0516  -17.0804   23.5327 C.3     1  UNL1        0.0188
     14 C          -5.2762  -15.8409   23.8677 C.3     1  UNL1        0.0185
     15 C          -4.8275  -15.5951   25.2777 C.3     1  UNL1        0.0689
     16 N          -5.4451  -14.4877   26.0791 N.3     1  UNL1       -0.2937
     17 H          -4.7216  -14.1413   26.7091 H       1  UNL1        0.1236
     18 C          -6.6583  -14.7565   26.9192 C.3     1  UNL1        0.0956
     19 C          -9.9812  -17.3316   25.3138 C.ar    1  UNL1       -0.0000
     20 C          -9.2806  -17.7163   26.5832 C.ar    1  UNL1       -0.0003
     21 C          -8.1730  -16.8580   27.1183 C.ar    1  UNL1       -0.0029
     22 C          -7.7660  -15.6149   26.3841 C.ar    1  UNL1       -0.0064
     23 C          -8.4666  -15.2302   25.1148 C.ar    1  UNL1       -0.0029
     24 C          -9.5742  -16.0885   24.5797 C.ar    1  UNL1       -0.0003
     25 C          -6.6392  -19.3050   20.9031 C.3     1  UNL1        0.0886
     26 C          -5.1457  -19.1689   20.8711 C.3     1  UNL1        0.0748
     27 C          -4.4756  -18.5343   19.6887 C.3     1  UNL1        0.0432
     28 C          -2.9821  -18.3981   19.6566 C.ar    1  UNL1       -0.0234
     29 C          -2.3120  -17.7635   18.4742 C.ar    1  UNL1       -0.0045
     30 C          -0.8186  -17.6273   18.4422 C.ar    1  UNL1       -0.0003
     31 C           0.0048  -18.1257   19.5927 C.ar    1  UNL1       -0.0003
     32 C          -0.6653  -18.7603   20.7752 C.ar    1  UNL1       -0.0032
     33 C          -2.1587  -18.8965   20.8071 C.ar    1  UNL1       -0.0103
     34 C          -2.8289  -19.5311   21.9896 C.3     1  UNL1        0.0953
     35 N          -4.3223  -19.6673   22.0216 N.3     1  UNL1       -0.2934
     36 H          -4.6455  -19.1708   22.8519 H       1  UNL1        0.1236
@<TRIPOS>BOND
     1    19    20   ar
     2    20    21   ar
     3    21    22   ar
     4    22    18    1
     5    18    16    1
     6    16    15    1
     7    15    14    1
     8    14    13    1
     9    13    12    1
    10    12     1    1
    11     1    25    1
    12    26    25    1
    13    26    27    1
    14    27    28    1
    15    28    29   ar
    16    29    30   ar
    17    30    31   ar
    18    31    32   ar
    19    32    33   ar
    20    33    34    1
    21    34    35    1
    22     2     1    1
    23     2     3    1
    24     3     4    1
    25     4     5    1
    26     5     6    1
    27     6     7   ar
    28     7     8   ar
    29     8     9   ar
    30     9    10   ar
    31    10    11   ar
    32    22    23   ar
    33    23    24   ar
    34    24    19   ar
    35    35    26    1
    36    11     2    1
    37    33    28   ar
    38    11     6   ar
    39    16    17    1
    40    35    36    1
@<TRIPOS>MOLECULE
*****
 36 40 0 0 0
SMALL
GASTEIGER

@<TRIPOS>ATOM
      1 N          -8.7230  -17.9976   22.0087 N.3     1  UNL1       -0.2679
      2 C         -10.1502  -17.6236   21.7382 C.3     1  UNL1        0.0978
      3 C         -10.5150  -16.9348   20.4567 C.3     1  UNL1        0.0224
      4 C         -11.9422  -16.5608   20.1861 C.3     1  UNL1        0.0065
      5 C         -13.0046  -16.8757   21.1971 C.3     1  UNL1        0.0277
      6 C         -12.6398  -17.5646   22.4786 C.ar    1  UNL1       -0.0073
      7 C         -13.7022  -17.8795   23.4897 C.ar    1  UNL1       -0.0015
      8 C         -13.3374  -18.5684   24.7712 C.ar    1  UNL1        0.0203
      9 C         -11.9101  -18.9424   25.0417 C.ar    1  UNL1        0.0985
     10 N         -10.8478  -18.6275   24.0307 N.ar    1  UNL1       -0.2471
     11 C         -11.2126  -17.9385   22.7491 C.ar    1  UNL1        0.0695
     12 C          -7.9324  -17.2447   23.0373 C.3     1  UNL1        0.0725
     13 C          -8.3476  -15.8596   23.4363 C.3     1  UNL1        0.0188
     14 C          -8.8185  -15.5915   24.8349 C.3     1  UNL1        0.0185
     15 C          -8.3929  -16.4933   25.9554 C.3     1  UNL1        0.0689
     16 N          -7.4793  -15.9774   27.0276 N.3     1  UNL1       -0.2937
     17 H          -8.0302  -15.3395   27.6020 H       1  UNL1        0.1236
     18 C          -6.2222  -15.2488   26.6552 C.3     1  UNL1        0.0956
     19 C          -3.6439  -16.7800   23.2999 C.ar    1  UNL1       -0.0000
     20 C          -3.7330  -17.5456   24.5867 C.ar    1  UNL1       -0.0003
     21 C          -4.5924  -17.0352   25.7051 C.ar    1  UNL1       -0.0029
     22 C          -5.3627  -15.7592   25.5367 C.ar    1  UNL1       -0.0064
     23 C          -5.2736  -14.9936   24.2499 C.ar    1  UNL1       -0.0029
     24 C          -4.4142  -15.5039   23.1315 C.ar    1  UNL1       -0.0003
     25 C          -8.0863  -19.1245   21.2506 C.3     1  UNL1        0.0886
     26 C          -6.5926  -19.2588   21.2206 C.3     1  UNL1        0.0748
     27 C          -5.8031  -18.6098   20.1227 C.3     1  UNL1        0.0432
     28 C          -4.3094  -18.7441   20.0927 C.ar    1  UNL1       -0.0234
     29 C          -3.5200  -18.0951   18.9947 C.ar    1  UNL1       -0.0045
     30 C          -2.0263  -18.2294   18.9647 C.ar    1  UNL1       -0.0003
     31 C          -1.3221  -19.0127   20.0327 C.ar    1  UNL1       -0.0003
     32 C          -2.1116  -19.6617   21.1307 C.ar    1  UNL1       -0.0032
     33 C          -3.6052  -19.5274   21.1606 C.ar    1  UNL1       -0.0103
     34 C          -4.3947  -20.1764   22.2586 C.3     1  UNL1        0.0953
     35 N          -5.8884  -20.0421   22.2886 N.3     1  UNL1       -0.2934
     36 H          -6.1270  -19.6061   23.1793 H       1  UNL1        0.1236
@<TRIPOS>BOND
     1    19    20   ar
     2    20    21   ar
     3    21    22   ar
     4    22    18    1
     5    18    16    1
     6    16    15    1
     7    15    14    1
     8    14    13    1
     9    13    12    1
    10    12     1    1
    11     1    25    1
    12    26    25    1
    13    26    27    1
    14    27    28    1
    15    28    29   ar
    16    29    30   ar
    17    30    31   ar
    18    31    32   ar
    19    32    33   ar
    20    33    34    1
    21    34    35    1
    22     2     1    1
    23     2     3    1
    24     3     4    1
    25     4     5    1
    26     5     6    1
    27     6     7   ar
    28     7     8   ar
    29     8     9   ar
    30     9    10   ar
    31    10    11   ar
    32    22    23   ar
    33    23    24   ar
    34    24    19   ar
    35    35    26    1
    36    11     2    1
    37    33    28   ar
    38    11     6   ar
    39    16    17    1
    40    35    36    1
@<TRIPOS>MOLECULE
*****
 36 40 0 0 0
SMALL
GASTEIGER

@<TRIPOS>ATOM
      1 N          -8.3898  -16.4848   22.6053 N.3     1  UNL1       -0.2679
      2 C          -9.8009  -16.5301   22.0985 C.3     1  UNL1        0.0978
      3 C         -10.1551  -15.8585   20.8049 C.3     1  UNL1        0.0224
      4 C         -11.5661  -15.9039   20.2980 C.3     1  UNL1        0.0065
      5 C         -12.6229  -16.6209   21.0848 C.3     1  UNL1        0.0277
      6 C         -12.2687  -17.2925   22.3784 C.ar    1  UNL1       -0.0073
      7 C         -13.3256  -18.0096   23.1652 C.ar    1  UNL1       -0.0015
      8 C         -12.9714  -18.6812   24.4588 C.ar    1  UNL1        0.0203
      9 C         -11.5603  -18.6358   24.9656 C.ar    1  UNL1        0.0985
     10 N         -10.5035  -17.9188   24.1789 N.ar    1  UNL1       -0.2471
     11 C         -10.8577  -17.2471   22.8852 C.ar    1  UNL1        0.0695
     12 C          -7.7158  -15.1638   22.8303 C.3     1  UNL1        0.0725
     13 C          -7.4946  -14.6628   24.2268 C.3     1  UNL1        0.0188
     14 C          -6.5940  -15.4165   25.1601 C.3     1  UNL1        0.0185
     15 C          -5.1182  -15.4710   24.8974 C.3     1  UNL1        0.0689
     16 N          -4.6097  -15.9583   23.5730 N.3     1  UNL1       -0.2937
     17 H          -5.4058  -15.9626   22.9353 H       1  UNL1        0.1236
     18 C          -3.9637  -17.3080   23.4682 C.3     1  UNL1        0.0956
     19 C          -1.0941  -18.1745   20.1119 C.ar    1  UNL1       -0.0000
     20 C          -1.9307  -19.2786   20.6872 C.ar    1  UNL1       -0.0003
     21 C          -2.8873  -18.9898   21.8059 C.ar    1  UNL1       -0.0029
     22 C          -3.0071  -17.5969   22.3494 C.ar    1  UNL1       -0.0064
     23 C          -2.1704  -16.4927   21.7741 C.ar    1  UNL1       -0.0029
     24 C          -1.2139  -16.7816   20.6554 C.ar    1  UNL1       -0.0003
     25 C          -7.6528  -17.7604   22.8872 C.3     1  UNL1        0.0886
     26 C          -7.5286  -18.8066   21.8194 C.3     1  UNL1        0.0748
     27 C          -8.5923  -18.9369   20.7698 C.3     1  UNL1        0.0432
     28 C          -8.4681  -19.9831   19.7020 C.ar    1  UNL1       -0.0234
     29 C          -9.5318  -20.1134   18.6525 C.ar    1  UNL1       -0.0045
     30 C          -9.4076  -21.1595   17.5847 C.ar    1  UNL1       -0.0003
     31 C          -8.2197  -22.0753   17.5665 C.ar    1  UNL1       -0.0003
     32 C          -7.1561  -21.9450   18.6161 C.ar    1  UNL1       -0.0032
     33 C          -7.2803  -20.8989   19.6838 C.ar    1  UNL1       -0.0103
     34 C          -6.2166  -20.7685   20.7334 C.3     1  UNL1        0.0953
     35 N          -6.3408  -19.7224   21.8012 N.3     1  UNL1       -0.2934
     36 H          -5.5134  -19.1301   21.7307 H       1  UNL1        0.1236
@<TRIPOS>BOND
     1    19    20   ar
     2    20    21   ar
     3    21    22   ar
     4    22    18    1
     5    18    16    1
     6    16    15    1
     7    15    14    1
     8    14    13    1
     9    13    12    1
    10    12     1    1
    11     1    25    1
    12    26    25    1
    13    26    27    1
    14    27    28    1
    15    28    29   ar
    16    29    30   ar
    17    30    31   ar
    18    31    32   ar
    19    32    33   ar
    20    33    34    1
    21    34    35    1
    22     2     1    1
    23     2     3    1
    24     3     4    1
    25     4     5    1
    26     5     6    1
    27     6     7   ar
    28     7     8   ar
    29     8     9   ar
    30     9    10   ar
    31    10    11   ar
    32    22    23   ar
    33    23    24   ar
    34    24    19   ar
    35    35    26    1
    36    11     2    1
    37    33    28   ar
    38    11     6   ar
    39    16    17    1
    40    35    36    1
@<TRIPOS>MOLECULE
*****
 36 40 0 0 0
SMALL
GASTEIGER

@<TRIPOS>ATOM
      1 N          -6.9258  -16.5353   23.7125 N.3     1  UNL1       -0.2679
      2 C          -8.0624  -17.5092   23.6132 C.3     1  UNL1        0.0978
      3 C          -8.9990  -17.6894   24.7709 C.3     1  UNL1        0.0224
      4 C         -10.1355  -18.6632   24.6716 C.3     1  UNL1        0.0065
      5 C         -10.3355  -19.4568   23.4146 C.3     1  UNL1        0.0277
      6 C          -9.3989  -19.2766   22.2569 C.ar    1  UNL1       -0.0073
      7 C          -9.5989  -20.0702   20.9998 C.ar    1  UNL1       -0.0015
      8 C          -8.6623  -19.8900   19.8421 C.ar    1  UNL1        0.0203
      9 C          -7.5257  -18.9162   19.9414 C.ar    1  UNL1        0.0985
     10 N          -7.3258  -18.1226   21.1984 N.ar    1  UNL1       -0.2471
     11 C          -8.2624  -18.3028   22.3562 C.ar    1  UNL1        0.0695
     12 C          -7.1384  -15.0952   23.3510 C.3     1  UNL1        0.0725
     13 C          -8.3041  -14.7014   22.4930 C.3     1  UNL1        0.0188
     14 C          -8.1807  -14.7357   20.9985 C.3     1  UNL1        0.0185
     15 C          -9.1990  -14.0387   20.1457 C.3     1  UNL1        0.0689
     16 N         -10.3517  -14.8091   19.5731 N.3     1  UNL1       -0.2937
     17 H         -11.2023  -14.3342   19.8753 H       1  UNL1        0.1236
     18 C         -10.5238  -16.2609   19.9083 C.3     1  UNL1        0.0956
     19 C         -13.3862  -17.4970   23.1531 C.ar    1  UNL1       -0.0000
     20 C         -13.3061  -18.2892   21.8819 C.ar    1  UNL1       -0.0003
     21 C         -12.3520  -17.8772   20.8003 C.ar    1  UNL1       -0.0029
     22 C         -11.4780  -16.6730   20.9899 C.ar    1  UNL1       -0.0064
     23 C         -11.5581  -15.8808   22.2611 C.ar    1  UNL1       -0.0029
     24 C         -12.5123  -16.2928   23.3427 C.ar    1  UNL1       -0.0003
     25 C          -5.5767  -17.0016   24.1734 C.3     1  UNL1        0.0886
     26 C          -4.5906  -17.5423   23.1807 C.3     1  UNL1        0.0748
     27 C          -3.4662  -16.6774   22.6933 C.3     1  UNL1        0.0432
     28 C          -2.4801  -17.2181   21.7006 C.ar    1  UNL1       -0.0234
     29 C          -1.3557  -16.3532   21.2132 C.ar    1  UNL1       -0.0045
     30 C          -0.3696  -16.8939   20.2205 C.ar    1  UNL1       -0.0003
     31 C          -0.5080  -18.2994   19.7154 C.ar    1  UNL1       -0.0003
     32 C          -1.6324  -19.1643   20.2028 C.ar    1  UNL1       -0.0032
     33 C          -2.6184  -18.6237   21.1954 C.ar    1  UNL1       -0.0103
     34 C          -3.7429  -19.4886   21.6829 C.3     1  UNL1        0.0953
     35 N          -4.7290  -18.9479   22.6755 N.3     1  UNL1       -0.2934
     36 H          -4.6908  -19.5591   23.4912 H       1  UNL1        0.1236
@<TRIPOS>BOND
     1    19    20   ar
     2    20    21   ar
     3    21    22   ar
     4    22    18    1
     5    18    16    1
     6    16    15    1
     7    15    14    1
     8    14    13    1
     9    13    12    1
    10    12     1    1
    11     1    25    1
    12    26    25    1
    13    26    27    1
    14    27    28    1
    15    28    29   ar
    16    29    30   ar
    17    30    31   ar
    18    31    32   ar
    19    32    33   ar
    20    33    34    1
    21    34    35    1
    22     2     1    1
    23     2     3    1
    24     3     4    1
    25     4     5    1
    26     5     6    1
    27     6     7   ar
    28     7     8   ar
    29     8     9   ar
    30     9    10   ar
    31    10    11   ar
    32    22    23   ar
    33    23    24   ar
    34    24    19   ar
    35    35    26    1
    36    11     2    1
    37    33    28   ar
    38    11     6   ar
    39    16    17    1
    40    35    36    1
