@<TRIPOS>MOLECULE
*****
 37 40 0 0 0
SMALL
GASTEIGER

@<TRIPOS>ATOM
      1 C           6.7707   -4.2267   31.0508 C.3     1  UNL1        0.0334
      2 C           6.9367   -4.5122   29.5877 C.ar    1  UNL1        0.0071
      3 C           6.4556   -3.5203   28.5706 C.ar    1  UNL1        0.0155
      4 C           6.6216   -3.8058   27.1074 C.ar    1  UNL1        0.0659
      5 C           7.2688   -5.0833   26.6613 C.ar    1  UNL1        0.0295
      6 C           7.7499   -6.0753   27.6784 C.ar    1  UNL1        0.0315
      7 C           7.5839   -5.7897   29.1415 C.ar    1  UNL1        0.1363
      8 F           8.0651   -6.7818   30.1586 F       1  UNL1       -0.2045
      9 C           7.2957   -5.0902   25.1616 C.ar    1  UNL1        0.0875
     10 C           6.6651   -3.8169   24.6808 C.ar    1  UNL1        0.0925
     11 N           6.2485   -3.0231   25.8834 N.ar    1  UNL1       -0.2878
     12 C           5.5768   -1.6820   25.8652 C.ar    1  UNL1        0.1755
     13 N           4.1287   -1.5736   25.4895 N.ar    1  UNL1       -0.2242
     14 C           3.4569   -0.2326   25.4712 C.ar    1  UNL1        0.1007
     15 C           4.2333    1.0000   25.8288 C.ar    1  UNL1        0.0231
     16 C           5.6814    0.8916   26.2045 C.ar    1  UNL1        0.0344
     17 C           6.3532   -0.4494   26.2227 C.ar    1  UNL1        0.1744
     18 F           7.8013   -0.5578   26.5985 F       1  UNL1       -0.2010
     19 C           6.4832   -3.4090   23.2488 C.ar    1  UNL1        0.0981
     20 C           5.1896   -3.6961   22.5457 C.ar    1  UNL1        0.0220
     21 C           5.0077   -3.2883   21.1138 C.ar    1  UNL1        0.0231
     22 C           6.1194   -2.5933   20.3849 C.ar    1  UNL1        0.1410
     23 C           7.4129   -2.3063   21.0879 C.ar    1  UNL1        0.1187
     24 N           7.5948   -2.7141   22.5198 N.ar    1  UNL1       -0.2409
     25 S           5.9374   -2.1855   18.9528 S.O2    1  UNL1        0.0619
     26 O           7.1086   -1.2555   19.0689 O.2     1  UNL1       -0.1529
     27 O           4.7663   -3.1155   18.8368 O.2     1  UNL1       -0.1529
     28 N           5.7555   -1.7777   17.5209 N.3     1  UNL1       -0.1723
     29 H           5.1453   -2.4734   17.0919 H       1  UNL1        0.1491
     30 C           5.1778   -0.4331   17.1916 C.3     1  UNL1        0.1701
     31 C           6.0409    0.6206   16.5635 C.3     1  UNL1        0.0278
     32 C           3.7369   -0.1423   17.4903 C.3     1  UNL1        0.4118
     33 F           2.2960    0.1485   17.7892 F       1  UNL1       -0.1685
     34 F           4.1530    0.7906   18.5888 F       1  UNL1       -0.1685
     35 F           3.3208   -1.0752   16.3920 F       1  UNL1       -0.1685
     36 C           7.8549   -6.1792   24.2948 C.1     1  UNL1        0.1020
     37 N           8.4143   -7.2682   23.4280 N.1     1  UNL1       -0.1908
@<TRIPOS>BOND
     1     1     2    1
     2     2     3   ar
     3     3     4   ar
     4     4     5   ar
     5     5     6   ar
     6     6     7   ar
     7     7     8    1
     8     5     9   ar
     9     9    36    1
    10    36    37    3
    11     9    10   ar
    12    10    19    1
    13    19    20   ar
    14    20    21   ar
    15    21    22   ar
    16    22    25    1
    17    25    26    2
    18    25    27    2
    19    25    28    1
    20    28    30    1
    21    30    31    1
    22    30    32    1
    23    32    33    1
    24    32    34    1
    25    32    35    1
    26    22    23   ar
    27    23    24   ar
    28    10    11   ar
    29    11    12    1
    30    12    13   ar
    31    13    14   ar
    32    14    15   ar
    33    15    16   ar
    34    16    17   ar
    35    17    18    1
    36     7     2   ar
    37    24    19   ar
    38    17    12   ar
    39    11     4   ar
    40    28    29    1
@<TRIPOS>MOLECULE
*****
 37 40 0 0 0
SMALL
GASTEIGER

@<TRIPOS>ATOM
      1 C           7.6771   -4.8565   31.3358 C.3     1  UNL1        0.0334
      2 C           7.1648   -4.0707   30.1654 C.ar    1  UNL1        0.0071
      3 C           7.4312   -4.5466   28.7681 C.ar    1  UNL1        0.0155
      4 C           6.9189   -3.7607   27.5976 C.ar    1  UNL1        0.0659
      5 C           6.1402   -2.4989   27.8244 C.ar    1  UNL1        0.0295
      6 C           5.8739   -2.0230   29.2217 C.ar    1  UNL1        0.0315
      7 C           6.3861   -2.8089   30.3922 C.ar    1  UNL1        0.1363
      8 F           6.1197   -2.3329   31.7896 F       1  UNL1       -0.2045
      9 C           5.7646   -1.9389   26.4846 C.ar    1  UNL1        0.0875
     10 C           6.3112   -2.8545   25.4296 C.ar    1  UNL1        0.0925
     11 N           7.0246   -3.9805   26.1175 N.ar    1  UNL1       -0.2878
     12 C           7.7213   -5.1253   25.4437 C.ar    1  UNL1        0.1755
     13 N           8.8296   -4.8595   24.4685 N.ar    1  UNL1       -0.2242
     14 C           9.5263   -6.0042   23.7946 C.ar    1  UNL1        0.1007
     15 C           9.1147   -7.4148   24.0960 C.ar    1  UNL1        0.0231
     16 C           8.0064   -7.6806   25.0711 C.ar    1  UNL1        0.0344
     17 C           7.3096   -6.5359   25.7450 C.ar    1  UNL1        0.1744
     18 F           6.2013   -6.8017   26.7202 F       1  UNL1       -0.2010
     19 C           6.1692   -2.6756   23.9471 C.ar    1  UNL1        0.0981
     20 C           5.3247   -3.6284   23.1541 C.ar    1  UNL1        0.0220
     21 C           5.1827   -3.4494   21.6716 C.ar    1  UNL1        0.0231
     22 C           5.8853   -2.3176   20.9821 C.ar    1  UNL1        0.1410
     23 C           6.7298   -1.3648   21.7751 C.ar    1  UNL1        0.1187
     24 N           6.8717   -1.5437   23.2576 N.ar    1  UNL1       -0.2409
     25 S           5.7433   -2.1386   19.4996 S.O2    1  UNL1        0.0619
     26 O           4.6568   -3.1727   19.4788 O.2     1  UNL1       -0.1529
     27 O           6.8297   -1.1046   19.5204 O.2     1  UNL1       -0.1529
     28 N           5.6014   -1.9596   18.0171 N.3     1  UNL1       -0.1723
     29 H           4.9647   -2.6873   17.6923 H       1  UNL1        0.1491
     30 C           5.0936   -0.6613   17.4636 C.3     1  UNL1        0.1701
     31 C           6.0298    0.2657   16.7466 C.3     1  UNL1        0.0278
     32 C           3.6496   -0.2898   17.6272 C.3     1  UNL1        0.4118
     33 F           2.2055    0.0817   17.7908 F       1  UNL1       -0.1685
     34 F           3.9785    0.4269   18.9033 F       1  UNL1       -0.1685
     35 F           3.3207   -1.0064   16.3512 F       1  UNL1       -0.1685
     36 C           4.9802   -0.6835   26.2422 C.1     1  UNL1        0.1020
     37 N           4.1957    0.5719   25.9999 N.1     1  UNL1       -0.1908
@<TRIPOS>BOND
     1     1     2    1
     2     2     3   ar
     3     3     4   ar
     4     4     5   ar
     5     5     6   ar
     6     6     7   ar
     7     7     8    1
     8     5     9   ar
     9     9    36    1
    10    36    37    3
    11     9    10   ar
    12    10    19    1
    13    19    20   ar
    14    20    21   ar
    15    21    22   ar
    16    22    25    1
    17    25    26    2
    18    25    27    2
    19    25    28    1
    20    28    30    1
    21    30    31    1
    22    30    32    1
    23    32    33    1
    24    32    34    1
    25    32    35    1
    26    22    23   ar
    27    23    24   ar
    28    10    11   ar
    29    11    12    1
    30    12    13   ar
    31    13    14   ar
    32    14    15   ar
    33    15    16   ar
    34    16    17   ar
    35    17    18    1
    36     7     2   ar
    37    24    19   ar
    38    17    12   ar
    39    11     4   ar
    40    28    29    1
@<TRIPOS>MOLECULE
*****
 37 40 0 0 0
SMALL
GASTEIGER

@<TRIPOS>ATOM
      1 C           1.4997    4.6819   35.0565 C.3     1  UNL1        0.0334
      2 C           1.8143    3.5839   34.0842 C.ar    1  UNL1        0.0071
      3 C           3.0239    2.7217   34.2922 C.ar    1  UNL1        0.0155
      4 C           3.3385    1.6237   33.3199 C.ar    1  UNL1        0.0659
      5 C           2.4435    1.3879   32.1396 C.ar    1  UNL1        0.0295
      6 C           1.2339    2.2501   31.9315 C.ar    1  UNL1        0.0315
      7 C           0.9193    3.3481   32.9038 C.ar    1  UNL1        0.1363
      8 F          -0.2904    4.2104   32.6957 F       1  UNL1       -0.2045
      9 C           3.0039    0.2387   31.3552 C.ar    1  UNL1        0.0875
     10 C           4.2453   -0.2358   32.0508 C.ar    1  UNL1        0.0925
     11 N           4.4521    0.6201   33.2651 N.ar    1  UNL1       -0.2878
     12 C           5.5753    0.4947   34.2514 C.ar    1  UNL1        0.1755
     13 N           6.9628    0.9135   33.8651 N.ar    1  UNL1       -0.2242
     14 C           8.0861    0.7881   34.8513 C.ar    1  UNL1        0.1007
     15 C           7.8216    0.2438   36.2238 C.ar    1  UNL1        0.0231
     16 C           6.4341   -0.1750   36.6101 C.ar    1  UNL1        0.0344
     17 C           5.3109   -0.0496   35.6239 C.ar    1  UNL1        0.1744
     18 F           3.9233   -0.4684   36.0102 F       1  UNL1       -0.2010
     19 C           5.1253   -1.3676   31.6095 C.ar    1  UNL1        0.0981
     20 C           5.4078   -2.5063   32.5441 C.ar    1  UNL1        0.0220
     21 C           6.2878   -3.6381   32.1028 C.ar    1  UNL1        0.0231
     22 C           6.8853   -3.6310   30.7269 C.ar    1  UNL1        0.1410
     23 C           6.6028   -2.4923   29.7924 C.ar    1  UNL1        0.1187
     24 N           5.7228   -1.3606   30.2337 N.ar    1  UNL1       -0.2409
     25 S           7.7653   -4.7628   30.2857 S.O2    1  UNL1        0.0619
     26 O           8.9425   -3.8338   30.2504 O.2     1  UNL1       -0.1529
     27 O           6.5882   -5.6918   30.3210 O.2     1  UNL1       -0.1529
     28 N           8.6453   -5.8946   29.8444 N.3     1  UNL1       -0.1723
     29 H           8.4769   -6.6671   30.4889 H       1  UNL1        0.1491
     30 C           8.5129   -6.4510   28.4577 C.3     1  UNL1        0.1701
     31 C           8.1552   -5.5449   27.3171 C.3     1  UNL1        0.0278
     32 C           8.7381   -7.9134   28.2117 C.3     1  UNL1        0.4118
     33 F           8.9633   -9.3759   27.9656 F       1  UNL1       -0.1685
     34 F           9.3848   -8.0404   29.5591 F       1  UNL1       -0.1685
     35 F           8.0913   -7.7862   26.8643 F       1  UNL1       -0.1685
     36 C           2.4246   -0.3353   30.0963 C.1     1  UNL1        0.1020
     37 N           1.8453   -0.9092   28.8372 N.1     1  UNL1       -0.1908
@<TRIPOS>BOND
     1     1     2    1
     2     2     3   ar
     3     3     4   ar
     4     4     5   ar
     5     5     6   ar
     6     6     7   ar
     7     7     8    1
     8     5     9   ar
     9     9    36    1
    10    36    37    3
    11     9    10   ar
    12    10    19    1
    13    19    20   ar
    14    20    21   ar
    15    21    22   ar
    16    22    25    1
    17    25    26    2
    18    25    27    2
    19    25    28    1
    20    28    30    1
    21    30    31    1
    22    30    32    1
    23    32    33    1
    24    32    34    1
    25    32    35    1
    26    22    23   ar
    27    23    24   ar
    28    10    11   ar
    29    11    12    1
    30    12    13   ar
    31    13    14   ar
    32    14    15   ar
    33    15    16   ar
    34    16    17   ar
    35    17    18    1
    36     7     2   ar
    37    24    19   ar
    38    17    12   ar
    39    11     4   ar
    40    28    29    1
@<TRIPOS>MOLECULE
*****
 37 40 0 0 0
SMALL
GASTEIGER

@<TRIPOS>ATOM
      1 C          -6.2174    5.4903   25.2858 C.3     1  UNL1        0.0334
      2 C          -4.8991    4.8151   25.0492 C.ar    1  UNL1        0.0071
      3 C          -4.4032    4.6077   23.6489 C.ar    1  UNL1        0.0155
      4 C          -3.0849    3.9324   23.4123 C.ar    1  UNL1        0.0659
      5 C          -2.2624    3.4645   24.5761 C.ar    1  UNL1        0.0295
      6 C          -2.7582    3.6719   25.9764 C.ar    1  UNL1        0.0315
      7 C          -4.0765    4.3471   26.2130 C.ar    1  UNL1        0.1363
      8 F          -4.5723    4.5545   27.6135 F       1  UNL1       -0.2045
      9 C          -1.0121    2.8353   24.0368 C.ar    1  UNL1        0.0875
     10 C          -1.0618    2.9143   22.5397 C.ar    1  UNL1        0.0925
     11 N          -2.3429    3.5924   22.1537 N.ar    1  UNL1       -0.2878
     12 C          -2.8015    3.8799   20.7548 C.ar    1  UNL1        0.1755
     13 N          -1.9611    4.7315   19.8501 N.ar    1  UNL1       -0.2242
     14 C          -2.4196    5.0191   18.4512 C.ar    1  UNL1        0.1007
     15 C          -3.7187    4.4551   17.9570 C.ar    1  UNL1        0.0231
     16 C          -4.5592    3.6035   18.8616 C.ar    1  UNL1        0.0344
     17 C          -4.1006    3.3159   20.2605 C.ar    1  UNL1        0.1744
     18 F          -4.9411    2.4643   21.1652 F       1  UNL1       -0.2010
     19 C          -0.0144    2.4047   21.5946 C.ar    1  UNL1        0.0981
     20 C           1.2321    3.2039   21.3548 C.ar    1  UNL1        0.0220
     21 C           2.2795    2.6942   20.4097 C.ar    1  UNL1        0.0231
     22 C           2.0804    1.3854   19.7044 C.ar    1  UNL1        0.1410
     23 C           0.8339    0.5863   19.9442 C.ar    1  UNL1        0.1187
     24 N          -0.2135    1.0959   20.8893 N.ar    1  UNL1       -0.2409
     25 S           3.1278    0.8758   18.7593 S.O2    1  UNL1        0.0619
     26 O           4.1923    1.5419   19.5799 O.2     1  UNL1       -0.1529
     27 O           2.0634    0.2099   17.9387 O.2     1  UNL1       -0.1529
     28 N           4.1752    0.3662   17.8142 N.3     1  UNL1       -0.1723
     29 H           4.7669    1.1615   17.5738 H       1  UNL1        0.1491
     30 C           5.0917   -0.7431   18.2377 C.3     1  UNL1        0.1701
     31 C           6.5381   -0.7135   17.8414 C.3     1  UNL1        0.0278
     32 C           4.5619   -1.8820   19.0575 C.3     1  UNL1        0.4118
     33 F           4.0321   -3.0209   19.8774 F       1  UNL1       -0.1685
     34 F           5.2818   -1.3502   20.2613 F       1  UNL1       -0.1685
     35 F           3.8421   -2.4137   17.8537 F       1  UNL1       -0.1685
     36 C           0.0939    2.2328   24.8516 C.1     1  UNL1        0.1020
     37 N           1.1998    1.6303   25.6665 N.1     1  UNL1       -0.1908
@<TRIPOS>BOND
     1     1     2    1
     2     2     3   ar
     3     3     4   ar
     4     4     5   ar
     5     5     6   ar
     6     6     7   ar
     7     7     8    1
     8     5     9   ar
     9     9    36    1
    10    36    37    3
    11     9    10   ar
    12    10    19    1
    13    19    20   ar
    14    20    21   ar
    15    21    22   ar
    16    22    25    1
    17    25    26    2
    18    25    27    2
    19    25    28    1
    20    28    30    1
    21    30    31    1
    22    30    32    1
    23    32    33    1
    24    32    34    1
    25    32    35    1
    26    22    23   ar
    27    23    24   ar
    28    10    11   ar
    29    11    12    1
    30    12    13   ar
    31    13    14   ar
    32    14    15   ar
    33    15    16   ar
    34    16    17   ar
    35    17    18    1
    36     7     2   ar
    37    24    19   ar
    38    17    12   ar
    39    11     4   ar
    40    28    29    1
@<TRIPOS>MOLECULE
*****
 37 40 0 0 0
SMALL
GASTEIGER

@<TRIPOS>ATOM
      1 C           0.9505    0.3937   19.9880 C.3     1  UNL1        0.0334
      2 C           1.7221    0.0006   21.2127 C.ar    1  UNL1        0.0071
      3 C           1.3630    0.5871   22.5458 C.ar    1  UNL1        0.0155
      4 C           2.1346    0.1940   23.7705 C.ar    1  UNL1        0.0659
      5 C           3.2654   -0.7856   23.6623 C.ar    1  UNL1        0.0295
      6 C           3.6245   -1.3721   22.3293 C.ar    1  UNL1        0.0315
      7 C           2.8528   -0.9790   21.1045 C.ar    1  UNL1        0.1363
      8 F           3.2120   -1.5656   19.7714 F       1  UNL1       -0.2045
      9 C           3.8413   -0.9820   25.0333 C.ar    1  UNL1        0.0875
     10 C           3.0665   -0.1238   25.9889 C.ar    1  UNL1        0.0925
     11 N           2.0117    0.6030   25.2085 N.ar    1  UNL1       -0.2878
     12 C           1.0099    1.5692   25.7678 C.ar    1  UNL1        0.1755
     13 N          -0.0763    1.0798   26.6792 N.ar    1  UNL1       -0.2242
     14 C          -1.0782    2.0459   27.2385 C.ar    1  UNL1        0.1007
     15 C          -0.9938    3.5015   26.8864 C.ar    1  UNL1        0.0231
     16 C           0.0923    3.9910   25.9750 C.ar    1  UNL1        0.0344
     17 C           1.0942    3.0249   25.4156 C.ar    1  UNL1        0.1744
     18 F           2.1803    3.5143   24.5042 F       1  UNL1       -0.2010
     19 C           3.3046   -0.0122   27.4657 C.ar    1  UNL1        0.0981
     20 C           4.4449    0.8150   27.9811 C.ar    1  UNL1        0.0220
     21 C           4.6830    0.9266   29.4578 C.ar    1  UNL1        0.0231
     22 C           3.7809    0.2111   30.4192 C.ar    1  UNL1        0.1410
     23 C           2.6407   -0.6160   29.9038 C.ar    1  UNL1        0.1187
     24 N           2.4025   -0.7277   28.4271 N.ar    1  UNL1       -0.2409
     25 S           4.0191    0.3228   31.8960 S.O2    1  UNL1        0.0619
     26 O           2.5384    0.3725   32.1311 O.2     1  UNL1       -0.1529
     27 O           5.4997    0.2731   31.6609 O.2     1  UNL1       -0.1529
     28 N           4.2574    0.4345   33.3727 N.3     1  UNL1       -0.1723
     29 H           3.3795    0.7438   33.7900 H       1  UNL1        0.1491
     30 C           4.7085   -0.7649   34.1524 C.3     1  UNL1        0.1701
     31 C           4.3321   -2.1426   33.6940 C.3     1  UNL1        0.0278
     32 C           5.5361   -0.5866   35.3907 C.3     1  UNL1        0.4118
     33 F           6.3637   -0.4083   36.6290 F       1  UNL1       -0.1685
     34 F           4.2926   -0.6330   36.2284 F       1  UNL1       -0.1685
     35 F           6.7795   -0.5403   34.5530 F       1  UNL1       -0.1685
     36 C           4.9903   -1.8792   25.3867 C.1     1  UNL1        0.1020
     37 N           6.1393   -2.7764   25.7401 N.1     1  UNL1       -0.1908
@<TRIPOS>BOND
     1     1     2    1
     2     2     3   ar
     3     3     4   ar
     4     4     5   ar
     5     5     6   ar
     6     6     7   ar
     7     7     8    1
     8     5     9   ar
     9     9    36    1
    10    36    37    3
    11     9    10   ar
    12    10    19    1
    13    19    20   ar
    14    20    21   ar
    15    21    22   ar
    16    22    25    1
    17    25    26    2
    18    25    27    2
    19    25    28    1
    20    28    30    1
    21    30    31    1
    22    30    32    1
    23    32    33    1
    24    32    34    1
    25    32    35    1
    26    22    23   ar
    27    23    24   ar
    28    10    11   ar
    29    11    12    1
    30    12    13   ar
    31    13    14   ar
    32    14    15   ar
    33    15    16   ar
    34    16    17   ar
    35    17    18    1
    36     7     2   ar
    37    24    19   ar
    38    17    12   ar
    39    11     4   ar
    40    28    29    1
@<TRIPOS>MOLECULE
*****
 37 40 0 0 0
SMALL
GASTEIGER

@<TRIPOS>ATOM
      1 C           4.9727   -1.3097   33.0386 C.3     1  UNL1        0.0334
      2 C           5.3804   -1.7796   31.6737 C.ar    1  UNL1        0.0071
      3 C           4.9189   -1.0358   30.4556 C.ar    1  UNL1        0.0155
      4 C           5.3267   -1.5057   29.0907 C.ar    1  UNL1        0.0659
      5 C           6.1959   -2.7193   28.9439 C.ar    1  UNL1        0.0295
      6 C           6.6574   -3.4630   30.1620 C.ar    1  UNL1        0.0315
      7 C           6.2496   -2.9931   31.5269 C.ar    1  UNL1        0.1363
      8 F           6.7112   -3.7369   32.7451 F       1  UNL1       -0.2045
      9 C           6.4350   -2.9439   27.4802 C.ar    1  UNL1        0.0875
     10 C           5.7135   -1.8691   26.7224 C.ar    1  UNL1        0.0925
     11 N           5.0285   -0.9802   27.7177 N.ar    1  UNL1       -0.2878
     12 C           4.1922    0.2228   27.3964 C.ar    1  UNL1        0.1755
     13 N           4.8279    1.4370   26.7868 N.ar    1  UNL1       -0.2242
     14 C           3.9917    2.6401   26.4655 C.ar    1  UNL1        0.1007
     15 C           2.5197    2.6290   26.7539 C.ar    1  UNL1        0.0231
     16 C           1.8840    1.4149   27.3636 C.ar    1  UNL1        0.0344
     17 C           2.7202    0.2118   27.6849 C.ar    1  UNL1        0.1744
     18 F           2.0846   -1.0024   28.2945 F       1  UNL1       -0.2010
     19 C           5.6825   -1.7110   25.2310 C.ar    1  UNL1        0.0981
     20 C           4.3976   -1.9078   24.4825 C.ar    1  UNL1        0.0220
     21 C           4.3666   -1.7497   22.9912 C.ar    1  UNL1        0.0231
     22 C           5.6205   -1.3948   22.2484 C.ar    1  UNL1        0.1410
     23 C           6.9054   -1.1981   22.9969 C.ar    1  UNL1        0.1187
     24 N           6.9364   -1.3562   24.4882 N.ar    1  UNL1       -0.2409
     25 S           5.5895   -1.2367   20.7570 S.O2    1  UNL1        0.0619
     26 O           6.7110   -2.2247   20.6290 O.2     1  UNL1       -0.1529
     27 O           4.4681   -0.2488   20.8851 O.2     1  UNL1       -0.1529
     28 N           5.5585   -1.0786   19.2657 N.3     1  UNL1       -0.1723
     29 H           6.4133   -1.5038   18.9067 H       1  UNL1        0.1491
     30 C           4.4224   -1.6552   18.4739 C.3     1  UNL1        0.1701
     31 C           3.8088   -0.8637   17.3572 C.3     1  UNL1        0.0278
     32 C           3.9001   -3.0232   18.7986 C.3     1  UNL1        0.4118
     33 F           3.3777   -4.3914   19.1234 F       1  UNL1       -0.1685
     34 F           5.0838   -3.6381   18.1123 F       1  UNL1       -0.1685
     35 F           2.7165   -2.4084   19.4849 F       1  UNL1       -0.1685
     36 C           7.2521   -4.0493   26.8798 C.1     1  UNL1        0.1020
     37 N           8.0692   -5.1547   26.2794 N.1     1  UNL1       -0.1908
@<TRIPOS>BOND
     1     1     2    1
     2     2     3   ar
     3     3     4   ar
     4     4     5   ar
     5     5     6   ar
     6     6     7   ar
     7     7     8    1
     8     5     9   ar
     9     9    36    1
    10    36    37    3
    11     9    10   ar
    12    10    19    1
    13    19    20   ar
    14    20    21   ar
    15    21    22   ar
    16    22    25    1
    17    25    26    2
    18    25    27    2
    19    25    28    1
    20    28    30    1
    21    30    31    1
    22    30    32    1
    23    32    33    1
    24    32    34    1
    25    32    35    1
    26    22    23   ar
    27    23    24   ar
    28    10    11   ar
    29    11    12    1
    30    12    13   ar
    31    13    14   ar
    32    14    15   ar
    33    15    16   ar
    34    16    17   ar
    35    17    18    1
    36     7     2   ar
    37    24    19   ar
    38    17    12   ar
    39    11     4   ar
    40    28    29    1
@<TRIPOS>MOLECULE
*****
 37 40 0 0 0
SMALL
GASTEIGER

@<TRIPOS>ATOM
      1 C           0.9156    2.0863   32.0079 C.3     1  UNL1        0.0334
      2 C           1.7850    1.4382   30.9715 C.ar    1  UNL1        0.0071
      3 C           1.5447    1.7082   29.5157 C.ar    1  UNL1        0.0155
      4 C           2.4140    1.0601   28.4792 C.ar    1  UNL1        0.0659
      5 C           3.5237    0.1421   28.8986 C.ar    1  UNL1        0.0295
      6 C           3.7640   -0.1278   30.3543 C.ar    1  UNL1        0.0315
      7 C           2.8947    0.5203   31.3908 C.ar    1  UNL1        0.1363
      8 F           3.1350    0.2503   32.8466 F       1  UNL1       -0.2045
      9 C           4.2120   -0.3491   27.6596 C.ar    1  UNL1        0.0875
     10 C           3.5277    0.2652   26.4746 C.ar    1  UNL1        0.0925
     11 N           2.4165    1.1362   26.9811 N.ar    1  UNL1       -0.2878
     12 C           1.4733    1.9418   26.1377 C.ar    1  UNL1        0.1755
     13 N           1.9997    3.0471   25.2709 N.ar    1  UNL1       -0.2242
     14 C           1.0567    3.8528   24.4275 C.ar    1  UNL1        0.1007
     15 C          -0.4129    3.5531   24.4508 C.ar    1  UNL1        0.0231
     16 C          -0.9393    2.4478   25.3175 C.ar    1  UNL1        0.0344
     17 C           0.0037    1.6422   26.1609 C.ar    1  UNL1        0.1744
     18 F          -0.5227    0.5369   27.0277 F       1  UNL1       -0.2010
     19 C           3.8909    0.0469   25.0357 C.ar    1  UNL1        0.0981
     20 C           3.0570   -0.8609   24.1811 C.ar    1  UNL1        0.0220
     21 C           3.4202   -1.0792   22.7422 C.ar    1  UNL1        0.0231
     22 C           4.6174   -0.3896   22.1579 C.ar    1  UNL1        0.1410
     23 C           5.4513    0.5182   23.0125 C.ar    1  UNL1        0.1187
     24 N           5.0881    0.7365   24.4514 N.ar    1  UNL1       -0.2409
     25 S           4.9806   -0.6080   20.7190 S.O2    1  UNL1        0.0619
     26 O           3.9910    0.4426   20.3098 O.2     1  UNL1       -0.1529
     27 O           5.9700   -1.6584   21.1282 O.2     1  UNL1       -0.1529
     28 N           5.3438   -0.8263   19.2801 N.3     1  UNL1       -0.1723
     29 H           6.2228   -1.3438   19.2736 H       1  UNL1        0.1491
     30 C           4.4023   -1.5605   18.3720 C.3     1  UNL1        0.1701
     31 C           3.9062   -0.9048   17.1175 C.3     1  UNL1        0.0278
     32 C           3.9571   -2.9503   18.7184 C.3     1  UNL1        0.4118
     33 F           3.5117   -4.3402   19.0648 F       1  UNL1       -0.1685
     34 F           2.7358   -2.3923   19.3873 F       1  UNL1       -0.1685
     35 F           5.1782   -3.5082   18.0495 F       1  UNL1       -0.1685
     36 C           5.3796   -1.2896   27.6138 C.1     1  UNL1        0.1020
     37 N           6.5472   -2.2302   27.5680 N.1     1  UNL1       -0.1908
@<TRIPOS>BOND
     1     1     2    1
     2     2     3   ar
     3     3     4   ar
     4     4     5   ar
     5     5     6   ar
     6     6     7   ar
     7     7     8    1
     8     5     9   ar
     9     9    36    1
    10    36    37    3
    11     9    10   ar
    12    10    19    1
    13    19    20   ar
    14    20    21   ar
    15    21    22   ar
    16    22    25    1
    17    25    26    2
    18    25    27    2
    19    25    28    1
    20    28    30    1
    21    30    31    1
    22    30    32    1
    23    32    33    1
    24    32    34    1
    25    32    35    1
    26    22    23   ar
    27    23    24   ar
    28    10    11   ar
    29    11    12    1
    30    12    13   ar
    31    13    14   ar
    32    14    15   ar
    33    15    16   ar
    34    16    17   ar
    35    17    18    1
    36     7     2   ar
    37    24    19   ar
    38    17    12   ar
    39    11     4   ar
    40    28    29    1
@<TRIPOS>MOLECULE
*****
 37 40 0 0 0
SMALL
GASTEIGER

@<TRIPOS>ATOM
      1 C           4.2889   -1.4107   33.8663 C.3     1  UNL1        0.0334
      2 C           4.6842   -1.3431   32.4209 C.ar    1  UNL1        0.0071
      3 C           3.7352   -0.7716   31.4097 C.ar    1  UNL1        0.0155
      4 C           4.1305   -0.7040   29.9643 C.ar    1  UNL1        0.0659
      5 C           5.4749   -1.2080   29.5301 C.ar    1  UNL1        0.0295
      6 C           6.4239   -1.7795   30.5413 C.ar    1  UNL1        0.0315
      7 C           6.0286   -1.8471   31.9867 C.ar    1  UNL1        0.1363
      8 F           6.9778   -2.4187   32.9979 F       1  UNL1       -0.2045
      9 C           5.5862   -1.0127   28.0471 C.ar    1  UNL1        0.0875
     10 C           4.3106   -0.3881   27.5647 C.ar    1  UNL1        0.0925
     11 N           3.4109   -0.1972   28.7496 N.ar    1  UNL1       -0.2878
     12 C           2.0335    0.3961   28.7243 C.ar    1  UNL1        0.1755
     13 N           0.8307   -0.4971   28.7973 N.ar    1  UNL1       -0.2242
     14 C          -0.5468    0.0962   28.7720 C.ar    1  UNL1        0.1007
     15 C          -0.7213    1.5827   28.6737 C.ar    1  UNL1        0.0231
     16 C           0.4815    2.4760   28.6007 C.ar    1  UNL1        0.0344
     17 C           1.8589    1.8827   28.6260 C.ar    1  UNL1        0.1744
     18 F           3.0618    2.7759   28.5530 F       1  UNL1       -0.2010
     19 C           3.9909   -0.0190   26.1463 C.ar    1  UNL1        0.0981
     20 C           3.6439   -1.0882   25.1532 C.ar    1  UNL1        0.0220
     21 C           3.3243   -0.7192   23.7349 C.ar    1  UNL1        0.0231
     22 C           3.3516    0.7191   23.3098 C.ar    1  UNL1        0.1410
     23 C           3.6985    1.7883   24.3029 C.ar    1  UNL1        0.1187
     24 N           4.0182    1.4192   25.7212 N.ar    1  UNL1       -0.2409
     25 S           3.0319    1.0881   21.8914 S.O2    1  UNL1        0.0619
     26 O           4.4864    0.9904   21.5381 O.2     1  UNL1       -0.1529
     27 O           1.5774    1.1859   22.2447 O.2     1  UNL1       -0.1529
     28 N           2.7121    1.4571   20.4731 N.3     1  UNL1       -0.1723
     29 H           3.5710    1.8248   20.0638 H       1  UNL1        0.1491
     30 C           2.1921    0.4164   19.5264 C.3     1  UNL1        0.1701
     31 C           1.3271    0.8201   18.3694 C.3     1  UNL1        0.0278
     32 C           2.5372   -1.0282   19.7365 C.3     1  UNL1        0.4118
     33 F           2.8823   -2.4728   19.9467 F       1  UNL1       -0.1685
     34 F           1.1984   -1.2552   20.3738 F       1  UNL1       -0.1685
     35 F           3.8760   -0.8011   19.0993 F       1  UNL1       -0.1685
     36 C           6.7660   -1.3780   27.1959 C.1     1  UNL1        0.1020
     37 N           7.9459   -1.7433   26.3446 N.1     1  UNL1       -0.1908
@<TRIPOS>BOND
     1     1     2    1
     2     2     3   ar
     3     3     4   ar
     4     4     5   ar
     5     5     6   ar
     6     6     7   ar
     7     7     8    1
     8     5     9   ar
     9     9    36    1
    10    36    37    3
    11     9    10   ar
    12    10    19    1
    13    19    20   ar
    14    20    21   ar
    15    21    22   ar
    16    22    25    1
    17    25    26    2
    18    25    27    2
    19    25    28    1
    20    28    30    1
    21    30    31    1
    22    30    32    1
    23    32    33    1
    24    32    34    1
    25    32    35    1
    26    22    23   ar
    27    23    24   ar
    28    10    11   ar
    29    11    12    1
    30    12    13   ar
    31    13    14   ar
    32    14    15   ar
    33    15    16   ar
    34    16    17   ar
    35    17    18    1
    36     7     2   ar
    37    24    19   ar
    38    17    12   ar
    39    11     4   ar
    40    28    29    1
@<TRIPOS>MOLECULE
*****
 37 40 0 0 0
SMALL
GASTEIGER

@<TRIPOS>ATOM
      1 C           0.3721    2.6335   18.2288 C.3     1  UNL1        0.0334
      2 C           0.9195    2.0510   19.4980 C.ar    1  UNL1        0.0071
      3 C           2.0618    1.0803   19.4462 C.ar    1  UNL1        0.0155
      4 C           2.6092    0.4977   20.7154 C.ar    1  UNL1        0.0659
      5 C           2.0143    0.8859   22.0365 C.ar    1  UNL1        0.0295
      6 C           0.8719    1.8566   22.0883 C.ar    1  UNL1        0.0315
      7 C           0.3245    2.4391   20.8191 C.ar    1  UNL1        0.1363
      8 F          -0.8179    3.4099   20.8710 F       1  UNL1       -0.2045
      9 C           2.7582    0.1530   23.1132 C.ar    1  UNL1        0.0875
     10 C           3.8130   -0.6882   22.4576 C.ar    1  UNL1        0.0925
     11 N           3.7210   -0.4752   20.9756 N.ar    1  UNL1       -0.2878
     12 C           4.5883   -1.1215   19.9364 C.ar    1  UNL1        0.1755
     13 N           5.8884   -0.4851   19.5432 N.ar    1  UNL1       -0.2242
     14 C           6.7557   -1.1313   18.5039 C.ar    1  UNL1        0.1007
     15 C           6.3229   -2.4140   17.8579 C.ar    1  UNL1        0.0231
     16 C           5.0228   -3.0503   18.2511 C.ar    1  UNL1        0.0344
     17 C           4.1554   -2.4041   19.2903 C.ar    1  UNL1        0.1744
     18 F           2.8553   -3.0405   19.6835 F       1  UNL1       -0.2010
     19 C           4.7886   -1.5850   23.1605 C.ar    1  UNL1        0.0981
     20 C           5.7560   -1.0099   24.1521 C.ar    1  UNL1        0.0220
     21 C           6.7315   -1.9067   24.8550 C.ar    1  UNL1        0.0231
     22 C           6.7397   -3.3786   24.5662 C.ar    1  UNL1        0.1410
     23 C           5.7723   -3.9537   23.5746 C.ar    1  UNL1        0.1187
     24 N           4.7968   -3.0569   22.8717 N.ar    1  UNL1       -0.2409
     25 S           7.7153   -4.2754   25.2691 S.O2    1  UNL1        0.0619
     26 O           8.8148   -3.7775   24.3784 O.2     1  UNL1       -0.1529
     27 O           6.6159   -4.7732   26.1598 O.2     1  UNL1       -0.1529
     28 N           8.6908   -5.1722   25.9720 N.3     1  UNL1       -0.1723
     29 H           8.6430   -4.9392   26.9639 H       1  UNL1        0.1491
     30 C           8.5483   -6.6619   25.8698 C.3     1  UNL1        0.1701
     31 C           8.4220   -7.3126   24.5243 C.3     1  UNL1        0.0278
     32 C           8.5319   -7.5008   27.1131 C.3     1  UNL1        0.4118
     33 F           8.5157   -8.3398   28.3565 F       1  UNL1       -0.1685
     34 F           9.5360   -6.5831   27.7455 F       1  UNL1       -0.1685
     35 F           7.5279   -8.4184   26.4808 F       1  UNL1       -0.1685
     36 C           2.4938    0.2450   24.5868 C.1     1  UNL1        0.1020
     37 N           2.2294    0.3372   26.0605 N.1     1  UNL1       -0.1908
@<TRIPOS>BOND
     1     1     2    1
     2     2     3   ar
     3     3     4   ar
     4     4     5   ar
     5     5     6   ar
     6     6     7   ar
     7     7     8    1
     8     5     9   ar
     9     9    36    1
    10    36    37    3
    11     9    10   ar
    12    10    19    1
    13    19    20   ar
    14    20    21   ar
    15    21    22   ar
    16    22    25    1
    17    25    26    2
    18    25    27    2
    19    25    28    1
    20    28    30    1
    21    30    31    1
    22    30    32    1
    23    32    33    1
    24    32    34    1
    25    32    35    1
    26    22    23   ar
    27    23    24   ar
    28    10    11   ar
    29    11    12    1
    30    12    13   ar
    31    13    14   ar
    32    14    15   ar
    33    15    16   ar
    34    16    17   ar
    35    17    18    1
    36     7     2   ar
    37    24    19   ar
    38    17    12   ar
    39    11     4   ar
    40    28    29    1
