@<TRIPOS>MOLECULE
*****
 25 28 0 0 0
SMALL
GASTEIGER

@<TRIPOS>ATOM
      1 O          -8.0071  -15.4914   21.7502 O.2     1  UNL1       -0.2699
      2 C          -8.3904  -16.8677   22.2072 C.2     1  UNL1        0.2487
      3 N          -8.8963  -17.0807   23.6032 N.am    1  UNL1       -0.2763
      4 C          -8.2677  -18.0311   21.2683 C.ar    1  UNL1        0.0496
      5 C          -6.9394  -18.6997   21.0720 C.ar    1  UNL1        0.0042
      6 C          -6.8168  -19.8630   20.1331 C.ar    1  UNL1        0.0001
      7 C          -8.0226  -20.3577   19.3904 C.ar    1  UNL1       -0.0003
      8 C          -9.3508  -19.6892   19.5867 C.ar    1  UNL1       -0.0041
      9 C          -9.4734  -18.5258   20.5256 C.ar    1  UNL1       -0.0181
     10 C         -10.8018  -17.8572   20.7219 C.3     1  UNL1        0.0225
     11 C         -11.2572  -16.5899   20.0612 C.3     1  UNL1        0.0044
     12 C         -12.6447  -16.2880   20.5444 C.3     1  UNL1        0.0003
     13 C         -13.0469  -17.3686   21.5038 C.3     1  UNL1        0.0003
     14 C         -11.9079  -18.3384   21.6135 C.3     1  UNL1        0.0044
     15 C          -9.2795  -18.4571   24.0602 C.3     1  UNL1        0.0927
     16 C          -8.8206  -19.7483   23.4502 C.3     1  UNL1        0.0383
     17 C          -9.4464  -20.8731   24.2204 C.3     1  UNL1        0.0704
     18 N         -10.2922  -20.2770   25.3065 N.3     1  UNL1       -0.2960
     19 C         -10.1890  -18.7838   25.2074 C.3     1  UNL1        0.0887
     20 H          -9.9550  -20.5875   26.2176 H       1  UNL1        0.1233
     21 C          -9.0189  -15.9174   24.5421 C.3     1  UNL1        0.0936
     22 C          -8.0423  -15.7572   25.6693 C.3     1  UNL1        0.0199
     23 C          -8.1328  -15.8045   27.1659 C.3     1  UNL1        0.0017
     24 C          -6.6612  -15.5306   27.2634 C.3     1  UNL1        0.0001
     25 C          -6.5708  -15.4833   25.7670 C.3     1  UNL1        0.0017
@<TRIPOS>BOND
     1     1     2    2
     2     2     4    1
     3     4     5   ar
     4     5     6   ar
     5     6     7   ar
     6     7     8   ar
     7     8     9   ar
     8     9    10    1
     9    10    11    1
    10    11    12    1
    11    12    13    1
    12    13    14    1
    13     2     3   am
    14     3    21    1
    15    21    22    1
    16    22    23    1
    17    23    24    1
    18    24    25    1
    19    15     3    1
    20    15    16    1
    21    16    17    1
    22    17    18    1
    23    18    19    1
    24     9     4   ar
    25    14    10    1
    26    25    22    1
    27    19    15    1
    28    18    20    1
@<TRIPOS>MOLECULE
*****
 25 28 0 0 0
SMALL
GASTEIGER

@<TRIPOS>ATOM
      1 O          -7.8177  -15.4558   21.5660 O.2     1  UNL1       -0.2699
      2 C          -8.7204  -16.5373   22.0814 C.2     1  UNL1        0.2487
      3 N          -9.1210  -16.5543   23.5268 N.am    1  UNL1       -0.2763
      4 C          -9.2225  -17.6017   21.1513 C.ar    1  UNL1        0.0496
      5 C         -10.6400  -17.5627   20.6624 C.ar    1  UNL1        0.0042
      6 C         -11.1421  -18.6271   19.7324 C.ar    1  UNL1        0.0001
      7 C         -10.2267  -19.7304   19.2912 C.ar    1  UNL1       -0.0003
      8 C          -8.8091  -19.7693   19.7801 C.ar    1  UNL1       -0.0041
      9 C          -8.3071  -18.7050   20.7101 C.ar    1  UNL1       -0.0181
     10 C          -6.8894  -18.7439   21.1991 C.3     1  UNL1        0.0225
     11 C          -6.4384  -18.5291   22.6134 C.3     1  UNL1        0.0044
     12 C          -4.9442  -18.6569   22.6479 C.3     1  UNL1        0.0003
     13 C          -4.4718  -18.9507   21.2548 C.3     1  UNL1        0.0003
     14 C          -5.6741  -19.0044   20.3594 C.3     1  UNL1        0.0044
     15 C         -10.0237  -17.6358   24.0421 C.3     1  UNL1        0.0927
     16 C         -11.5034  -17.7317   23.8154 C.3     1  UNL1        0.0383
     17 C         -11.9994  -18.9664   24.5078 C.3     1  UNL1        0.0704
     18 N         -10.8262  -19.6337   25.1625 N.3     1  UNL1       -0.2960
     19 C          -9.6052  -18.8113   24.8747 C.3     1  UNL1        0.0887
     20 H         -10.7074  -20.5737   24.7847 H       1  UNL1        0.1233
     21 C          -8.6189  -15.4900   24.4569 C.3     1  UNL1        0.0936
     22 C          -7.2241  -15.5684   25.0031 C.3     1  UNL1        0.0199
     23 C          -6.6276  -15.7150   26.3716 C.3     1  UNL1        0.0017
     24 C          -5.2515  -15.6792   25.7756 C.3     1  UNL1        0.0001
     25 C          -5.8480  -15.5326   24.4072 C.3     1  UNL1        0.0017
@<TRIPOS>BOND
     1     1     2    2
     2     2     4    1
     3     4     5   ar
     4     5     6   ar
     5     6     7   ar
     6     7     8   ar
     7     8     9   ar
     8     9    10    1
     9    10    11    1
    10    11    12    1
    11    12    13    1
    12    13    14    1
    13     2     3   am
    14     3    21    1
    15    21    22    1
    16    22    23    1
    17    23    24    1
    18    24    25    1
    19    15     3    1
    20    15    16    1
    21    16    17    1
    22    17    18    1
    23    18    19    1
    24     9     4   ar
    25    14    10    1
    26    25    22    1
    27    19    15    1
    28    18    20    1
@<TRIPOS>MOLECULE
*****
 25 28 0 0 0
SMALL
GASTEIGER

@<TRIPOS>ATOM
      1 O          -8.5645  -20.6511   23.8996 O.2     1  UNL1       -0.2699
      2 C          -9.1893  -19.5615   23.0796 C.2     1  UNL1        0.2487
      3 N          -9.8256  -18.3841   23.7569 N.am    1  UNL1       -0.2763
      4 C          -9.1779  -19.6494   21.5821 C.ar    1  UNL1        0.0496
      5 C         -10.4489  -19.9327   20.8377 C.ar    1  UNL1        0.0042
      6 C         -10.4374  -20.0206   19.3404 C.ar    1  UNL1        0.0001
      7 C          -9.1549  -19.8251   18.5874 C.ar    1  UNL1       -0.0003
      8 C          -7.8839  -19.5418   19.3318 C.ar    1  UNL1       -0.0041
      9 C          -7.8954  -19.4540   20.8292 C.ar    1  UNL1       -0.0181
     10 C          -6.6243  -19.1707   21.5736 C.3     1  UNL1        0.0225
     11 C          -5.4095  -20.0498   21.6106 C.3     1  UNL1        0.0044
     12 C          -4.3793  -19.3809   22.4716 C.3     1  UNL1        0.0003
     13 C          -4.9574  -18.0884   22.9668 C.3     1  UNL1        0.0003
     14 C          -6.3449  -17.9585   22.4118 C.3     1  UNL1        0.0044
     15 C         -10.4505  -17.2945   22.9368 C.3     1  UNL1        0.0927
     16 C         -11.9172  -16.9965   22.8377 C.3     1  UNL1        0.0383
     17 C         -12.0914  -15.8295   21.9115 C.3     1  UNL1        0.0704
     18 N         -10.7324  -15.4063   21.4382 N.3     1  UNL1       -0.2960
     19 C          -9.7182  -16.3118   22.0719 C.3     1  UNL1        0.0887
     20 H         -10.5548  -14.4407   21.7144 H       1  UNL1        0.1233
     21 C          -9.8370  -18.2962   25.2542 C.3     1  UNL1        0.0936
     22 C          -9.0906  -17.1946   25.9466 C.3     1  UNL1        0.0199
     23 C          -8.6144  -16.9542   27.3486 C.3     1  UNL1        0.0017
     24 C          -8.0350  -15.6368   26.9258 C.3     1  UNL1        0.0001
     25 C          -8.5112  -15.8772   25.5239 C.3     1  UNL1        0.0017
@<TRIPOS>BOND
     1     1     2    2
     2     2     4    1
     3     4     5   ar
     4     5     6   ar
     5     6     7   ar
     6     7     8   ar
     7     8     9   ar
     8     9    10    1
     9    10    11    1
    10    11    12    1
    11    12    13    1
    12    13    14    1
    13     2     3   am
    14     3    21    1
    15    21    22    1
    16    22    23    1
    17    23    24    1
    18    24    25    1
    19    15     3    1
    20    15    16    1
    21    16    17    1
    22    17    18    1
    23    18    19    1
    24     9     4   ar
    25    14    10    1
    26    25    22    1
    27    19    15    1
    28    18    20    1
@<TRIPOS>MOLECULE
*****
 25 28 0 0 0
SMALL
GASTEIGER

@<TRIPOS>ATOM
      1 O          -9.5311  -20.1407   24.7963 O.2     1  UNL1       -0.2699
      2 C          -8.9949  -19.0410   23.9285 C.2     1  UNL1        0.2487
      3 N          -8.7996  -17.6660   24.4952 N.am    1  UNL1       -0.2763
      4 C          -8.6541  -19.3163   22.4938 C.ar    1  UNL1        0.0496
      5 C          -7.2929  -19.8323   22.1321 C.ar    1  UNL1        0.0042
      6 C          -6.9521  -20.1076   20.6975 C.ar    1  UNL1        0.0001
      7 C          -7.9724  -19.8669   19.6247 C.ar    1  UNL1       -0.0003
      8 C          -9.3336  -19.3509   19.9865 C.ar    1  UNL1       -0.0041
      9 C          -9.6744  -19.0756   21.4210 C.ar    1  UNL1       -0.0181
     10 C         -11.0357  -18.5596   21.7829 C.3     1  UNL1        0.0225
     11 C         -11.7665  -18.8240   23.0658 C.3     1  UNL1        0.0044
     12 C         -13.0875  -18.1164   23.0011 C.3     1  UNL1        0.0003
     13 C         -13.1731  -17.4147   21.6780 C.3     1  UNL1        0.0003
     14 C         -11.9050  -17.6886   20.9252 C.3     1  UNL1        0.0044
     15 C          -8.2634  -16.5663   23.6273 C.3     1  UNL1        0.0927
     16 C          -9.0133  -15.8568   22.5391 C.3     1  UNL1        0.0383
     17 C          -8.0965  -14.8351   21.9346 C.3     1  UNL1        0.0704
     18 N          -6.7798  -14.9131   22.6491 N.3     1  UNL1       -0.2960
     19 C          -6.8830  -15.9831   23.6953 C.3     1  UNL1        0.0887
     20 H          -6.5715  -14.0171   23.0897 H       1  UNL1        0.1233
     21 C          -9.1404  -17.3907   25.9298 C.3     1  UNL1        0.0936
     22 C          -8.3178  -16.4191   26.7230 C.3     1  UNL1        0.0199
     23 C          -6.9205  -16.4101   27.2687 C.3     1  UNL1        0.0017
     24 C          -7.1544  -15.0450   27.8447 C.3     1  UNL1        0.0001
     25 C          -8.5515  -15.0540   27.2990 C.3     1  UNL1        0.0017
@<TRIPOS>BOND
     1     1     2    2
     2     2     4    1
     3     4     5   ar
     4     5     6   ar
     5     6     7   ar
     6     7     8   ar
     7     8     9   ar
     8     9    10    1
     9    10    11    1
    10    11    12    1
    11    12    13    1
    12    13    14    1
    13     2     3   am
    14     3    21    1
    15    21    22    1
    16    22    23    1
    17    23    24    1
    18    24    25    1
    19    15     3    1
    20    15    16    1
    21    16    17    1
    22    17    18    1
    23    18    19    1
    24     9     4   ar
    25    14    10    1
    26    25    22    1
    27    19    15    1
    28    18    20    1
@<TRIPOS>MOLECULE
*****
 25 28 0 0 0
SMALL
GASTEIGER

@<TRIPOS>ATOM
      1 O          -8.5791  -18.7464   24.5278 O.2     1  UNL1       -0.2699
      2 C          -8.8445  -17.9376   23.2928 C.2     1  UNL1        0.2487
      3 N          -8.8057  -16.4393   23.3547 N.am    1  UNL1       -0.2763
      4 C          -9.1486  -18.6269   21.9957 C.ar    1  UNL1        0.0496
      5 C          -8.0429  -18.9224   21.0261 C.ar    1  UNL1        0.0042
      6 C          -8.3471  -19.6117   19.7291 C.ar    1  UNL1        0.0001
      7 C          -9.7569  -20.0056   19.4017 C.ar    1  UNL1       -0.0003
      8 C         -10.8626  -19.7101   20.3712 C.ar    1  UNL1       -0.0041
      9 C         -10.5584  -19.0208   21.6682 C.ar    1  UNL1       -0.0181
     10 C         -11.6641  -18.7253   22.6379 C.3     1  UNL1        0.0225
     11 C         -12.9042  -17.9332   22.3465 C.3     1  UNL1        0.0044
     12 C         -13.7303  -17.8884   23.5976 C.3     1  UNL1        0.0003
     13 C         -13.0008  -18.6528   24.6624 C.3     1  UNL1        0.0003
     14 C         -11.7239  -19.1700   24.0692 C.3     1  UNL1        0.0044
     15 C          -9.0710  -15.6305   22.1196 C.3     1  UNL1        0.0927
     16 C         -10.3019  -15.7034   21.2655 C.3     1  UNL1        0.0383
     17 C         -10.1437  -14.7247   20.1398 C.3     1  UNL1        0.0704
     18 N          -8.8149  -14.0469   20.2983 N.3     1  UNL1       -0.2960
     19 C          -8.1520  -14.6067   21.5219 C.3     1  UNL1        0.0887
     20 H          -8.9499  -13.0417   20.4069 H       1  UNL1        0.1233
     21 C          -8.5016  -15.7500   24.6517 C.3     1  UNL1        0.0936
     22 C          -7.0798  -15.5980   25.1050 C.3     1  UNL1        0.0199
     23 C          -6.4082  -15.3347   26.4202 C.3     1  UNL1        0.0017
     24 C          -5.0691  -15.3831   25.7460 C.3     1  UNL1        0.0001
     25 C          -5.7407  -15.6464   24.4309 C.3     1  UNL1        0.0017
@<TRIPOS>BOND
     1     1     2    2
     2     2     4    1
     3     4     5   ar
     4     5     6   ar
     5     6     7   ar
     6     7     8   ar
     7     8     9   ar
     8     9    10    1
     9    10    11    1
    10    11    12    1
    11    12    13    1
    12    13    14    1
    13     2     3   am
    14     3    21    1
    15    21    22    1
    16    22    23    1
    17    23    24    1
    18    24    25    1
    19    15     3    1
    20    15    16    1
    21    16    17    1
    22    17    18    1
    23    18    19    1
    24     9     4   ar
    25    14    10    1
    26    25    22    1
    27    19    15    1
    28    18    20    1
@<TRIPOS>MOLECULE
*****
 25 28 0 0 0
SMALL
GASTEIGER

@<TRIPOS>ATOM
      1 O          -7.0383  -18.2144   20.2194 O.2     1  UNL1       -0.2699
      2 C          -8.1958  -18.4909   21.1324 C.2     1  UNL1        0.2487
      3 N          -8.0674  -19.5204   22.2157 N.am    1  UNL1       -0.2763
      4 C          -9.4818  -17.7377   20.9622 C.ar    1  UNL1        0.0496
      5 C         -10.4527  -18.1433   19.8932 C.ar    1  UNL1        0.0042
      6 C         -11.7387  -17.3902   19.7230 C.ar    1  UNL1        0.0001
      7 C         -12.0538  -16.2314   20.6218 C.ar    1  UNL1       -0.0003
      8 C         -11.0829  -15.8257   21.6908 C.ar    1  UNL1       -0.0041
      9 C          -9.7970  -16.5789   21.8610 C.ar    1  UNL1       -0.0181
     10 C          -8.8260  -16.1733   22.9301 C.3     1  UNL1        0.0225
     11 C          -9.0095  -16.3647   24.4065 C.3     1  UNL1        0.0044
     12 C          -7.7980  -15.8147   25.0992 C.3     1  UNL1        0.0003
     13 C          -6.8658  -15.2834   24.0510 C.3     1  UNL1        0.0003
     14 C          -7.5012  -15.5050   22.7104 C.3     1  UNL1        0.0044
     15 C          -9.2250  -19.7968   23.1288 C.3     1  UNL1        0.0927
     16 C         -10.6184  -20.1531   22.7028 C.3     1  UNL1        0.0383
     17 C         -11.4470  -20.3419   23.9389 C.3     1  UNL1        0.0704
     18 N         -10.5656  -20.1023   25.1288 N.3     1  UNL1       -0.2960
     19 C          -9.1924  -19.7654   24.6281 C.3     1  UNL1        0.0887
     20 H         -10.5272  -20.9424   25.7059 H       1  UNL1        0.1233
     21 C          -6.7814  -20.2736   22.3860 C.3     1  UNL1        0.0936
     22 C          -5.4709  -19.5488   22.3012 C.3     1  UNL1        0.0199
     23 C          -4.1713  -19.7865   21.5908 C.3     1  UNL1        0.0017
     24 C          -3.6175  -18.5238   22.1813 C.3     1  UNL1        0.0001
     25 C          -4.9170  -18.2861   22.8917 C.3     1  UNL1        0.0017
@<TRIPOS>BOND
     1     1     2    2
     2     2     4    1
     3     4     5   ar
     4     5     6   ar
     5     6     7   ar
     6     7     8   ar
     7     8     9   ar
     8     9    10    1
     9    10    11    1
    10    11    12    1
    11    12    13    1
    12    13    14    1
    13     2     3   am
    14     3    21    1
    15    21    22    1
    16    22    23    1
    17    23    24    1
    18    24    25    1
    19    15     3    1
    20    15    16    1
    21    16    17    1
    22    17    18    1
    23    18    19    1
    24     9     4   ar
    25    14    10    1
    26    25    22    1
    27    19    15    1
    28    18    20    1
@<TRIPOS>MOLECULE
*****
 25 28 0 0 0
SMALL
GASTEIGER

@<TRIPOS>ATOM
      1 O          -9.6068  -20.2243   19.7663 O.2     1  UNL1       -0.2699
      2 C          -9.3731  -18.9701   20.5552 C.2     1  UNL1        0.2487
      3 N          -8.0317  -18.7131   21.1753 N.am    1  UNL1       -0.2763
      4 C         -10.4809  -17.9729   20.7240 C.ar    1  UNL1        0.0496
      5 C         -10.8997  -17.1142   19.5676 C.ar    1  UNL1        0.0042
      6 C         -12.0074  -16.1171   19.7365 C.ar    1  UNL1        0.0001
      7 C         -12.6964  -15.9786   21.0617 C.ar    1  UNL1       -0.0003
      8 C         -12.2777  -16.8373   22.2180 C.ar    1  UNL1       -0.0041
      9 C         -11.1699  -17.8345   22.0492 C.ar    1  UNL1       -0.0181
     10 C         -10.7511  -18.6933   23.2056 C.3     1  UNL1        0.0225
     11 C         -10.3942  -18.2090   24.5797 C.3     1  UNL1        0.0044
     12 C         -10.0382  -19.4035   25.4142 C.3     1  UNL1        0.0003
     13 C         -10.1751  -20.6261   24.5558 C.3     1  UNL1        0.0003
     14 C         -10.6157  -20.1871   23.1909 C.3     1  UNL1        0.0044
     15 C          -7.7981  -17.4588   21.9643 C.3     1  UNL1        0.0927
     16 C          -7.2093  -17.3804   23.3416 C.3     1  UNL1        0.0383
     17 C          -7.1596  -15.9359   23.7429 C.3     1  UNL1        0.0704
     18 N          -7.7178  -15.1216   22.6135 N.3     1  UNL1       -0.2960
     19 C          -8.1124  -16.0628   21.5143 C.3     1  UNL1        0.0887
     20 H          -7.0103  -14.4700   22.2739 H       1  UNL1        0.1233
     21 C          -6.9240  -19.7102   21.0066 C.3     1  UNL1        0.0936
     22 C          -5.5094  -19.2391   20.8424 C.3     1  UNL1        0.0199
     23 C          -4.6403  -18.8786   19.6742 C.3     1  UNL1        0.0017
     24 C          -3.5088  -18.5729   20.6103 C.3     1  UNL1        0.0001
     25 C          -4.3778  -18.9334   21.7785 C.3     1  UNL1        0.0017
@<TRIPOS>BOND
     1     1     2    2
     2     2     4    1
     3     4     5   ar
     4     5     6   ar
     5     6     7   ar
     6     7     8   ar
     7     8     9   ar
     8     9    10    1
     9    10    11    1
    10    11    12    1
    11    12    13    1
    12    13    14    1
    13     2     3   am
    14     3    21    1
    15    21    22    1
    16    22    23    1
    17    23    24    1
    18    24    25    1
    19    15     3    1
    20    15    16    1
    21    16    17    1
    22    17    18    1
    23    18    19    1
    24     9     4   ar
    25    14    10    1
    26    25    22    1
    27    19    15    1
    28    18    20    1
@<TRIPOS>MOLECULE
*****
 25 28 0 0 0
SMALL
GASTEIGER

@<TRIPOS>ATOM
      1 O          -9.0556  -20.1957   20.0851 O.2     1  UNL1       -0.2699
      2 C          -8.6017  -19.3455   21.2344 C.2     1  UNL1        0.2487
      3 N          -7.3023  -18.6010   21.1493 N.am    1  UNL1       -0.2763
      4 C          -9.4472  -19.2398   22.4690 C.ar    1  UNL1        0.0496
      5 C          -9.1627  -20.1190   23.6505 C.ar    1  UNL1        0.0042
      6 C         -10.0081  -20.0132   24.8849 C.ar    1  UNL1        0.0001
      7 C         -11.1381  -19.0282   24.9379 C.ar    1  UNL1       -0.0003
      8 C         -11.4227  -18.1489   23.7564 C.ar    1  UNL1       -0.0041
      9 C         -10.5772  -18.2547   22.5220 C.ar    1  UNL1       -0.0181
     10 C         -10.8617  -17.3754   21.3404 C.3     1  UNL1        0.0225
     11 C         -11.5525  -17.7935   20.0763 C.3     1  UNL1        0.0044
     12 C         -11.6231  -16.6002   19.1702 C.3     1  UNL1        0.0003
     13 C         -10.9758  -15.4446   19.8744 C.3     1  UNL1        0.0003
     14 C         -10.5052  -15.9237   21.2156 C.3     1  UNL1        0.0044
     15 C          -6.8483  -17.7508   22.2988 C.3     1  UNL1        0.0927
     16 C          -7.6208  -16.6267   22.9230 C.3     1  UNL1        0.0383
     17 C          -6.7921  -16.0566   24.0358 C.3     1  UNL1        0.0704
     18 N          -5.5074  -16.8285   24.0993 N.3     1  UNL1       -0.2960
     19 C          -5.5422  -17.8755   23.0258 C.3     1  UNL1        0.0887
     20 H          -5.4152  -17.2724   25.0130 H       1  UNL1        0.1233
     21 C          -6.4568  -18.7068   19.9149 C.3     1  UNL1        0.0936
     22 C          -5.1047  -19.3524   19.9849 C.3     1  UNL1        0.0199
     23 C          -3.6914  -18.8736   19.8317 C.3     1  UNL1        0.0017
     24 C          -3.1925  -20.2655   20.0839 C.3     1  UNL1        0.0001
     25 C          -4.6057  -20.7443   20.2371 C.3     1  UNL1        0.0017
@<TRIPOS>BOND
     1     1     2    2
     2     2     4    1
     3     4     5   ar
     4     5     6   ar
     5     6     7   ar
     6     7     8   ar
     7     8     9   ar
     8     9    10    1
     9    10    11    1
    10    11    12    1
    11    12    13    1
    12    13    14    1
    13     2     3   am
    14     3    21    1
    15    21    22    1
    16    22    23    1
    17    23    24    1
    18    24    25    1
    19    15     3    1
    20    15    16    1
    21    16    17    1
    22    17    18    1
    23    18    19    1
    24     9     4   ar
    25    14    10    1
    26    25    22    1
    27    19    15    1
    28    18    20    1
@<TRIPOS>MOLECULE
*****
 25 28 0 0 0
SMALL
GASTEIGER

@<TRIPOS>ATOM
      1 O          -9.4929  -19.7378   20.9207 O.2     1  UNL1       -0.2699
      2 C          -9.5096  -18.7012   22.0047 C.2     1  UNL1        0.2487
      3 N          -8.2785  -17.8923   22.2879 N.am    1  UNL1       -0.2763
      4 C         -10.7573  -18.4735   22.8056 C.ar    1  UNL1        0.0496
      5 C         -11.0187  -19.2912   24.0356 C.ar    1  UNL1        0.0042
      6 C         -12.2664  -19.0635   24.8364 C.ar    1  UNL1        0.0001
      7 C         -13.2527  -18.0180   24.4073 C.ar    1  UNL1       -0.0003
      8 C         -12.9913  -17.2002   23.1773 C.ar    1  UNL1       -0.0041
      9 C         -11.7436  -17.4280   22.3765 C.ar    1  UNL1       -0.0181
     10 C         -11.4821  -16.6102   21.1464 C.3     1  UNL1        0.0225
     11 C         -10.4080  -15.5753   20.9875 C.3     1  UNL1        0.0044
     12 C         -10.5110  -15.0093   19.6022 C.3     1  UNL1        0.0003
     13 C         -11.6487  -15.6944   18.9049 C.3     1  UNL1        0.0003
     14 C         -12.2489  -16.6838   19.8593 C.3     1  UNL1        0.0044
     15 C          -8.2952  -16.8556   23.3720 C.3     1  UNL1        0.0927
     16 C          -8.7983  -17.0514   24.7714 C.3     1  UNL1        0.0383
     17 C          -8.6258  -15.7580   25.5112 C.3     1  UNL1        0.0704
     18 N          -8.0161  -14.7628   24.5689 N.3     1  UNL1       -0.2960
     19 C          -7.8118  -15.4412   23.2468 C.3     1  UNL1        0.0887
     20 H          -7.1198  -14.4427   24.9359 H       1  UNL1        0.1233
     21 C          -7.0308  -18.1200   21.4871 C.3     1  UNL1        0.0936
     22 C          -5.7252  -18.3612   22.1850 C.3     1  UNL1        0.0199
     23 C          -4.8369  -17.5516   23.0826 C.3     1  UNL1        0.0017
     24 C          -3.8788  -18.7023   23.1721 C.3     1  UNL1        0.0001
     25 C          -4.7671  -19.5118   22.2746 C.3     1  UNL1        0.0017
@<TRIPOS>BOND
     1     1     2    2
     2     2     4    1
     3     4     5   ar
     4     5     6   ar
     5     6     7   ar
     6     7     8   ar
     7     8     9   ar
     8     9    10    1
     9    10    11    1
    10    11    12    1
    11    12    13    1
    12    13    14    1
    13     2     3   am
    14     3    21    1
    15    21    22    1
    16    22    23    1
    17    23    24    1
    18    24    25    1
    19    15     3    1
    20    15    16    1
    21    16    17    1
    22    17    18    1
    23    18    19    1
    24     9     4   ar
    25    14    10    1
    26    25    22    1
    27    19    15    1
    28    18    20    1
