@<TRIPOS>MOLECULE
*****
 32 35 0 0 0
SMALL
GASTEIGER

@<TRIPOS>ATOM
      1 C           2.0821    0.5381   19.1881 C.2     1  UNL1        0.2525
      2 O           0.9128    0.6097   18.2514 O.2     1  UNL1       -0.2698
      3 N           1.8711    0.6973   20.6647 N.am    1  UNL1       -0.2660
      4 C           2.9380    0.6496   21.7180 C.3     1  UNL1        0.1236
      5 C           2.2824    0.8549   23.0514 C.ar    1  UNL1        0.0338
      6 C           2.5366    0.9524   24.5265 C.ar    1  UNL1        0.0991
      7 N           1.2216    1.1871   25.2090 N.ar    1  UNL1       -0.2271
      8 N           0.1547    1.2347   24.1556 N.ar    1  UNL1       -0.1680
      9 C           0.8103    1.0294   22.8222 C.ar    1  UNL1        0.0981
     10 C           0.5561    0.9320   21.3471 C.3     1  UNL1        0.1414
     11 C           1.0106    1.3462   26.6854 C.ar    1  UNL1        0.1042
     12 C           2.0570    2.0177   27.5246 C.ar    1  UNL1        0.1181
     13 N           1.8460    2.1769   29.0011 N.ar    1  UNL1       -0.2384
     14 C           0.5885    1.6646   29.6385 C.ar    1  UNL1        0.1285
     15 C          -0.4580    0.9931   28.7993 C.ar    1  UNL1        0.1607
     16 F          -1.7155    0.4807   29.4368 F       1  UNL1       -0.2025
     17 C          -0.2470    0.8339   27.3229 C.ar    1  UNL1        0.0520
     18 C           4.0692   -1.0634   18.7013 C.ar    1  UNL1        0.1431
     19 C           5.4495   -1.2940   18.1615 C.ar    1  UNL1        0.0377
     20 C           6.2233   -0.1539   17.5687 C.ar    1  UNL1        0.0134
     21 C           5.6167    1.2170   17.5157 C.ar    1  UNL1        0.0688
     22 C           4.2362    1.4476   18.0556 C.ar    1  UNL1        0.0178
     23 C           3.4625    0.3074   18.6483 C.ar    1  UNL1        0.0881
     24 C           6.3904    2.3571   16.9229 C.1     1  UNL1        0.1004
     25 N           7.1641    3.4973   16.3302 N.1     1  UNL1       -0.1908
     26 O           3.2955   -2.2035   19.2941 O.3     1  UNL1       -0.4702
     27 C           4.3631   -3.2013   21.4422 C.3     1  UNL1        0.0566
     28 C           4.0182   -3.3203   19.9873 C.3     1  UNL1        0.2599
     29 C           4.3959   -4.5560   19.2255 C.3     1  UNL1        0.4340
     30 F           4.7738   -5.7916   18.4637 F       1  UNL1       -0.1664
     31 F           5.8318   -4.3539   19.6098 F       1  UNL1       -0.1664
     32 F           2.9602   -4.7581   18.8412 F       1  UNL1       -0.1664
@<TRIPOS>BOND
     1    28    27    1
     2    28    26    1
     3    26    18    1
     4    18    19   ar
     5    19    20   ar
     6    20    21   ar
     7    21    24    1
     8    24    25    3
     9    21    22   ar
    10    22    23   ar
    11    23     1    1
    12     1     2    2
    13     1     3   am
    14     3     4    1
    15     4     5    1
    16     5     6   ar
    17     6     7   ar
    18     7    11    1
    19    11    12   ar
    20    12    13   ar
    21    13    14   ar
    22    14    15   ar
    23    15    16    1
    24    15    17   ar
    25     7     8   ar
    26     8     9   ar
    27     9    10    1
    28    28    29    1
    29    29    30    1
    30    29    31    1
    31    29    32    1
    32    23    18   ar
    33    10     3    1
    34     9     5   ar
    35    17    11   ar
@<TRIPOS>MOLECULE
*****
 32 35 0 0 0
SMALL
GASTEIGER

@<TRIPOS>ATOM
      1 C           4.5793   -0.6185   17.6778 C.2     1  UNL1        0.2525
      2 O           4.2799   -1.2573   16.3541 O.2     1  UNL1       -0.2698
      3 N           5.1241   -1.4463   18.8039 N.am    1  UNL1       -0.2660
      4 C           5.4695   -0.9495   20.1764 C.3     1  UNL1        0.1236
      5 C           5.9780   -2.1124   20.9759 C.ar    1  UNL1        0.0338
      6 C           6.5058   -2.5241   22.3182 C.ar    1  UNL1        0.0991
      7 N           6.8009   -3.9940   22.2695 N.ar    1  UNL1       -0.2271
      8 N           6.4554   -4.4908   20.8968 N.ar    1  UNL1       -0.1680
      9 C           5.9469   -3.3279   20.0974 C.ar    1  UNL1        0.0981
     10 C           5.4191   -2.9162   18.7550 C.3     1  UNL1        0.1414
     11 C           7.3456   -4.8218   23.3954 C.ar    1  UNL1        0.1042
     12 C           7.0677   -4.4306   24.8166 C.ar    1  UNL1        0.1181
     13 N           7.6125   -5.2584   25.9427 N.ar    1  UNL1       -0.2384
     14 C           8.4353   -6.4774   25.6475 C.ar    1  UNL1        0.1285
     15 C           8.7132   -6.8686   24.2263 C.ar    1  UNL1        0.1607
     16 F           9.5360   -8.0877   23.9312 F       1  UNL1       -0.2025
     17 C           8.1684   -6.0408   23.1003 C.ar    1  UNL1        0.0520
     18 C           2.9966    1.3263   18.3583 C.ar    1  UNL1        0.1431
     19 C           2.7512    2.7928   18.5560 C.ar    1  UNL1        0.0377
     20 C           3.8430    3.7811   18.2710 C.ar    1  UNL1        0.0134
     21 C           5.1803    3.3028   17.7882 C.ar    1  UNL1        0.0688
     22 C           5.4256    1.8362   17.5905 C.ar    1  UNL1        0.0178
     23 C           4.3338    0.8480   17.8756 C.ar    1  UNL1        0.0881
     24 C           6.2721    4.2911   17.5032 C.1     1  UNL1        0.1004
     25 N           7.3639    5.2793   17.2182 N.1     1  UNL1       -0.1908
     26 O           1.9047    0.3380   18.6434 O.3     1  UNL1       -0.4702
     27 C           0.0858    0.9525   20.3938 C.3     1  UNL1        0.0566
     28 C           1.3430    0.2200   20.0292 C.3     1  UNL1        0.2599
     29 C           2.0384   -0.6306   21.0503 C.3     1  UNL1        0.4340
     30 F           2.7338   -1.4812   22.0715 F       1  UNL1       -0.1664
     31 F           1.8656    0.4543   22.0718 F       1  UNL1       -0.1664
     32 F           2.2113   -1.7155   20.0290 F       1  UNL1       -0.1664
@<TRIPOS>BOND
     1    28    27    1
     2    28    26    1
     3    26    18    1
     4    18    19   ar
     5    19    20   ar
     6    20    21   ar
     7    21    24    1
     8    24    25    3
     9    21    22   ar
    10    22    23   ar
    11    23     1    1
    12     1     2    2
    13     1     3   am
    14     3     4    1
    15     4     5    1
    16     5     6   ar
    17     6     7   ar
    18     7    11    1
    19    11    12   ar
    20    12    13   ar
    21    13    14   ar
    22    14    15   ar
    23    15    16    1
    24    15    17   ar
    25     7     8   ar
    26     8     9   ar
    27     9    10    1
    28    28    29    1
    29    29    30    1
    30    29    31    1
    31    29    32    1
    32    23    18   ar
    33    10     3    1
    34     9     5   ar
    35    17    11   ar
@<TRIPOS>MOLECULE
*****
 32 35 0 0 0
SMALL
GASTEIGER

@<TRIPOS>ATOM
      1 C           4.5642    0.4242   22.5869 C.2     1  UNL1        0.2525
      2 O           5.7808    1.0155   21.9388 O.2     1  UNL1       -0.2698
      3 N           4.5795    0.0938   24.0500 N.am    1  UNL1       -0.2660
      4 C           3.4448   -0.4985   24.8321 C.3     1  UNL1        0.1236
      5 C           3.8963   -0.6607   26.2533 C.ar    1  UNL1        0.0338
      6 C           3.4741   -1.1270   27.6150 C.ar    1  UNL1        0.0991
      7 N           4.6269   -0.9232   28.5529 N.ar    1  UNL1       -0.2271
      8 N           5.7616   -0.3310   27.7707 N.ar    1  UNL1       -0.1680
      9 C           5.3101   -0.1687   26.3496 C.ar    1  UNL1        0.0981
     10 C           5.7324    0.2976   24.9878 C.3     1  UNL1        0.1414
     11 C           4.6423   -1.2537   30.0159 C.ar    1  UNL1        0.1042
     12 C           3.5290   -0.7812   30.9033 C.ar    1  UNL1        0.1181
     13 N           3.5444   -1.1116   32.3664 N.ar    1  UNL1       -0.2384
     14 C           4.6730   -1.9146   32.9421 C.ar    1  UNL1        0.1285
     15 C           5.7863   -2.3871   32.0546 C.ar    1  UNL1        0.1607
     16 F           6.9150   -3.1901   32.6304 F       1  UNL1       -0.2025
     17 C           5.7709   -2.0567   30.5917 C.ar    1  UNL1        0.0520
     18 C           3.2581   -1.0486   20.8913 C.ar    1  UNL1        0.1431
     19 C           2.0260   -1.3093   20.0764 C.ar    1  UNL1        0.0377
     20 C           0.8681   -0.3581   20.1422 C.ar    1  UNL1        0.0134
     21 C           0.9421    0.8539   21.0229 C.ar    1  UNL1        0.0688
     22 C           2.1742    1.1146   21.8378 C.ar    1  UNL1        0.0178
     23 C           3.3322    0.1634   21.7720 C.ar    1  UNL1        0.0881
     24 C          -0.2159    1.8050   21.0886 C.1     1  UNL1        0.1004
     25 N          -1.3739    2.7562   21.1544 N.1     1  UNL1       -0.1908
     26 O           4.4160   -1.9998   20.8256 O.3     1  UNL1       -0.4702
     27 C           5.0812   -2.8123   18.4491 C.3     1  UNL1        0.0566
     28 C           4.4441   -3.0761   19.7812 C.3     1  UNL1        0.2599
     29 C           3.8350   -4.4163   20.0691 C.3     1  UNL1        0.4340
     30 F           3.2259   -5.7565   20.3568 F       1  UNL1       -0.1664
     31 F           3.3095   -4.4790   18.6655 F       1  UNL1       -0.1664
     32 F           4.3605   -4.3538   21.4726 F       1  UNL1       -0.1664
@<TRIPOS>BOND
     1    28    27    1
     2    28    26    1
     3    26    18    1
     4    18    19   ar
     5    19    20   ar
     6    20    21   ar
     7    21    24    1
     8    24    25    3
     9    21    22   ar
    10    22    23   ar
    11    23     1    1
    12     1     2    2
    13     1     3   am
    14     3     4    1
    15     4     5    1
    16     5     6   ar
    17     6     7   ar
    18     7    11    1
    19    11    12   ar
    20    12    13   ar
    21    13    14   ar
    22    14    15   ar
    23    15    16    1
    24    15    17   ar
    25     7     8   ar
    26     8     9   ar
    27     9    10    1
    28    28    29    1
    29    29    30    1
    30    29    31    1
    31    29    32    1
    32    23    18   ar
    33    10     3    1
    34     9     5   ar
    35    17    11   ar
@<TRIPOS>MOLECULE
*****
 32 35 0 0 0
SMALL
GASTEIGER

@<TRIPOS>ATOM
      1 C          -0.9575    4.2039   21.3925 C.2     1  UNL1        0.2525
      2 O          -0.5106    5.6305   21.2694 O.2     1  UNL1       -0.2698
      3 N          -0.0534    3.0935   20.9458 N.am    1  UNL1       -0.2660
      4 C          -0.3617    1.6268   21.0069 C.3     1  UNL1        0.1236
      5 C           0.8190    0.8818   20.4584 C.ar    1  UNL1        0.0338
      6 C           1.3581   -0.4852   20.1572 C.ar    1  UNL1        0.0991
      7 N           2.7293   -0.3239   19.5709 N.ar    1  UNL1       -0.2271
      8 N           3.0377    1.1429   19.5098 N.ar    1  UNL1       -0.1680
      9 C           1.8570    1.8880   20.0583 C.ar    1  UNL1        0.0981
     10 C           1.3178    3.2549   20.3595 C.3     1  UNL1        0.1414
     11 C           3.6334   -1.4342   19.1242 C.ar    1  UNL1        0.1042
     12 C           4.8229   -1.1319   18.2617 C.ar    1  UNL1        0.1181
     13 N           5.7271   -2.2423   17.8149 N.ar    1  UNL1       -0.2384
     14 C           5.4418   -3.6550   18.2307 C.ar    1  UNL1        0.1285
     15 C           4.2523   -3.9573   19.0933 C.ar    1  UNL1        0.1607
     16 F           3.9671   -5.3701   19.5090 F       1  UNL1       -0.2025
     17 C           3.3482   -2.8470   19.5400 C.ar    1  UNL1        0.0520
     18 C          -3.4179    3.4392   21.0579 C.ar    1  UNL1        0.1431
     19 C          -4.7689    3.1230   21.6279 C.ar    1  UNL1        0.0377
     20 C          -5.0106    3.2554   23.1023 C.ar    1  UNL1        0.0134
     21 C          -3.9013    3.7040   24.0069 C.ar    1  UNL1        0.0688
     22 C          -2.5502    4.0202   23.4369 C.ar    1  UNL1        0.0178
     23 C          -2.3085    3.8878   21.9624 C.ar    1  UNL1        0.0881
     24 C          -4.1430    3.8364   25.4813 C.1     1  UNL1        0.1004
     25 N          -4.3847    3.9688   26.9558 N.1     1  UNL1       -0.1908
     26 O          -3.1762    3.3067   19.5834 O.3     1  UNL1       -0.4702
     27 C          -2.6414    5.4435   18.2057 C.3     1  UNL1        0.0566
     28 C          -3.6176    4.3951   18.6503 C.3     1  UNL1        0.2599
     29 C          -5.0353    4.4349   18.1619 C.3     1  UNL1        0.4340
     30 F          -6.4529    4.4747   17.6735 F       1  UNL1       -0.1664
     31 F          -4.7349    3.3244   17.1993 F       1  UNL1       -0.1664
     32 F          -5.3358    5.5454   19.1245 F       1  UNL1       -0.1664
@<TRIPOS>BOND
     1    28    27    1
     2    28    26    1
     3    26    18    1
     4    18    19   ar
     5    19    20   ar
     6    20    21   ar
     7    21    24    1
     8    24    25    3
     9    21    22   ar
    10    22    23   ar
    11    23     1    1
    12     1     2    2
    13     1     3   am
    14     3     4    1
    15     4     5    1
    16     5     6   ar
    17     6     7   ar
    18     7    11    1
    19    11    12   ar
    20    12    13   ar
    21    13    14   ar
    22    14    15   ar
    23    15    16    1
    24    15    17   ar
    25     7     8   ar
    26     8     9   ar
    27     9    10    1
    28    28    29    1
    29    29    30    1
    30    29    31    1
    31    29    32    1
    32    23    18   ar
    33    10     3    1
    34     9     5   ar
    35    17    11   ar
@<TRIPOS>MOLECULE
*****
 32 35 0 0 0
SMALL
GASTEIGER

@<TRIPOS>ATOM
      1 C           6.5939   -1.4247   18.6689 C.2     1  UNL1        0.2525
      2 O           6.8832   -2.1170   17.3701 O.2     1  UNL1       -0.2698
      3 N           6.7460   -2.1660   19.9641 N.am    1  UNL1       -0.2660
      4 C           6.4940   -1.6088   21.3337 C.3     1  UNL1        0.1236
      5 C           6.7691   -2.6930   22.3330 C.ar    1  UNL1        0.0338
      6 C           6.7834   -3.0188   23.7972 C.ar    1  UNL1        0.0991
      7 N           7.2142   -4.4475   23.9501 N.ar    1  UNL1       -0.2271
      8 N           7.4662   -5.0047   22.5803 N.ar    1  UNL1       -0.1680
      9 C           7.1911   -3.9204   21.5810 C.ar    1  UNL1        0.0981
     10 C           7.1768   -3.5947   20.1169 C.3     1  UNL1        0.1414
     11 C           7.3663   -5.1887   25.2451 C.ar    1  UNL1        0.1042
     12 C           7.0541   -4.5037   26.5425 C.ar    1  UNL1        0.1181
     13 N           7.2062   -5.2450   27.8377 N.ar    1  UNL1       -0.2384
     14 C           7.6706   -6.6713   27.8354 C.ar    1  UNL1        0.1285
     15 C           7.9828   -7.3563   26.5379 C.ar    1  UNL1        0.1607
     16 F           8.4472   -8.7827   26.5357 F       1  UNL1       -0.2025
     17 C           7.8307   -6.6151   25.2429 C.ar    1  UNL1        0.0520
     18 C           4.7064    0.3489   18.4633 C.ar    1  UNL1        0.1431
     19 C           4.2650    1.7824   18.4670 C.ar    1  UNL1        0.0377
     20 C           5.2694    2.8759   18.6800 C.ar    1  UNL1        0.0134
     21 C           6.7153    2.5360   18.8893 C.ar    1  UNL1        0.0688
     22 C           7.1567    1.1023   18.8856 C.ar    1  UNL1        0.0178
     23 C           6.1523    0.0088   18.6726 C.ar    1  UNL1        0.0881
     24 C           7.7197    3.6295   19.1024 C.1     1  UNL1        0.1004
     25 N           8.7240    4.7230   19.3154 N.1     1  UNL1       -0.1908
     26 O           3.7021   -0.7447   18.2502 O.3     1  UNL1       -0.4702
     27 C           1.7327   -0.5908   19.9379 C.3     1  UNL1        0.0566
     28 C           2.9447   -1.3052   19.4174 C.3     1  UNL1        0.2599
     29 C           3.3993   -2.5800   20.0639 C.3     1  UNL1        0.4340
     30 F           3.8539   -3.8548   20.7106 F       1  UNL1       -0.1664
     31 F           3.1995   -1.9648   21.4174 F       1  UNL1       -0.1664
     32 F           3.5991   -3.1952   18.7106 F       1  UNL1       -0.1664
@<TRIPOS>BOND
     1    28    27    1
     2    28    26    1
     3    26    18    1
     4    18    19   ar
     5    19    20   ar
     6    20    21   ar
     7    21    24    1
     8    24    25    3
     9    21    22   ar
    10    22    23   ar
    11    23     1    1
    12     1     2    2
    13     1     3   am
    14     3     4    1
    15     4     5    1
    16     5     6   ar
    17     6     7   ar
    18     7    11    1
    19    11    12   ar
    20    12    13   ar
    21    13    14   ar
    22    14    15   ar
    23    15    16    1
    24    15    17   ar
    25     7     8   ar
    26     8     9   ar
    27     9    10    1
    28    28    29    1
    29    29    30    1
    30    29    31    1
    31    29    32    1
    32    23    18   ar
    33    10     3    1
    34     9     5   ar
    35    17    11   ar
@<TRIPOS>MOLECULE
*****
 32 35 0 0 0
SMALL
GASTEIGER

@<TRIPOS>ATOM
      1 C           1.9422    0.0878   19.3476 C.2     1  UNL1        0.2525
      2 O           0.9167    0.5514   18.3559 O.2     1  UNL1       -0.2698
      3 N           1.7446    0.3535   20.8106 N.am    1  UNL1       -0.2660
      4 C           2.6787   -0.0476   21.9135 C.3     1  UNL1        0.1236
      5 C           2.0896    0.4180   23.2120 C.ar    1  UNL1        0.0338
      6 C           2.3028    0.4579   24.6963 C.ar    1  UNL1        0.0991
      7 N           1.1364    1.1712   25.3132 N.ar    1  UNL1       -0.2271
      8 N           0.2022    1.5723   24.2101 N.ar    1  UNL1       -0.1680
      9 C           0.7914    1.1067   22.9116 C.ar    1  UNL1        0.0981
     10 C           0.5781    1.0668   21.4274 C.3     1  UNL1        0.1414
     11 C           0.9388    1.4369   26.7761 C.ar    1  UNL1        0.1042
     12 C           1.9009    2.3193   27.5148 C.ar    1  UNL1        0.1181
     13 N           1.7034    2.5850   28.9779 N.ar    1  UNL1       -0.2384
     14 C           0.5435    1.9684   29.7021 C.ar    1  UNL1        0.1285
     15 C          -0.4187    1.0860   28.9634 C.ar    1  UNL1        0.1607
     16 F          -1.5786    0.4694   29.6877 F       1  UNL1       -0.2025
     17 C          -0.2211    0.8203   27.5005 C.ar    1  UNL1        0.0520
     18 C           4.2581    0.1048   18.1699 C.ar    1  UNL1        0.1431
     19 C           5.4811   -0.6245   17.6987 C.ar    1  UNL1        0.0377
     20 C           5.6115   -2.1003   17.9336 C.ar    1  UNL1        0.0134
     21 C           4.5188   -2.8467   18.6399 C.ar    1  UNL1        0.0688
     22 C           3.2957   -2.1173   19.1112 C.ar    1  UNL1        0.0178
     23 C           3.1653   -0.6415   18.8762 C.ar    1  UNL1        0.0881
     24 C           4.6491   -4.3224   18.8748 C.1     1  UNL1        0.1004
     25 N           4.7795   -5.7982   19.1098 N.1     1  UNL1       -0.1908
     26 O           4.1277    1.5806   17.9350 O.3     1  UNL1       -0.4702
     27 C           5.6127    3.7074   18.0820 C.3     1  UNL1        0.0566
     28 C           4.9399    2.5442   18.7485 C.3     1  UNL1        0.2599
     29 C           5.0792    2.3445   20.2286 C.3     1  UNL1        0.4340
     30 F           5.2185    2.1449   21.7087 F       1  UNL1       -0.1664
     31 F           3.6817    2.8515   20.4286 F       1  UNL1       -0.1664
     32 F           6.4767    1.8375   20.0287 F       1  UNL1       -0.1664
@<TRIPOS>BOND
     1    28    27    1
     2    28    26    1
     3    26    18    1
     4    18    19   ar
     5    19    20   ar
     6    20    21   ar
     7    21    24    1
     8    24    25    3
     9    21    22   ar
    10    22    23   ar
    11    23     1    1
    12     1     2    2
    13     1     3   am
    14     3     4    1
    15     4     5    1
    16     5     6   ar
    17     6     7   ar
    18     7    11    1
    19    11    12   ar
    20    12    13   ar
    21    13    14   ar
    22    14    15   ar
    23    15    16    1
    24    15    17   ar
    25     7     8   ar
    26     8     9   ar
    27     9    10    1
    28    28    29    1
    29    29    30    1
    30    29    31    1
    31    29    32    1
    32    23    18   ar
    33    10     3    1
    34     9     5   ar
    35    17    11   ar
@<TRIPOS>MOLECULE
*****
 32 35 0 0 0
SMALL
GASTEIGER

@<TRIPOS>ATOM
      1 C           3.3195    0.8761   20.7680 C.2     1  UNL1        0.2525
      2 O           3.9456    0.4606   22.0662 O.2     1  UNL1       -0.2698
      3 N           1.9445    1.4755   20.7565 N.am    1  UNL1       -0.2660
      4 C           1.1936    1.9360   19.5423 C.3     1  UNL1        0.1236
      5 C          -0.1359    2.4647   19.9926 C.ar    1  UNL1        0.0338
      6 C          -1.4217    3.0761   19.5204 C.ar    1  UNL1        0.0991
      7 N          -2.2873    3.3203   20.7210 N.ar    1  UNL1       -0.2271
      8 N          -1.5363    2.8598   21.9351 N.ar    1  UNL1       -0.1680
      9 C          -0.2068    2.3310   21.4849 C.ar    1  UNL1        0.0981
     10 C           1.0790    1.7196   21.9570 C.3     1  UNL1        0.1414
     11 C          -3.6622    3.9197   20.7094 C.ar    1  UNL1        0.1042
     12 C          -4.0390    4.9118   19.6494 C.ar    1  UNL1        0.1181
     13 N          -5.4140    5.5113   19.6378 N.ar    1  UNL1       -0.2384
     14 C          -6.4122    5.1186   20.6863 C.ar    1  UNL1        0.1285
     15 C          -6.0354    4.1264   21.7464 C.ar    1  UNL1        0.1607
     16 F          -7.0336    3.7337   22.7950 F       1  UNL1       -0.2025
     17 C          -4.6605    3.5270   21.7580 C.ar    1  UNL1        0.0520
     18 C           4.0312   -0.6302   18.7743 C.ar    1  UNL1        0.1431
     19 C           4.7800   -0.8141   17.4877 C.ar    1  UNL1        0.0377
     20 C           5.5661    0.3244   16.9081 C.ar    1  UNL1        0.0134
     21 C           5.6032    1.6469   17.6151 C.ar    1  UNL1        0.0688
     22 C           4.8543    1.8307   18.9018 C.ar    1  UNL1        0.0178
     23 C           4.0683    0.6922   19.4814 C.ar    1  UNL1        0.0881
     24 C           6.3893    2.7854   17.0355 C.1     1  UNL1        0.1004
     25 N           7.1753    3.9239   16.4559 N.1     1  UNL1       -0.1908
     26 O           3.2451   -1.7687   19.3539 O.3     1  UNL1       -0.4702
     27 C           4.3268   -2.9497   21.3997 C.3     1  UNL1        0.0566
     28 C           3.9585   -2.9481   19.9457 C.3     1  UNL1        0.2599
     29 C           4.3035   -4.1259   19.0833 C.3     1  UNL1        0.4340
     30 F           4.6485   -5.3037   18.2209 F       1  UNL1       -0.1664
     31 F           5.7563   -3.7623   19.1679 F       1  UNL1       -0.1664
     32 F           2.8507   -4.4896   18.9987 F       1  UNL1       -0.1664
@<TRIPOS>BOND
     1    28    27    1
     2    28    26    1
     3    26    18    1
     4    18    19   ar
     5    19    20   ar
     6    20    21   ar
     7    21    24    1
     8    24    25    3
     9    21    22   ar
    10    22    23   ar
    11    23     1    1
    12     1     2    2
    13     1     3   am
    14     3     4    1
    15     4     5    1
    16     5     6   ar
    17     6     7   ar
    18     7    11    1
    19    11    12   ar
    20    12    13   ar
    21    13    14   ar
    22    14    15   ar
    23    15    16    1
    24    15    17   ar
    25     7     8   ar
    26     8     9   ar
    27     9    10    1
    28    28    29    1
    29    29    30    1
    30    29    31    1
    31    29    32    1
    32    23    18   ar
    33    10     3    1
    34     9     5   ar
    35    17    11   ar
@<TRIPOS>MOLECULE
*****
 32 35 0 0 0
SMALL
GASTEIGER

@<TRIPOS>ATOM
      1 C           1.3012    2.6921   25.6545 C.2     1  UNL1        0.2525
      2 O           1.2829    4.1917   25.6252 O.2     1  UNL1       -0.2698
      3 N           1.9664    1.9284   24.5480 N.am    1  UNL1       -0.2660
      4 C           2.0638    0.4353   24.4419 C.3     1  UNL1        0.1236
      5 C           2.8086    0.1079   23.1817 C.ar    1  UNL1        0.0338
      6 C           3.3291   -1.0173   22.3373 C.ar    1  UNL1        0.0991
      7 N           4.0139   -0.4221   21.1427 N.ar    1  UNL1       -0.2271
      8 N           3.9165    1.0711   21.2490 N.ar    1  UNL1       -0.1680
      9 C           3.1716    1.3985   22.5091 C.ar    1  UNL1        0.0981
     10 C           2.6511    2.5237   23.3535 C.3     1  UNL1        0.1414
     11 C           4.6791   -1.1857   20.0364 C.ar    1  UNL1        0.1042
     12 C           5.7193   -0.5197   19.1853 C.ar    1  UNL1        0.1181
     13 N           6.3846   -1.2834   18.0788 N.ar    1  UNL1       -0.2384
     14 C           6.0096   -2.7131   17.8234 C.ar    1  UNL1        0.1285
     15 C           4.9693   -3.3792   18.6746 C.ar    1  UNL1        0.1607
     16 F           4.5944   -4.8090   18.4191 F       1  UNL1       -0.2025
     17 C           4.3041   -2.6155   19.7809 C.ar    1  UNL1        0.0520
     18 C          -0.8412    1.9110   26.8997 C.ar    1  UNL1        0.1431
     19 C          -1.4881    1.1751   28.0354 C.ar    1  UNL1        0.0377
     20 C          -0.6397    0.4844   29.0617 C.ar    1  UNL1        0.0134
     21 C           0.8556    0.5296   28.9523 C.ar    1  UNL1        0.0688
     22 C           1.5025    1.2655   27.8165 C.ar    1  UNL1        0.0178
     23 C           0.6542    1.9562   26.7902 C.ar    1  UNL1        0.0881
     24 C           1.7039   -0.1611   29.9786 C.1     1  UNL1        0.1004
     25 N           2.5523   -0.8518   31.0048 N.1     1  UNL1       -0.1908
     26 O          -1.6895    2.6017   25.8734 O.3     1  UNL1       -0.4702
     27 C          -1.8788    4.9370   26.9961 C.3     1  UNL1        0.0566
     28 C          -2.5132    3.7940   26.2606 C.3     1  UNL1        0.2599
     29 C          -3.9713    3.8433   25.9121 C.3     1  UNL1        0.4340
     30 F          -5.4294    3.8925   25.5635 F       1  UNL1       -0.1664
     31 F          -3.6228    3.8385   24.4531 F       1  UNL1       -0.1664
     32 F          -4.3199    3.8480   27.3710 F       1  UNL1       -0.1664
@<TRIPOS>BOND
     1    28    27    1
     2    28    26    1
     3    26    18    1
     4    18    19   ar
     5    19    20   ar
     6    20    21   ar
     7    21    24    1
     8    24    25    3
     9    21    22   ar
    10    22    23   ar
    11    23     1    1
    12     1     2    2
    13     1     3   am
    14     3     4    1
    15     4     5    1
    16     5     6   ar
    17     6     7   ar
    18     7    11    1
    19    11    12   ar
    20    12    13   ar
    21    13    14   ar
    22    14    15   ar
    23    15    16    1
    24    15    17   ar
    25     7     8   ar
    26     8     9   ar
    27     9    10    1
    28    28    29    1
    29    29    30    1
    30    29    31    1
    31    29    32    1
    32    23    18   ar
    33    10     3    1
    34     9     5   ar
    35    17    11   ar
@<TRIPOS>MOLECULE
*****
 32 35 0 0 0
SMALL
GASTEIGER

@<TRIPOS>ATOM
      1 C           4.7590   -1.9822   32.3221 C.2     1  UNL1        0.2525
      2 O           3.9403   -2.2369   33.5529 O.2     1  UNL1       -0.2698
      3 N           4.1280   -1.3429   31.1207 N.am    1  UNL1       -0.2660
      4 C           4.8167   -1.0278   29.8259 C.3     1  UNL1        0.1236
      5 C           3.8119   -0.3967   28.9082 C.ar    1  UNL1        0.0338
      6 C           3.6165    0.1881   27.5408 C.ar    1  UNL1        0.0991
      7 N           2.1862    0.6244   27.4232 N.ar    1  UNL1       -0.2271
      8 N           1.4975    0.3093   28.7181 N.ar    1  UNL1       -0.1680
      9 C           2.5023   -0.3218   29.6358 C.ar    1  UNL1        0.0981
     10 C           2.6977   -0.9066   31.0032 C.3     1  UNL1        0.1414
     11 C           1.5552    1.2636   26.2219 C.ar    1  UNL1        0.1042
     12 C           2.3744    1.5206   24.9920 C.ar    1  UNL1        0.1181
     13 N           1.7435    2.1598   23.7905 N.ar    1  UNL1       -0.2384
     14 C           0.2933    2.5421   23.8191 C.ar    1  UNL1        0.1285
     15 C          -0.5259    2.2851   25.0492 C.ar    1  UNL1        0.1607
     16 F          -1.9762    2.6673   25.0777 F       1  UNL1       -0.2025
     17 C           0.1050    1.6459   26.2505 C.ar    1  UNL1        0.0520
     18 C           7.2372   -1.4614   32.9029 C.ar    1  UNL1        0.1431
     19 C           8.6868   -1.8459   32.8735 C.ar    1  UNL1        0.0377
     20 C           9.1077   -3.1357   32.2338 C.ar    1  UNL1        0.0134
     21 C           8.0792   -4.0410   31.6235 C.ar    1  UNL1        0.0688
     22 C           6.6295   -3.6564   31.6530 C.ar    1  UNL1        0.0178
     23 C           6.2085   -2.3666   32.2927 C.ar    1  UNL1        0.0881
     24 C           8.5001   -5.3308   30.9838 C.1     1  UNL1        0.1004
     25 N           8.9211   -6.6205   30.3441 N.1     1  UNL1       -0.1908
     26 O           6.8162   -0.1716   33.5427 O.3     1  UNL1       -0.4702
     27 C           8.2003    0.3056   35.6890 C.3     1  UNL1        0.0566
     28 C           6.8900   -0.0142   35.0326 C.3     1  UNL1        0.2599
     29 C           5.6535   -0.1767   35.8659 C.3     1  UNL1        0.4340
     30 F           4.4170   -0.3393   36.6994 F       1  UNL1       -0.1664
     31 F           6.4825   -0.7264   36.9888 F       1  UNL1       -0.1664
     32 F           4.8244    0.3729   34.7432 F       1  UNL1       -0.1664
@<TRIPOS>BOND
     1    28    27    1
     2    28    26    1
     3    26    18    1
     4    18    19   ar
     5    19    20   ar
     6    20    21   ar
     7    21    24    1
     8    24    25    3
     9    21    22   ar
    10    22    23   ar
    11    23     1    1
    12     1     2    2
    13     1     3   am
    14     3     4    1
    15     4     5    1
    16     5     6   ar
    17     6     7   ar
    18     7    11    1
    19    11    12   ar
    20    12    13   ar
    21    13    14   ar
    22    14    15   ar
    23    15    16    1
    24    15    17   ar
    25     7     8   ar
    26     8     9   ar
    27     9    10    1
    28    28    29    1
    29    29    30    1
    30    29    31    1
    31    29    32    1
    32    23    18   ar
    33    10     3    1
    34     9     5   ar
    35    17    11   ar
