@<TRIPOS>MOLECULE
*****
 35 40 0 0 0
SMALL
GASTEIGER

@<TRIPOS>ATOM
      1 N         -11.8673  -17.4424   23.4269 N.3     1  UNL1       -0.1568
      2 C         -12.8557  -17.5228   24.5523 C.3     1  UNL1        0.0958
      3 C         -14.0965  -18.1868   24.0330 C.3     1  UNL1        0.0206
      4 C         -13.8749  -18.5168   22.5867 C.3     1  UNL1        0.0192
      5 C         -12.4972  -18.0568   22.2121 C.3     1  UNL1        0.0810
      6 O         -10.9984  -15.5879   22.8741 O.2     1  UNL1       -0.1527
      7 S         -10.4907  -16.8515   23.5030 S.O2    1  UNL1        0.0647
      8 O          -9.9830  -18.1151   24.1318 O.2     1  UNL1       -0.1527
      9 C          -9.1141  -16.2606   23.5791 C.ar    1  UNL1        0.1412
     10 C          -8.4362  -15.7756   22.3320 C.ar    1  UNL1        0.1187
     11 N          -7.0596  -15.1846   22.4081 N.ar    1  UNL1       -0.2409
     12 C          -6.3609  -15.0787   23.7312 C.ar    1  UNL1        0.0989
     13 C          -7.0389  -15.5637   24.9783 C.ar    1  UNL1        0.0205
     14 C          -6.3402  -15.4578   26.3014 C.ar    1  UNL1        0.0016
     15 C          -7.0182  -15.9428   27.5484 C.ar    1  UNL1        0.0001
     16 C          -8.3947  -16.5337   27.4724 C.ar    1  UNL1        0.0000
     17 C          -9.0934  -16.6397   26.1493 C.ar    1  UNL1        0.0014
     18 C          -8.4155  -16.1547   24.9022 C.ar    1  UNL1        0.0217
     19 C         -11.8611  -18.1880   20.8600 C.3     1  UNL1        0.0350
     20 C         -11.1358  -19.4482   20.4914 C.3     1  UNL1        0.0736
     21 N          -9.6393  -19.5041   20.5747 N.3     1  UNL1       -0.2697
     22 C          -8.8138  -19.3900   19.3274 C.3     1  UNL1        0.0938
     23 C          -7.3172  -19.4458   19.4108 C.3     1  UNL1        0.1081
     24 N          -6.6460  -19.6158   20.7414 N.pl3   1  UNL1       -0.3046
     25 C          -7.4714  -19.7299   21.9887 C.3     1  UNL1        0.1081
     26 C          -8.9679  -19.6740   21.9053 C.3     1  UNL1        0.0938
     27 C          -5.1493  -19.6716   20.8247 C.ar    1  UNL1        0.0484
     28 C          -4.3742  -20.5049   19.8475 C.ar    1  UNL1        0.0146
     29 C          -2.8777  -20.5607   19.9308 C.ar    1  UNL1        0.0018
     30 C          -2.1560  -19.7832   20.9914 C.ar    1  UNL1        0.0066
     31 C          -2.9310  -18.9499   21.9686 C.ar    1  UNL1        0.0307
     32 S          -2.4978  -18.0827   23.1132 S.2     1  UNL1       -0.0864
     33 C          -3.7268  -17.4909   23.7374 C.ar    1  UNL1        0.0355
     34 C          -4.9195  -17.9924   22.9784 C.ar    1  UNL1        0.0087
     35 C          -4.4277  -18.8941   21.8852 C.ar    1  UNL1        0.0198
@<TRIPOS>BOND
     1     6     7    2
     2     7     8    2
     3     7     9    1
     4     9    10   ar
     5    10    11   ar
     6    11    12   ar
     7    12    13   ar
     8    13    14   ar
     9    14    15   ar
    10    15    16   ar
    11    16    17   ar
    12    17    18   ar
    13     7     1    1
    14     1     2    1
    15     2     3    1
    16     3     4    1
    17     4     5    1
    18     5    19    1
    19    19    20    1
    20    20    21    1
    21    21    22    1
    22    22    23    1
    23    23    24    1
    24    24    27    1
    25    27    28   ar
    26    28    29   ar
    27    29    30   ar
    28    30    31   ar
    29    31    32   ar
    30    32    33   ar
    31    33    34   ar
    32    34    35   ar
    33    24    25    1
    34    25    26    1
    35    18     9   ar
    36     5     1    1
    37    26    21    1
    38    18    13   ar
    39    35    27   ar
    40    35    31   ar
@<TRIPOS>MOLECULE
*****
 35 40 0 0 0
SMALL
GASTEIGER

@<TRIPOS>ATOM
      1 N         -10.3969  -16.2619   21.5054 N.3     1  UNL1       -0.1568
      2 C         -10.0138  -15.1303   20.5984 C.3     1  UNL1        0.0958
      3 C         -10.7977  -15.2694   19.3271 C.3     1  UNL1        0.0206
      4 C         -11.6653  -16.4870   19.4484 C.3     1  UNL1        0.0192
      5 C         -11.4175  -17.1004   20.7946 C.3     1  UNL1        0.0810
      6 O         -11.1874  -16.1565   23.4711 O.2     1  UNL1       -0.1527
      7 S          -9.8545  -16.5113   22.8815 S.O2    1  UNL1        0.0647
      8 O          -8.5217  -16.8661   22.2919 O.2     1  UNL1       -0.1527
      9 C          -9.3122  -16.7607   24.2576 C.ar    1  UNL1        0.1412
     10 C         -10.0554  -17.6538   25.2062 C.ar    1  UNL1        0.1187
     11 N          -9.5131  -17.9032   26.5823 N.ar    1  UNL1       -0.2409
     12 C          -8.2276  -17.2594   27.0098 C.ar    1  UNL1        0.0989
     13 C          -7.4842  -16.3662   26.0612 C.ar    1  UNL1        0.0205
     14 C          -6.1987  -15.7224   26.4888 C.ar    1  UNL1        0.0016
     15 C          -5.4555  -14.8293   25.5402 C.ar    1  UNL1        0.0001
     16 C          -5.9978  -14.5799   24.1641 C.ar    1  UNL1        0.0000
     17 C          -7.2834  -15.2237   23.7366 C.ar    1  UNL1        0.0014
     18 C          -8.0266  -16.1168   24.6851 C.ar    1  UNL1        0.0217
     19 C         -12.0751  -18.3355   21.3352 C.3     1  UNL1        0.0350
     20 C         -11.3537  -19.6499   21.2911 C.3     1  UNL1        0.0736
     21 N          -9.8560  -19.6814   21.2174 N.3     1  UNL1       -0.2697
     22 C          -9.1623  -19.3810   19.9218 C.3     1  UNL1        0.0938
     23 C          -7.6644  -19.4125   19.8481 C.3     1  UNL1        0.1081
     24 N          -6.8602  -19.7444   21.0700 N.pl3   1  UNL1       -0.3046
     25 C          -7.5539  -20.0448   22.3656 C.3     1  UNL1        0.1081
     26 C          -9.0517  -20.0133   22.4393 C.3     1  UNL1        0.0938
     27 C          -5.3623  -19.7758   20.9962 C.ar    1  UNL1        0.0484
     28 C          -4.6790  -20.6637   19.9989 C.ar    1  UNL1        0.0146
     29 C          -3.1812  -20.6951   19.9252 C.ar    1  UNL1        0.0018
     30 C          -2.3666  -19.8387   20.8489 C.ar    1  UNL1        0.0066
     31 C          -3.0500  -18.9508   21.8462 C.ar    1  UNL1        0.0307
     32 S          -2.5151  -18.0027   22.8781 S.2     1  UNL1       -0.0864
     33 C          -3.6824  -17.3852   23.5897 C.ar    1  UNL1        0.0355
     34 C          -4.9387  -17.9518   22.9974 C.ar    1  UNL1        0.0087
     35 C          -4.5479  -18.9194   21.9199 C.ar    1  UNL1        0.0198
@<TRIPOS>BOND
     1     6     7    2
     2     7     8    2
     3     7     9    1
     4     9    10   ar
     5    10    11   ar
     6    11    12   ar
     7    12    13   ar
     8    13    14   ar
     9    14    15   ar
    10    15    16   ar
    11    16    17   ar
    12    17    18   ar
    13     7     1    1
    14     1     2    1
    15     2     3    1
    16     3     4    1
    17     4     5    1
    18     5    19    1
    19    19    20    1
    20    20    21    1
    21    21    22    1
    22    22    23    1
    23    23    24    1
    24    24    27    1
    25    27    28   ar
    26    28    29   ar
    27    29    30   ar
    28    30    31   ar
    29    31    32   ar
    30    32    33   ar
    31    33    34   ar
    32    34    35   ar
    33    24    25    1
    34    25    26    1
    35    18     9   ar
    36     5     1    1
    37    26    21    1
    38    18    13   ar
    39    35    27   ar
    40    35    31   ar
@<TRIPOS>MOLECULE
*****
 35 40 0 0 0
SMALL
GASTEIGER

@<TRIPOS>ATOM
      1 N          -3.9255    4.0078   19.7973 N.3     1  UNL1       -0.1568
      2 C          -5.0313    4.1346   18.7918 C.3     1  UNL1        0.0958
      3 C          -4.4191    4.1016   17.4228 C.3     1  UNL1        0.0206
      4 C          -2.9349    3.9544   17.5822 C.3     1  UNL1        0.0192
      5 C          -2.6298    3.8964   19.0497 C.3     1  UNL1        0.0810
      6 O          -3.7957    5.4653   21.3331 O.2     1  UNL1       -0.1527
      7 S          -4.0870    3.9946   21.2885 S.O2    1  UNL1        0.0647
      8 O          -4.3784    2.5238   21.2440 O.2     1  UNL1       -0.1527
      9 C          -4.2485    3.9814   22.7797 C.ar    1  UNL1        0.1412
     10 C          -5.5706    4.3345   23.3941 C.ar    1  UNL1        0.1187
     11 N          -5.7321    4.3213   24.8853 N.ar    1  UNL1       -0.2409
     12 C          -4.5715    3.9551   25.7622 C.ar    1  UNL1        0.0989
     13 C          -3.2494    3.6020   25.1478 C.ar    1  UNL1        0.0205
     14 C          -2.0888    3.2358   26.0247 C.ar    1  UNL1        0.0016
     15 C          -0.7668    2.8827   25.4104 C.ar    1  UNL1        0.0001
     16 C          -0.6053    2.8959   23.9191 C.ar    1  UNL1        0.0000
     17 C          -1.7658    3.2621   23.0423 C.ar    1  UNL1        0.0014
     18 C          -3.0879    3.6152   23.6566 C.ar    1  UNL1        0.0217
     19 C          -1.2682    3.7524   19.6622 C.3     1  UNL1        0.0350
     20 C          -0.1062    3.3246   18.8154 C.3     1  UNL1        0.0736
     21 N           0.6814    2.1027   19.1848 N.3     1  UNL1       -0.2697
     22 C           0.0845    1.0733   20.0980 C.3     1  UNL1        0.0938
     23 C           0.8722   -0.1486   20.4674 C.3     1  UNL1        0.1081
     24 N           2.2567   -0.3412   19.9234 N.pl3   1  UNL1       -0.3046
     25 C           2.8536    0.6882   19.0101 C.3     1  UNL1        0.1081
     26 C           2.0660    1.9101   18.6408 C.3     1  UNL1        0.0938
     27 C           3.0444   -1.5632   20.2928 C.ar    1  UNL1        0.0484
     28 C           3.2719   -2.6441   19.2780 C.ar    1  UNL1        0.0146
     29 C           4.0595   -3.8659   19.6474 C.ar    1  UNL1        0.0018
     30 C           4.6196   -4.0071   21.0318 C.ar    1  UNL1        0.0066
     31 C           4.3921   -2.9262   22.0466 C.ar    1  UNL1        0.0307
     32 S           4.8181   -2.7879   23.4782 S.2     1  UNL1       -0.0864
     33 C           4.2937   -1.4803   23.9936 C.ar    1  UNL1        0.0355
     34 C           3.5437   -0.8107   22.8804 C.ar    1  UNL1        0.0087
     35 C           3.6044   -1.7043   21.6772 C.ar    1  UNL1        0.0198
@<TRIPOS>BOND
     1     6     7    2
     2     7     8    2
     3     7     9    1
     4     9    10   ar
     5    10    11   ar
     6    11    12   ar
     7    12    13   ar
     8    13    14   ar
     9    14    15   ar
    10    15    16   ar
    11    16    17   ar
    12    17    18   ar
    13     7     1    1
    14     1     2    1
    15     2     3    1
    16     3     4    1
    17     4     5    1
    18     5    19    1
    19    19    20    1
    20    20    21    1
    21    21    22    1
    22    22    23    1
    23    23    24    1
    24    24    27    1
    25    27    28   ar
    26    28    29   ar
    27    29    30   ar
    28    30    31   ar
    29    31    32   ar
    30    32    33   ar
    31    33    34   ar
    32    34    35   ar
    33    24    25    1
    34    25    26    1
    35    18     9   ar
    36     5     1    1
    37    26    21    1
    38    18    13   ar
    39    35    27   ar
    40    35    31   ar
@<TRIPOS>MOLECULE
*****
 35 40 0 0 0
SMALL
GASTEIGER

@<TRIPOS>ATOM
      1 N          -3.0137  -17.1728   22.2217 N.3     1  UNL1       -0.1568
      2 C          -2.0603  -16.2227   21.5597 C.3     1  UNL1        0.0958
      3 C          -1.2845  -16.9876   20.5287 C.3     1  UNL1        0.0206
      4 C          -1.7585  -18.4105   20.5534 C.3     1  UNL1        0.0192
      5 C          -2.8272  -18.5250   21.5997 C.3     1  UNL1        0.0810
      6 O          -4.0319  -15.4129   22.8268 O.2     1  UNL1       -0.1527
      7 S          -3.9835  -16.8308   23.3138 S.O2    1  UNL1        0.0647
      8 O          -3.9350  -18.2487   23.8008 O.2     1  UNL1       -0.1527
      9 C          -4.9532  -16.4888   24.4059 C.ar    1  UNL1        0.1412
     10 C          -4.4922  -16.4485   25.8327 C.ar    1  UNL1        0.1187
     11 N          -5.4619  -16.1065   26.9248 N.ar    1  UNL1       -0.2409
     12 C          -6.8926  -15.8049   26.5901 C.ar    1  UNL1        0.0989
     13 C          -7.3536  -15.8452   25.1633 C.ar    1  UNL1        0.0205
     14 C          -8.7843  -15.5436   24.8286 C.ar    1  UNL1        0.0016
     15 C          -9.2453  -15.5840   23.4018 C.ar    1  UNL1        0.0001
     16 C          -8.2756  -15.9260   22.3097 C.ar    1  UNL1        0.0000
     17 C          -6.8449  -16.2276   22.6444 C.ar    1  UNL1        0.0014
     18 C          -6.3839  -16.1872   24.0712 C.ar    1  UNL1        0.0217
     19 C          -3.5776  -19.7726   21.9607 C.3     1  UNL1        0.0350
     20 C          -4.6137  -20.3219   21.0254 C.3     1  UNL1        0.0736
     21 N          -6.0346  -19.8508   21.1197 N.3     1  UNL1       -0.2697
     22 C          -6.7750  -19.9565   22.4199 C.3     1  UNL1        0.0938
     23 C          -8.1960  -19.4853   22.5142 C.3     1  UNL1        0.1081
     24 N          -8.8765  -18.9085   21.3084 N.pl3   1  UNL1       -0.3046
     25 C          -8.1360  -18.8027   20.0082 C.3     1  UNL1        0.1081
     26 C          -6.7151  -19.2739   19.9139 C.3     1  UNL1        0.0938
     27 C         -10.2975  -18.4373   21.4028 C.ar    1  UNL1        0.0484
     28 C         -10.9645  -17.8216   20.2086 C.ar    1  UNL1        0.0146
     29 C         -12.3853  -17.3505   20.3031 C.ar    1  UNL1        0.0018
     30 C         -13.1394  -17.4951   21.5918 C.ar    1  UNL1        0.0066
     31 C         -12.4724  -18.1108   22.7859 C.ar    1  UNL1        0.0307
     32 S         -12.9593  -18.3827   24.1784 S.2     1  UNL1       -0.0864
     33 C         -11.8392  -19.0219   24.9446 C.ar    1  UNL1        0.0355
     34 C         -10.6601  -19.1450   24.0255 C.ar    1  UNL1        0.0087
     35 C         -11.0514  -18.5819   22.6914 C.ar    1  UNL1        0.0198
@<TRIPOS>BOND
     1     6     7    2
     2     7     8    2
     3     7     9    1
     4     9    10   ar
     5    10    11   ar
     6    11    12   ar
     7    12    13   ar
     8    13    14   ar
     9    14    15   ar
    10    15    16   ar
    11    16    17   ar
    12    17    18   ar
    13     7     1    1
    14     1     2    1
    15     2     3    1
    16     3     4    1
    17     4     5    1
    18     5    19    1
    19    19    20    1
    20    20    21    1
    21    21    22    1
    22    22    23    1
    23    23    24    1
    24    24    27    1
    25    27    28   ar
    26    28    29   ar
    27    29    30   ar
    28    30    31   ar
    29    31    32   ar
    30    32    33   ar
    31    33    34   ar
    32    34    35   ar
    33    24    25    1
    34    25    26    1
    35    18     9   ar
    36     5     1    1
    37    26    21    1
    38    18    13   ar
    39    35    27   ar
    40    35    31   ar
@<TRIPOS>MOLECULE
*****
 35 40 0 0 0
SMALL
GASTEIGER

@<TRIPOS>ATOM
      1 N          -3.4775    4.0692   19.5648 N.3     1  UNL1       -0.1568
      2 C          -3.8412    4.2737   18.1240 C.3     1  UNL1        0.0958
      3 C          -2.6152    4.0243   17.2965 C.3     1  UNL1        0.0206
      4 C          -1.4937    3.6657   18.2258 C.3     1  UNL1        0.0192
      5 C          -2.0267    3.6934   19.6277 C.3     1  UNL1        0.0810
      6 O          -4.1981    5.7007   20.7132 O.2     1  UNL1       -0.1527
      7 S          -4.4022    4.2148   20.7369 S.O2    1  UNL1        0.0647
      8 O          -4.6062    2.7289   20.7605 O.2     1  UNL1       -0.1527
      9 C          -5.3269    4.3605   21.9089 C.ar    1  UNL1        0.1412
     10 C          -6.7816    4.6496   21.6851 C.ar    1  UNL1        0.1187
     11 N          -7.7063    4.7953   22.8572 N.ar    1  UNL1       -0.2409
     12 C          -7.1763    4.6518   24.2530 C.ar    1  UNL1        0.0989
     13 C          -5.7215    4.3626   24.4769 C.ar    1  UNL1        0.0205
     14 C          -5.1914    4.2190   25.8727 C.ar    1  UNL1        0.0016
     15 C          -3.7367    3.9299   26.0965 C.ar    1  UNL1        0.0001
     16 C          -2.8120    3.7842   24.9244 C.ar    1  UNL1        0.0000
     17 C          -3.3420    3.9277   23.5286 C.ar    1  UNL1        0.0014
     18 C          -4.7968    4.2169   23.3048 C.ar    1  UNL1        0.0217
     19 C          -1.2458    3.3973   20.8737 C.3     1  UNL1        0.0350
     20 C           0.2527    3.4601   20.8526 C.3     1  UNL1        0.0736
     21 N           1.0546    2.1990   20.7247 N.3     1  UNL1       -0.2697
     22 C           0.3619    0.8916   20.4779 C.3     1  UNL1        0.0938
     23 C           1.1639   -0.3696   20.3500 C.3     1  UNL1        0.1081
     24 N           2.6584   -0.3234   20.4689 N.pl3   1  UNL1       -0.3046
     25 C           3.3511    0.9840   20.7156 C.3     1  UNL1        0.1081
     26 C           2.5492    2.2452   20.8435 C.3     1  UNL1        0.0938
     27 C           3.4603   -1.5846   20.3409 C.ar    1  UNL1        0.0484
     28 C           3.6171   -2.2412   19.0014 C.ar    1  UNL1        0.0146
     29 C           4.4189   -3.5023   18.8736 C.ar    1  UNL1        0.0018
     30 C           5.0640   -4.1071   20.0853 C.ar    1  UNL1        0.0066
     31 C           4.9072   -3.4506   21.4248 C.ar    1  UNL1        0.0307
     32 S           5.4231   -3.8119   22.7862 S.2     1  UNL1       -0.0864
     33 C           4.9401   -2.7739   23.7554 C.ar    1  UNL1        0.0355
     34 C           4.1257   -1.7711   22.9930 C.ar    1  UNL1        0.0087
     35 C           4.1053   -2.1893   21.5526 C.ar    1  UNL1        0.0198
@<TRIPOS>BOND
     1     6     7    2
     2     7     8    2
     3     7     9    1
     4     9    10   ar
     5    10    11   ar
     6    11    12   ar
     7    12    13   ar
     8    13    14   ar
     9    14    15   ar
    10    15    16   ar
    11    16    17   ar
    12    17    18   ar
    13     7     1    1
    14     1     2    1
    15     2     3    1
    16     3     4    1
    17     4     5    1
    18     5    19    1
    19    19    20    1
    20    20    21    1
    21    21    22    1
    22    22    23    1
    23    23    24    1
    24    24    27    1
    25    27    28   ar
    26    28    29   ar
    27    29    30   ar
    28    30    31   ar
    29    31    32   ar
    30    32    33   ar
    31    33    34   ar
    32    34    35   ar
    33    24    25    1
    34    25    26    1
    35    18     9   ar
    36     5     1    1
    37    26    21    1
    38    18    13   ar
    39    35    27   ar
    40    35    31   ar
@<TRIPOS>MOLECULE
*****
 35 40 0 0 0
SMALL
GASTEIGER

@<TRIPOS>ATOM
      1 N           4.2467   -2.1201   18.7132 N.3     1  UNL1       -0.1568
      2 C           3.0127   -2.9112   19.0317 C.3     1  UNL1        0.0958
      3 C           3.3987   -4.3581   19.1167 C.3     1  UNL1        0.0206
      4 C           4.8714   -4.4614   18.8507 C.3     1  UNL1        0.0192
      5 C           5.3954   -3.0782   18.6014 C.3     1  UNL1        0.0810
      6 O           4.0862   -0.7948   17.0646 O.2     1  UNL1       -0.1527
      7 S           4.3193   -0.6322   18.5374 S.O2    1  UNL1        0.0647
      8 O           4.5523   -0.4696   20.0103 O.2     1  UNL1       -0.1527
      9 C           4.3918    0.8557   18.3617 C.ar    1  UNL1        0.1412
     10 C           5.7203    1.5237   18.1644 C.ar    1  UNL1        0.1187
     11 N           5.7928    3.0116   17.9887 N.ar    1  UNL1       -0.2409
     12 C           4.5370    3.8315   18.0101 C.ar    1  UNL1        0.0989
     13 C           3.2084    3.1635   18.2074 C.ar    1  UNL1        0.0205
     14 C           1.9525    3.9834   18.2288 C.ar    1  UNL1        0.0016
     15 C           0.6241    3.3154   18.4261 C.ar    1  UNL1        0.0001
     16 C           0.5515    1.8275   18.6018 C.ar    1  UNL1        0.0000
     17 C           1.8074    1.0076   18.5804 C.ar    1  UNL1        0.0014
     18 C           3.1359    1.6756   18.3831 C.ar    1  UNL1        0.0217
     19 C           6.8184   -2.7166   18.2942 C.3     1  UNL1        0.0350
     20 C           7.7699   -2.4012   19.4100 C.3     1  UNL1        0.0736
     21 N           7.7525   -3.2221   20.6652 N.3     1  UNL1       -0.2697
     22 C           6.6720   -3.0117   21.6841 C.3     1  UNL1        0.0938
     23 C           6.6546   -3.8327   22.9393 C.3     1  UNL1        0.1081
     24 N           7.7178   -4.8641   23.1757 N.pl3   1  UNL1       -0.3046
     25 C           8.7983   -5.0745   22.1568 C.3     1  UNL1        0.1081
     26 C           8.8157   -4.2536   20.9016 C.3     1  UNL1        0.0938
     27 C           7.7003   -5.6851   24.4310 C.ar    1  UNL1        0.0484
     28 C           8.1480   -7.1163   24.3975 C.ar    1  UNL1        0.0146
     29 C           8.1305   -7.9372   25.6528 C.ar    1  UNL1        0.0018
     30 C           7.6653   -7.3269   26.9417 C.ar    1  UNL1        0.0066
     31 C           7.2176   -5.8957   26.9752 C.ar    1  UNL1        0.0307
     32 S           6.7109   -5.0284   28.0892 S.2     1  UNL1       -0.0864
     33 C           6.4152   -3.6714   27.5224 C.ar    1  UNL1        0.0355
     34 C           6.7392   -3.7001   26.0580 C.ar    1  UNL1        0.0087
     35 C           7.2351   -5.0748   25.7198 C.ar    1  UNL1        0.0198
@<TRIPOS>BOND
     1     6     7    2
     2     7     8    2
     3     7     9    1
     4     9    10   ar
     5    10    11   ar
     6    11    12   ar
     7    12    13   ar
     8    13    14   ar
     9    14    15   ar
    10    15    16   ar
    11    16    17   ar
    12    17    18   ar
    13     7     1    1
    14     1     2    1
    15     2     3    1
    16     3     4    1
    17     4     5    1
    18     5    19    1
    19    19    20    1
    20    20    21    1
    21    21    22    1
    22    22    23    1
    23    23    24    1
    24    24    27    1
    25    27    28   ar
    26    28    29   ar
    27    29    30   ar
    28    30    31   ar
    29    31    32   ar
    30    32    33   ar
    31    33    34   ar
    32    34    35   ar
    33    24    25    1
    34    25    26    1
    35    18     9   ar
    36     5     1    1
    37    26    21    1
    38    18    13   ar
    39    35    27   ar
    40    35    31   ar
@<TRIPOS>MOLECULE
*****
 35 40 0 0 0
SMALL
GASTEIGER

@<TRIPOS>ATOM
      1 N          -4.1320    3.9728   20.5582 N.3     1  UNL1       -0.1568
      2 C          -5.2963    4.0153   19.6134 C.3     1  UNL1        0.0958
      3 C          -4.7608    3.9435   18.2141 C.3     1  UNL1        0.0206
      4 C          -3.2654    3.8566   18.2941 C.3     1  UNL1        0.0192
      5 C          -2.8769    3.8747   19.7428 C.3     1  UNL1        0.0810
      6 O          -3.8387    5.4733   22.0287 O.2     1  UNL1       -0.1527
      7 S          -4.2093    4.0200   22.0554 S.O2    1  UNL1        0.0647
      8 O          -4.5800    2.5668   22.0822 O.2     1  UNL1       -0.1527
      9 C          -4.2866    4.0673   23.5527 C.ar    1  UNL1        0.1412
     10 C          -5.5576    4.4947   24.2250 C.ar    1  UNL1        0.1187
     11 N          -5.6348    4.5420   25.7222 N.ar    1  UNL1       -0.2409
     12 C          -4.4412    4.1618   26.5472 C.ar    1  UNL1        0.0989
     13 C          -3.1702    3.7344   25.8750 C.ar    1  UNL1        0.0205
     14 C          -1.9766    3.3542   26.6999 C.ar    1  UNL1        0.0016
     15 C          -0.7056    2.9268   26.0277 C.ar    1  UNL1        0.0001
     16 C          -0.6283    2.8795   24.5304 C.ar    1  UNL1        0.0000
     17 C          -1.8220    3.2597   23.7054 C.ar    1  UNL1        0.0014
     18 C          -3.0929    3.6871   24.3777 C.ar    1  UNL1        0.0217
     19 C          -1.4786    3.8067   20.2814 C.3     1  UNL1        0.0350
     20 C          -0.3718    3.2612   19.4285 C.3     1  UNL1        0.0736
     21 N           0.5149    2.1726   19.9562 N.3     1  UNL1       -0.2697
     22 C           1.9318    2.4798   20.3408 C.3     1  UNL1        0.0938
     23 C           2.8186    1.3912   20.8685 C.3     1  UNL1        0.1081
     24 N           2.2884   -0.0047   21.0117 N.pl3   1  UNL1       -0.3046
     25 C           0.8715   -0.3119   20.6271 C.3     1  UNL1        0.1081
     26 C          -0.0153    0.7767   20.0994 C.3     1  UNL1        0.0938
     27 C           3.1752   -1.0933   21.5394 C.ar    1  UNL1        0.0484
     28 C           3.4573   -1.1842   23.0098 C.ar    1  UNL1        0.0146
     29 C           4.3441   -2.2728   23.5375 C.ar    1  UNL1        0.0018
     30 C           4.9489   -3.2706   22.5947 C.ar    1  UNL1        0.0066
     31 C           4.6668   -3.1797   21.1243 C.ar    1  UNL1        0.0307
     32 S           5.1180   -4.0140   19.9623 S.2     1  UNL1       -0.0864
     33 C           4.5101   -3.4411   18.7164 C.ar    1  UNL1        0.0355
     34 C           3.6831   -2.2526   19.1085 C.ar    1  UNL1        0.0087
     35 C           3.7800   -2.0910   20.5966 C.ar    1  UNL1        0.0198
@<TRIPOS>BOND
     1     6     7    2
     2     7     8    2
     3     7     9    1
     4     9    10   ar
     5    10    11   ar
     6    11    12   ar
     7    12    13   ar
     8    13    14   ar
     9    14    15   ar
    10    15    16   ar
    11    16    17   ar
    12    17    18   ar
    13     7     1    1
    14     1     2    1
    15     2     3    1
    16     3     4    1
    17     4     5    1
    18     5    19    1
    19    19    20    1
    20    20    21    1
    21    21    22    1
    22    22    23    1
    23    23    24    1
    24    24    27    1
    25    27    28   ar
    26    28    29   ar
    27    29    30   ar
    28    30    31   ar
    29    31    32   ar
    30    32    33   ar
    31    33    34   ar
    32    34    35   ar
    33    24    25    1
    34    25    26    1
    35    18     9   ar
    36     5     1    1
    37    26    21    1
    38    18    13   ar
    39    35    27   ar
    40    35    31   ar
@<TRIPOS>MOLECULE
*****
 35 40 0 0 0
SMALL
GASTEIGER

@<TRIPOS>ATOM
      1 N          -2.9781  -17.2447   22.0665 N.3     1  UNL1       -0.1568
      2 C          -1.9792  -16.3327   21.4181 C.3     1  UNL1        0.0958
      3 C          -1.2757  -17.1057   20.3422 C.3     1  UNL1        0.0206
      4 C          -1.8398  -18.4955   20.3257 C.3     1  UNL1        0.0192
      5 C          -2.8919  -18.5814   21.3913 C.3     1  UNL1        0.0810
      6 O          -3.8891  -18.3089   23.6595 O.2     1  UNL1       -0.1527
      7 S          -3.9011  -16.8835   23.1924 S.O2    1  UNL1        0.0647
      8 O          -3.9130  -15.4582   22.7253 O.2     1  UNL1       -0.1527
      9 C          -4.8241  -16.5223   24.3183 C.ar    1  UNL1        0.1412
     10 C          -4.3202  -16.5238   25.7311 C.ar    1  UNL1        0.1187
     11 N          -5.2432  -16.1625   26.8569 N.ar    1  UNL1       -0.2409
     12 C          -6.6701  -15.7998   26.5700 C.ar    1  UNL1        0.0989
     13 C          -7.1741  -15.7983   25.1571 C.ar    1  UNL1        0.0205
     14 C          -8.6009  -15.4356   24.8702 C.ar    1  UNL1        0.0016
     15 C          -9.1048  -15.4341   23.4574 C.ar    1  UNL1        0.0001
     16 C          -8.1818  -15.7954   22.3316 C.ar    1  UNL1        0.0000
     17 C          -6.7549  -16.1581   22.6185 C.ar    1  UNL1        0.0014
     18 C          -6.2511  -16.1596   24.0313 C.ar    1  UNL1        0.0217
     19 C          -3.7137  -19.7916   21.7235 C.3     1  UNL1        0.0350
     20 C          -4.8355  -20.2079   20.8189 C.3     1  UNL1        0.0736
     21 N          -6.2426  -19.7908   21.1282 N.3     1  UNL1       -0.2697
     22 C          -7.1325  -19.2832   20.0326 C.3     1  UNL1        0.0938
     23 C          -8.5397  -18.8661   20.3420 C.3     1  UNL1        0.1081
     24 N          -9.0571  -18.9566   21.7470 N.pl3   1  UNL1       -0.3046
     25 C          -8.1672  -19.4642   22.8427 C.3     1  UNL1        0.1081
     26 C          -6.7601  -19.8813   22.5333 C.3     1  UNL1        0.0938
     27 C         -10.4644  -18.5395   22.0563 C.ar    1  UNL1        0.0484
     28 C         -11.1753  -19.1202   23.2427 C.ar    1  UNL1        0.0146
     29 C         -12.5824  -18.7030   23.5519 C.ar    1  UNL1        0.0018
     30 C         -13.2789  -17.7051   22.6748 C.ar    1  UNL1        0.0066
     31 C         -12.5680  -17.1244   21.4885 C.ar    1  UNL1        0.0307
     32 S         -12.9949  -16.1287   20.4510 S.2     1  UNL1       -0.0864
     33 C         -11.8515  -15.9305   19.5005 C.ar    1  UNL1        0.0355
     34 C         -10.7179  -16.8037   19.9506 C.ar    1  UNL1        0.0087
     35 C         -11.1607  -17.5416   21.1792 C.ar    1  UNL1        0.0198
@<TRIPOS>BOND
     1     6     7    2
     2     7     8    2
     3     7     9    1
     4     9    10   ar
     5    10    11   ar
     6    11    12   ar
     7    12    13   ar
     8    13    14   ar
     9    14    15   ar
    10    15    16   ar
    11    16    17   ar
    12    17    18   ar
    13     7     1    1
    14     1     2    1
    15     2     3    1
    16     3     4    1
    17     4     5    1
    18     5    19    1
    19    19    20    1
    20    20    21    1
    21    21    22    1
    22    22    23    1
    23    23    24    1
    24    24    27    1
    25    27    28   ar
    26    28    29   ar
    27    29    30   ar
    28    30    31   ar
    29    31    32   ar
    30    32    33   ar
    31    33    34   ar
    32    34    35   ar
    33    24    25    1
    34    25    26    1
    35    18     9   ar
    36     5     1    1
    37    26    21    1
    38    18    13   ar
    39    35    27   ar
    40    35    31   ar
@<TRIPOS>MOLECULE
*****
 35 40 0 0 0
SMALL
GASTEIGER

@<TRIPOS>ATOM
      1 N           7.1573   -4.2559   21.6003 N.3     1  UNL1       -0.1568
      2 C           8.2726   -5.1865   21.2257 C.3     1  UNL1        0.0958
      3 C           8.8155   -5.7907   22.4867 C.3     1  UNL1        0.0206
      4 C           8.0357   -5.2337   23.6407 C.3     1  UNL1        0.0192
      5 C           7.0110   -4.2851   23.0928 C.3     1  UNL1        0.0810
      6 O           7.2628   -2.2781   20.8407 O.2     1  UNL1       -0.1527
      7 S           6.3332   -3.4396   20.6493 S.O2    1  UNL1        0.0647
      8 O           5.4035   -4.6011   20.4579 O.2     1  UNL1       -0.1527
      9 C           5.5090   -2.6232   19.6983 C.ar    1  UNL1        0.1412
     10 C           5.8432   -2.6111   18.2361 C.ar    1  UNL1        0.1187
     11 N           5.0191   -1.7947   17.2852 N.ar    1  UNL1       -0.2409
     12 C           3.8607   -0.9905   17.7964 C.ar    1  UNL1        0.0989
     13 C           3.5264   -1.0027   19.2587 C.ar    1  UNL1        0.0205
     14 C           2.3680   -0.1985   19.7699 C.ar    1  UNL1        0.0016
     15 C           2.0338   -0.2107   21.2322 C.ar    1  UNL1        0.0001
     16 C           2.8579   -1.0271   22.1831 C.ar    1  UNL1        0.0000
     17 C           4.0163   -1.8312   21.6719 C.ar    1  UNL1        0.0014
     18 C           4.3506   -1.8191   20.2097 C.ar    1  UNL1        0.0217
     19 C           6.0147   -3.5031   23.8965 C.3     1  UNL1        0.0350
     20 C           6.3812   -2.1526   24.4368 C.3     1  UNL1        0.0736
     21 N           5.3822   -1.3670   25.2333 N.3     1  UNL1       -0.2697
     22 C           5.1741    0.0906   24.9469 C.3     1  UNL1        0.0938
     23 C           4.1749    0.8763   25.7435 C.3     1  UNL1        0.1081
     24 N           3.3839    0.2043   26.8264 N.pl3   1  UNL1       -0.3046
     25 C           3.5920   -1.2533   27.1127 C.3     1  UNL1        0.1081
     26 C           4.5911   -2.0389   26.3162 C.3     1  UNL1        0.0938
     27 C           2.3848    0.9900   27.6229 C.ar    1  UNL1        0.0484
     28 C           2.6389    1.2745   29.0736 C.ar    1  UNL1        0.0146
     29 C           1.6398    2.0602   29.8700 C.ar    1  UNL1        0.0018
     30 C           0.3864    2.5615   29.2158 C.ar    1  UNL1        0.0066
     31 C           0.1323    2.2770   27.7652 C.ar    1  UNL1        0.0307
     32 S          -1.0042    2.6389   26.8555 S.2     1  UNL1       -0.0864
     33 C          -0.7074    2.0768   25.4968 C.ar    1  UNL1        0.0355
     34 C           0.6125    1.3675   25.5668 C.ar    1  UNL1        0.0087
     35 C           1.1315    1.4913   26.9687 C.ar    1  UNL1        0.0198
@<TRIPOS>BOND
     1     6     7    2
     2     7     8    2
     3     7     9    1
     4     9    10   ar
     5    10    11   ar
     6    11    12   ar
     7    12    13   ar
     8    13    14   ar
     9    14    15   ar
    10    15    16   ar
    11    16    17   ar
    12    17    18   ar
    13     7     1    1
    14     1     2    1
    15     2     3    1
    16     3     4    1
    17     4     5    1
    18     5    19    1
    19    19    20    1
    20    20    21    1
    21    21    22    1
    22    22    23    1
    23    23    24    1
    24    24    27    1
    25    27    28   ar
    26    28    29   ar
    27    29    30   ar
    28    30    31   ar
    29    31    32   ar
    30    32    33   ar
    31    33    34   ar
    32    34    35   ar
    33    24    25    1
    34    25    26    1
    35    18     9   ar
    36     5     1    1
    37    26    21    1
    38    18    13   ar
    39    35    27   ar
    40    35    31   ar
