@<TRIPOS>MOLECULE
*****
 23 26 0 0 0
SMALL
GASTEIGER

@<TRIPOS>ATOM
      1 S          -8.6236  -19.1849   20.9928 S.3     1  UNL1       -0.0692
      2 C          -2.2548  -18.8389   20.0327 C.2     1  UNL1        0.1223
      3 C          -2.1913  -19.3680   21.4349 C.2     1  UNL1        0.0343
      4 C          -3.4575  -19.6490   22.1885 C.2     1  UNL1        0.0232
      5 C          -4.7871  -19.4010   21.5400 C.2     1  UNL1        0.0975
      6 N          -6.1927  -19.5827   22.0309 N.2     1  UNL1       -0.2200
      7 C          -7.1250  -19.1658   20.9322 C.2     1  UNL1        0.1901
      8 N          -6.2955  -18.7266   19.7622 N.2     1  UNL1       -0.2236
      9 C          -4.8506  -18.8719   20.1378 C.2     1  UNL1        0.0863
     10 C          -3.5844  -18.5909   19.3841 C.3     1  UNL1        0.1112
     11 C           0.1147  -17.7783   19.9309 C.3     1  UNL1        0.2520
     12 O          -0.9887  -18.5578   19.2791 O.2     1  UNL1       -0.4753
     13 C          -9.3653  -18.0212   21.5808 C.3     1  UNL1        0.1107
     14 C          -9.0580  -17.5635   22.9759 C.ar    1  UNL1        0.0703
     15 C          -9.9534  -17.9637   24.1108 C.ar    1  UNL1        0.0156
     16 C          -9.6461  -17.5060   25.5058 C.ar    1  UNL1        0.0027
     17 C          -8.4434  -16.6481   25.7659 C.ar    1  UNL1        0.0177
     18 C          -8.1361  -16.1904   27.1609 C.ar    1  UNL1        0.0015
     19 C          -6.9334  -15.3326   27.4209 C.ar    1  UNL1        0.0001
     20 C          -6.0381  -14.9324   26.2860 C.ar    1  UNL1        0.0015
     21 C          -6.3453  -15.3901   24.8910 C.ar    1  UNL1        0.0191
     22 C          -7.5480  -16.2479   24.6310 C.ar    1  UNL1        0.0809
     23 N          -7.8553  -16.7057   23.2359 N.ar    1  UNL1       -0.2488
@<TRIPOS>BOND
     1    11    12    1
     2    12     2    1
     3     2     3    2
     4     3     4    1
     5     4     5    2
     6     5     6    1
     7     6     7    2
     8     7     1    1
     9     1    13    1
    10    13    14    1
    11    14    15   ar
    12    15    16   ar
    13    16    17   ar
    14    17    18   ar
    15    18    19   ar
    16    19    20   ar
    17    20    21   ar
    18    21    22   ar
    19    22    23   ar
    20     7     8    1
    21     8     9    2
    22     9    10    1
    23    10     2    1
    24     9     5    1
    25    23    14   ar
    26    22    17   ar
@<TRIPOS>MOLECULE
*****
 23 26 0 0 0
SMALL
GASTEIGER

@<TRIPOS>ATOM
      1 S          -5.9213  -15.4723   24.4556 S.3     1  UNL1       -0.0692
      2 C          -1.5871  -18.5404   20.7943 C.2     1  UNL1        0.1223
      3 C          -2.3838  -19.7530   21.1746 C.2     1  UNL1        0.0343
      4 C          -3.5802  -19.6143   22.0687 C.2     1  UNL1        0.0232
      5 C          -3.9800  -18.2630   22.5824 C.2     1  UNL1        0.0975
      6 N          -5.1026  -17.8195   23.4729 N.2     1  UNL1       -0.2200
      7 C          -4.9997  -16.3327   23.6429 C.2     1  UNL1        0.1901
      8 N          -3.8136  -15.8572   22.8574 N.2     1  UNL1       -0.2236
      9 C          -3.1833  -17.0502   22.2020 C.2     1  UNL1        0.0863
     10 C          -1.9869  -17.1889   21.3079 C.3     1  UNL1        0.1112
     11 C           0.6776  -17.6261   19.9081 C.3     1  UNL1        0.2520
     12 O          -0.3907  -18.6791   19.9002 O.2     1  UNL1       -0.4753
     13 C          -7.3029  -15.1715   23.9549 C.3     1  UNL1        0.1107
     14 C          -8.2540  -16.2931   23.6587 C.ar    1  UNL1        0.0703
     15 C          -9.0926  -16.8751   24.7577 C.ar    1  UNL1        0.0156
     16 C         -10.0437  -17.9966   24.4616 C.ar    1  UNL1        0.0027
     17 C         -10.1562  -18.5360   23.0665 C.ar    1  UNL1        0.0177
     18 C         -11.1073  -19.6575   22.7703 C.ar    1  UNL1        0.0015
     19 C         -11.2197  -20.1969   21.3752 C.ar    1  UNL1        0.0001
     20 C         -10.3810  -19.6148   20.2762 C.ar    1  UNL1        0.0015
     21 C          -9.4299  -18.4933   20.5723 C.ar    1  UNL1        0.0191
     22 C          -9.3175  -17.9539   21.9674 C.ar    1  UNL1        0.0809
     23 N          -8.3664  -16.8324   22.2636 N.ar    1  UNL1       -0.2488
@<TRIPOS>BOND
     1    11    12    1
     2    12     2    1
     3     2     3    2
     4     3     4    1
     5     4     5    2
     6     5     6    1
     7     6     7    2
     8     7     1    1
     9     1    13    1
    10    13    14    1
    11    14    15   ar
    12    15    16   ar
    13    16    17   ar
    14    17    18   ar
    15    18    19   ar
    16    19    20   ar
    17    20    21   ar
    18    21    22   ar
    19    22    23   ar
    20     7     8    1
    21     8     9    2
    22     9    10    1
    23    10     2    1
    24     9     5    1
    25    23    14   ar
    26    22    17   ar
@<TRIPOS>MOLECULE
*****
 23 26 0 0 0
SMALL
GASTEIGER

@<TRIPOS>ATOM
      1 S          -5.8710  -15.4147   24.3797 S.3     1  UNL1       -0.0692
      2 C          -1.5296  -18.6083   20.8361 C.2     1  UNL1        0.1223
      3 C          -2.4309  -19.7772   21.1028 C.2     1  UNL1        0.0343
      4 C          -3.6706  -19.5956   21.9276 C.2     1  UNL1        0.0232
      5 C          -4.0088  -18.2450   22.4858 C.2     1  UNL1        0.0975
      6 N          -5.1538  -17.7649   23.3276 N.2     1  UNL1       -0.2200
      7 C          -4.9600  -16.2993   23.5812 C.2     1  UNL1        0.1901
      8 N          -3.6953  -15.8735   22.8962 N.2     1  UNL1       -0.2236
      9 C          -3.1075  -17.0760   22.2191 C.2     1  UNL1        0.0863
     10 C          -1.8678  -17.2576   21.3943 C.3     1  UNL1        0.1112
     11 C           0.6655  -17.6476   19.8319 C.3     1  UNL1        0.2520
     12 O          -0.2899  -18.7899   20.0113 O.2     1  UNL1       -0.4753
     13 C          -7.1764  -15.9484   24.8906 C.3     1  UNL1        0.1107
     14 C          -8.3136  -16.1837   23.9410 C.ar    1  UNL1        0.0703
     15 C          -8.2434  -15.6516   22.5404 C.ar    1  UNL1        0.0156
     16 C          -9.3806  -15.8868   21.5909 C.ar    1  UNL1        0.0027
     17 C         -10.5879  -16.6542   22.0420 C.ar    1  UNL1        0.0177
     18 C         -11.7250  -16.8894   21.0926 C.ar    1  UNL1        0.0015
     19 C         -12.9323  -17.6568   21.5438 C.ar    1  UNL1        0.0001
     20 C         -13.0025  -18.1889   22.9444 C.ar    1  UNL1        0.0015
     21 C         -11.8653  -17.9537   23.8939 C.ar    1  UNL1        0.0191
     22 C         -10.6581  -17.1863   23.4427 C.ar    1  UNL1        0.0809
     23 N          -9.5209  -16.9510   24.3922 N.ar    1  UNL1       -0.2488
@<TRIPOS>BOND
     1    11    12    1
     2    12     2    1
     3     2     3    2
     4     3     4    1
     5     4     5    2
     6     5     6    1
     7     6     7    2
     8     7     1    1
     9     1    13    1
    10    13    14    1
    11    14    15   ar
    12    15    16   ar
    13    16    17   ar
    14    17    18   ar
    15    18    19   ar
    16    19    20   ar
    17    20    21   ar
    18    21    22   ar
    19    22    23   ar
    20     7     8    1
    21     8     9    2
    22     9    10    1
    23    10     2    1
    24     9     5    1
    25    23    14   ar
    26    22    17   ar
@<TRIPOS>MOLECULE
*****
 23 26 0 0 0
SMALL
GASTEIGER

@<TRIPOS>ATOM
      1 S          -7.1860  -14.9498   24.6940 S.3     1  UNL1       -0.0692
      2 C          -3.4002  -19.2346   21.7089 C.2     1  UNL1        0.1223
      3 C          -2.3001  -18.4704   22.3840 C.2     1  UNL1        0.0343
      4 C          -2.6292  -17.2969   23.2584 C.2     1  UNL1        0.0232
      5 C          -4.0585  -16.8876   23.4577 C.2     1  UNL1        0.0975
      6 N          -4.6841  -15.7824   24.2559 N.2     1  UNL1       -0.2200
      7 C          -6.1708  -15.8636   24.0741 C.2     1  UNL1        0.1901
      8 N          -6.4641  -17.0189   23.1636 N.2     1  UNL1       -0.2236
      9 C          -5.1586  -17.6519   22.7826 C.2     1  UNL1        0.0863
     10 C          -4.8295  -18.8254   21.9082 C.3     1  UNL1        0.1112
     11 C          -4.0540  -20.8724   19.8010 C.3     1  UNL1        0.2520
     12 O          -3.0710  -20.4081   20.8345 O.2     1  UNL1       -0.4753
     13 C          -8.4963  -15.5000   25.1741 C.3     1  UNL1        0.1107
     14 C          -9.1222  -16.6678   24.4708 C.ar    1  UNL1        0.0703
     15 C          -9.4358  -17.9216   25.2322 C.ar    1  UNL1        0.0156
     16 C         -10.0616  -19.0893   24.5290 C.ar    1  UNL1        0.0027
     17 C         -10.3739  -19.0034   23.0643 C.ar    1  UNL1        0.0177
     18 C         -10.9997  -20.1712   22.3611 C.ar    1  UNL1        0.0015
     19 C         -11.3120  -20.0852   20.8965 C.ar    1  UNL1        0.0001
     20 C         -10.9983  -18.8315   20.1351 C.ar    1  UNL1        0.0015
     21 C         -10.3725  -17.6637   20.8383 C.ar    1  UNL1        0.0191
     22 C         -10.0602  -17.7497   22.3029 C.ar    1  UNL1        0.0809
     23 N          -9.4344  -16.5818   23.0062 N.ar    1  UNL1       -0.2488
@<TRIPOS>BOND
     1    11    12    1
     2    12     2    1
     3     2     3    2
     4     3     4    1
     5     4     5    2
     6     5     6    1
     7     6     7    2
     8     7     1    1
     9     1    13    1
    10    13    14    1
    11    14    15   ar
    12    15    16   ar
    13    16    17   ar
    14    17    18   ar
    15    18    19   ar
    16    19    20   ar
    17    20    21   ar
    18    21    22   ar
    19    22    23   ar
    20     7     8    1
    21     8     9    2
    22     9    10    1
    23    10     2    1
    24     9     5    1
    25    23    14   ar
    26    22    17   ar
@<TRIPOS>MOLECULE
*****
 23 26 0 0 0
SMALL
GASTEIGER

@<TRIPOS>ATOM
      1 S          -7.5433  -20.1503   20.0879 S.3     1  UNL1       -0.0692
      2 C          -1.4038  -18.4388   21.0782 C.2     1  UNL1        0.1223
      3 C          -1.9097  -18.0702   22.4414 C.2     1  UNL1        0.0343
      4 C          -3.3563  -18.2703   22.7840 C.2     1  UNL1        0.0232
      5 C          -4.2970  -18.8390   21.7634 C.2     1  UNL1        0.0975
      6 N          -5.7642  -19.1472   21.8123 N.2     1  UNL1       -0.2200
      7 C          -6.1651  -19.7064   20.4794 C.2     1  UNL1        0.1901
      8 N          -4.9457  -19.7437   19.6067 N.2     1  UNL1       -0.2236
      9 C          -3.7911  -19.2076   20.4002 C.2     1  UNL1        0.0863
     10 C          -2.3446  -19.0075   20.0576 C.3     1  UNL1        0.1112
     11 C           0.4717  -17.0187   19.9757 C.3     1  UNL1        0.2520
     12 O           0.0427  -18.2387   20.7357 O.2     1  UNL1       -0.4753
     13 C          -8.6911  -19.1875   20.1636 C.3     1  UNL1        0.1107
     14 C          -9.5463  -19.1353   21.3949 C.ar    1  UNL1        0.0703
     15 C          -9.0345  -19.6977   22.6879 C.ar    1  UNL1        0.0156
     16 C          -9.8895  -19.6454   23.9192 C.ar    1  UNL1        0.0027
     17 C         -11.2565  -19.0308   23.8575 C.ar    1  UNL1        0.0177
     18 C         -12.1115  -18.9786   25.0888 C.ar    1  UNL1        0.0015
     19 C         -13.4784  -18.3640   25.0271 C.ar    1  UNL1        0.0001
     20 C         -13.9902  -17.8016   23.7341 C.ar    1  UNL1        0.0015
     21 C         -13.1352  -17.8538   22.5028 C.ar    1  UNL1        0.0191
     22 C         -11.7683  -18.4684   22.5645 C.ar    1  UNL1        0.0809
     23 N         -10.9131  -18.5207   21.3332 N.ar    1  UNL1       -0.2488
@<TRIPOS>BOND
     1    11    12    1
     2    12     2    1
     3     2     3    2
     4     3     4    1
     5     4     5    2
     6     5     6    1
     7     6     7    2
     8     7     1    1
     9     1    13    1
    10    13    14    1
    11    14    15   ar
    12    15    16   ar
    13    16    17   ar
    14    17    18   ar
    15    18    19   ar
    16    19    20   ar
    17    20    21   ar
    18    21    22   ar
    19    22    23   ar
    20     7     8    1
    21     8     9    2
    22     9    10    1
    23    10     2    1
    24     9     5    1
    25    23    14   ar
    26    22    17   ar
@<TRIPOS>MOLECULE
*****
 23 26 0 0 0
SMALL
GASTEIGER

@<TRIPOS>ATOM
      1 S           7.3244   -3.4088   21.2735 S.3     1  UNL1       -0.0692
      2 C           7.7958   -6.6794   26.8128 C.2     1  UNL1        0.1223
      3 C           8.3369   -7.7608   25.9252 C.2     1  UNL1        0.0343
      4 C           8.4570   -7.5286   24.4482 C.2     1  UNL1        0.0232
      5 C           8.0360   -6.2151   23.8587 C.2     1  UNL1        0.0975
      6 N           8.0380   -5.7005   22.4498 N.2     1  UNL1       -0.2200
      7 C           7.4981   -4.3011   22.4666 C.2     1  UNL1        0.1901
      8 N           7.1625   -3.9508   23.8860 N.2     1  UNL1       -0.2236
      9 C           7.4949   -5.1337   24.7464 C.2     1  UNL1        0.0863
     10 C           7.3748   -5.3658   26.2234 C.3     1  UNL1        0.1112
     11 C           7.2616   -5.7889   29.1943 C.3     1  UNL1        0.2520
     12 O           7.6758   -6.9116   28.2899 O.2     1  UNL1       -0.4753
     13 C           6.3927   -3.8078   20.1677 C.3     1  UNL1        0.1107
     14 C           5.4405   -2.8030   19.5901 C.ar    1  UNL1        0.0703
     15 C           5.7305   -2.1732   18.2600 C.ar    1  UNL1        0.0156
     16 C           4.7783   -1.1684   17.6823 C.ar    1  UNL1        0.0027
     17 C           3.5360   -0.7935   18.4347 C.ar    1  UNL1        0.0177
     18 C           2.5838    0.2112   17.8570 C.ar    1  UNL1        0.0015
     19 C           1.3415    0.5861   18.6094 C.ar    1  UNL1        0.0001
     20 C           1.0514   -0.0438   19.9395 C.ar    1  UNL1        0.0015
     21 C           2.0036   -1.0485   20.5172 C.ar    1  UNL1        0.0191
     22 C           3.2459   -1.4234   19.7648 C.ar    1  UNL1        0.0809
     23 N           4.1982   -2.4282   20.3425 N.ar    1  UNL1       -0.2488
@<TRIPOS>BOND
     1    11    12    1
     2    12     2    1
     3     2     3    2
     4     3     4    1
     5     4     5    2
     6     5     6    1
     7     6     7    2
     8     7     1    1
     9     1    13    1
    10    13    14    1
    11    14    15   ar
    12    15    16   ar
    13    16    17   ar
    14    17    18   ar
    15    18    19   ar
    16    19    20   ar
    17    20    21   ar
    18    21    22   ar
    19    22    23   ar
    20     7     8    1
    21     8     9    2
    22     9    10    1
    23    10     2    1
    24     9     5    1
    25    23    14   ar
    26    22    17   ar
@<TRIPOS>MOLECULE
*****
 23 26 0 0 0
SMALL
GASTEIGER

@<TRIPOS>ATOM
      1 S           0.1431    3.5511   19.7809 S.3     1  UNL1       -0.0692
      2 C          -4.5563    3.5222   24.1989 C.2     1  UNL1        0.1223
      3 C          -5.4429    3.3586   23.0001 C.2     1  UNL1        0.0343
      4 C          -4.8434    3.2992   21.6264 C.2     1  UNL1        0.0232
      5 C          -3.3574    3.4034   21.4514 C.2     1  UNL1        0.0975
      6 N          -2.4861    3.3775   20.2307 N.2     1  UNL1       -0.2200
      7 C          -1.0610    3.5251   20.6750 C.2     1  UNL1        0.1901
      8 N          -1.0515    3.6423   22.1704 N.2     1  UNL1       -0.2236
      9 C          -2.4707    3.5671   22.6503 C.2     1  UNL1        0.0863
     10 C          -3.0702    3.6264   24.0240 C.3     1  UNL1        0.1112
     11 C          -4.4654    4.3506   26.6596 C.3     1  UNL1        0.2520
     12 O          -5.1558    3.5815   25.5726 O.2     1  UNL1       -0.4753
     13 C           0.3043    2.5135   18.7097 C.3     1  UNL1        0.1107
     14 C           1.0959    1.2692   18.9839 C.ar    1  UNL1        0.0703
     15 C           0.6838    0.3473   20.0932 C.ar    1  UNL1        0.0156
     16 C           1.4753   -0.8969   20.3674 C.ar    1  UNL1        0.0027
     17 C           2.6790   -1.2194   19.5324 C.ar    1  UNL1        0.0177
     18 C           3.4705   -2.4637   19.8066 C.ar    1  UNL1        0.0015
     19 C           4.6741   -2.7861   18.9716 C.ar    1  UNL1        0.0001
     20 C           5.0863   -1.8643   17.8623 C.ar    1  UNL1        0.0015
     21 C           4.2947   -0.6200   17.5881 C.ar    1  UNL1        0.0191
     22 C           3.0911   -0.2976   18.4231 C.ar    1  UNL1        0.0809
     23 N           2.2995    0.9467   18.1489 N.ar    1  UNL1       -0.2488
@<TRIPOS>BOND
     1    11    12    1
     2    12     2    1
     3     2     3    2
     4     3     4    1
     5     4     5    2
     6     5     6    1
     7     6     7    2
     8     7     1    1
     9     1    13    1
    10    13    14    1
    11    14    15   ar
    12    15    16   ar
    13    16    17   ar
    14    17    18   ar
    15    18    19   ar
    16    19    20   ar
    17    20    21   ar
    18    21    22   ar
    19    22    23   ar
    20     7     8    1
    21     8     9    2
    22     9    10    1
    23    10     2    1
    24     9     5    1
    25    23    14   ar
    26    22    17   ar
@<TRIPOS>MOLECULE
*****
 23 26 0 0 0
SMALL
GASTEIGER

@<TRIPOS>ATOM
      1 S          -1.1542    3.6236   19.7484 S.3     1  UNL1       -0.0692
      2 C           3.3259   -0.8520   18.5230 C.2     1  UNL1        0.1223
      3 C           2.7319   -1.5244   19.7251 C.2     1  UNL1        0.0343
      4 C           1.5866   -0.8849   20.4528 C.2     1  UNL1        0.0232
      5 C           1.0354    0.4270   19.9784 C.2     1  UNL1        0.0975
      6 N          -0.0796    1.2907   20.4888 N.2     1  UNL1       -0.2200
      7 C          -0.1748    2.4969   19.6023 C.2     1  UNL1        0.1901
      8 N           0.8815    2.3787   18.5438 N.2     1  UNL1       -0.2236
      9 C           1.6294    1.0994   18.7762 C.2     1  UNL1        0.0863
     10 C           2.7747    0.4599   18.0486 C.3     1  UNL1        0.1112
     11 C           5.1321   -2.7126   18.3628 C.3     1  UNL1        0.2520
     12 O           4.4711   -1.4916   17.7954 O.2     1  UNL1       -0.4753
     13 C          -2.6071    3.3293   19.9771 C.3     1  UNL1        0.1107
     14 C          -3.1835    3.4258   21.3586 C.ar    1  UNL1        0.0703
     15 C          -4.6609    3.2710   21.5674 C.ar    1  UNL1        0.0156
     16 C          -5.2373    3.3675   22.9488 C.ar    1  UNL1        0.0027
     17 C          -4.3364    3.6189   24.1216 C.ar    1  UNL1        0.0177
     18 C          -4.9128    3.7154   25.5030 C.ar    1  UNL1        0.0015
     19 C          -4.0119    3.9667   26.6756 C.ar    1  UNL1        0.0001
     20 C          -2.5346    4.1214   26.4669 C.ar    1  UNL1        0.0015
     21 C          -1.9582    4.0249   25.0855 C.ar    1  UNL1        0.0191
     22 C          -2.8591    3.7737   23.9128 C.ar    1  UNL1        0.0809
     23 N          -2.2826    3.6771   22.5313 N.ar    1  UNL1       -0.2488
@<TRIPOS>BOND
     1    11    12    1
     2    12     2    1
     3     2     3    2
     4     3     4    1
     5     4     5    2
     6     5     6    1
     7     6     7    2
     8     7     1    1
     9     1    13    1
    10    13    14    1
    11    14    15   ar
    12    15    16   ar
    13    16    17   ar
    14    17    18   ar
    15    18    19   ar
    16    19    20   ar
    17    20    21   ar
    18    21    22   ar
    19    22    23   ar
    20     7     8    1
    21     8     9    2
    22     9    10    1
    23    10     2    1
    24     9     5    1
    25    23    14   ar
    26    22    17   ar
@<TRIPOS>MOLECULE
*****
 23 26 0 0 0
SMALL
GASTEIGER

@<TRIPOS>ATOM
      1 S           0.2679    3.0416   19.2041 S.3     1  UNL1       -0.0692
      2 C          -5.5777    3.8878   21.7957 C.2     1  UNL1        0.1223
      3 C          -5.8822    4.5179   20.4690 C.2     1  UNL1        0.0343
      4 C          -4.8183    4.5976   19.4147 C.2     1  UNL1        0.0232
      5 C          -3.4498    4.0470   19.6870 C.2     1  UNL1        0.0975
      6 N          -2.2083    3.9832   18.8477 N.2     1  UNL1       -0.2200
      7 C          -1.1364    3.3135   19.6556 C.2     1  UNL1        0.1901
      8 N          -1.7155    2.9635   20.9943 N.2     1  UNL1       -0.2236
      9 C          -3.1453    3.4168   21.0137 C.2     1  UNL1        0.0863
     10 C          -4.2092    3.3372   22.0681 C.3     1  UNL1        0.1112
     11 C          -6.4451    4.4978   24.1675 C.3     1  UNL1        0.2520
     12 O          -6.6417    3.8081   22.8501 O.2     1  UNL1       -0.4753
     13 C           0.5525    1.8826   18.2955 C.3     1  UNL1        0.1107
     14 C           1.3826    0.7327   18.7841 C.ar    1  UNL1        0.0703
     15 C           1.0490    0.0669   20.0862 C.ar    1  UNL1        0.0156
     16 C           1.8790   -1.0830   20.5749 C.ar    1  UNL1        0.0027
     17 C           3.0427   -1.5671   19.7615 C.ar    1  UNL1        0.0177
     18 C           3.8727   -2.7170   20.2501 C.ar    1  UNL1        0.0015
     19 C           5.0363   -3.2010   19.4367 C.ar    1  UNL1        0.0001
     20 C           5.3698   -2.5353   18.1346 C.ar    1  UNL1        0.0015
     21 C           4.5398   -1.3854   17.6459 C.ar    1  UNL1        0.0191
     22 C           3.3762   -0.9013   18.4594 C.ar    1  UNL1        0.0809
     23 N           2.5461    0.2486   17.9707 N.ar    1  UNL1       -0.2488
@<TRIPOS>BOND
     1    11    12    1
     2    12     2    1
     3     2     3    2
     4     3     4    1
     5     4     5    2
     6     5     6    1
     7     6     7    2
     8     7     1    1
     9     1    13    1
    10    13    14    1
    11    14    15   ar
    12    15    16   ar
    13    16    17   ar
    14    17    18   ar
    15    18    19   ar
    16    19    20   ar
    17    20    21   ar
    18    21    22   ar
    19    22    23   ar
    20     7     8    1
    21     8     9    2
    22     9    10    1
    23    10     2    1
    24     9     5    1
    25    23    14   ar
    26    22    17   ar
