@<TRIPOS>MOLECULE
*****
 23 24 0 0 0
SMALL
GASTEIGER

@<TRIPOS>ATOM
      1 C          -9.1886  -19.2736   21.5061 C.ar    1  UNL1        0.0503
      2 C          -8.8054  -19.3679   20.0590 C.ar    1  UNL1        0.0148
      3 C          -7.3581  -19.4142   19.6678 C.ar    1  UNL1        0.0058
      4 C          -6.2939  -19.3661   20.7238 C.ar    1  UNL1        0.0538
      5 C          -6.6770  -19.2718   22.1709 C.ar    1  UNL1        0.0058
      6 C          -8.1244  -19.2256   22.5621 C.ar    1  UNL1        0.0148
      7 C         -11.3151  -17.9061   22.1041 C.2     1  UNL1        0.2261
      8 O         -10.5469  -16.6309   21.9197 O.2     1  UNL1       -0.2748
      9 N         -10.6359  -19.2274   21.8973 N.am    1  UNL1       -0.2839
     10 H         -11.1401  -20.0643   22.0183 H       1  UNL1        0.1549
     11 C         -12.7624  -17.8598   22.4953 C.3     1  UNL1        0.0854
     12 C         -12.1524  -18.7518   24.8580 C.3     1  UNL1        0.0005
     13 C         -13.1800  -18.2744   23.8751 C.3     1  UNL1        0.0091
     14 C         -14.6252  -18.2116   24.2720 C.3     1  UNL1        0.0005
     15 C          -4.8465  -19.4124   20.3326 C.2     1  UNL1        0.2509
     16 O          -4.2681  -20.6654   19.7449 O.2     1  UNL1       -0.2698
     17 N          -3.9776  -18.2057   20.5291 N.am    1  UNL1       -0.2606
     18 H          -4.3572  -17.3833   20.9148 H       1  UNL1        0.1571
     19 C          -2.5302  -18.2519   20.1379 C.ar    1  UNL1        0.1658
     20 N          -1.4140  -18.8311   20.9555 N.ar    1  UNL1       -0.2224
     21 C          -0.1388  -18.6643   20.1834 C.ar    1  UNL1        0.1079
     22 C          -0.4670  -17.9819   18.8885 C.ar    1  UNL1        0.0588
     23 S          -1.9449  -17.7270   18.8604 S.2     1  UNL1       -0.0508
@<TRIPOS>BOND
     1    12    13    1
     2    13    14    1
     3    13    11    1
     4    11     7    1
     5     7     8    2
     6     7     9   am
     7     9     1    1
     8     1     2   ar
     9     2     3   ar
    10     3     4   ar
    11     4    15    1
    12    15    16    2
    13    15    17   am
    14    17    19    1
    15    19    20   ar
    16    20    21   ar
    17    21    22   ar
    18    22    23   ar
    19     4     5   ar
    20     5     6   ar
    21     6     1   ar
    22    23    19   ar
    23     9    10    1
    24    17    18    1
@<TRIPOS>MOLECULE
*****
 23 24 0 0 0
SMALL
GASTEIGER

@<TRIPOS>ATOM
      1 C          -8.8724  -19.6093   22.1983 C.ar    1  UNL1        0.0503
      2 C          -7.7630  -20.3856   22.8437 C.ar    1  UNL1        0.0148
      3 C          -6.3738  -20.3163   22.2822 C.ar    1  UNL1        0.0058
      4 C          -6.0940  -19.4707   21.0753 C.ar    1  UNL1        0.0538
      5 C          -7.2034  -18.6944   20.4299 C.ar    1  UNL1        0.0058
      6 C          -8.5926  -18.7637   20.9914 C.ar    1  UNL1        0.0148
      7 C         -10.6474  -18.8054   23.9168 C.2     1  UNL1        0.2261
      8 O          -9.6438  -17.8628   24.5123 O.2     1  UNL1       -0.2748
      9 N         -10.2616  -19.6786   22.7598 N.am    1  UNL1       -0.2839
     10 H         -10.9203  -20.2972   22.3689 H       1  UNL1        0.1549
     11 C         -12.0366  -18.8747   24.4783 C.3     1  UNL1        0.0854
     12 C         -12.8444  -17.1690   22.6927 C.3     1  UNL1        0.0005
     13 C         -13.1404  -18.0772   23.8492 C.3     1  UNL1        0.0091
     14 C         -14.5402  -18.1880   24.3766 C.3     1  UNL1        0.0005
     15 C          -4.7048  -19.4014   20.5138 C.2     1  UNL1        0.2509
     16 O          -4.1760  -20.5301   19.6793 O.2     1  UNL1       -0.2698
     17 N          -3.8444  -18.2035   20.7868 N.am    1  UNL1       -0.2606
     18 H          -4.1915  -17.4627   21.3345 H       1  UNL1        0.1571
     19 C          -2.4552  -18.1342   20.2252 C.ar    1  UNL1        0.1658
     20 N          -1.1936  -18.5089   20.9449 N.ar    1  UNL1       -0.2224
     21 C          -0.0423  -18.2843   20.0100 C.ar    1  UNL1        0.1079
     22 C          -0.5924  -17.7708   18.7124 C.ar    1  UNL1        0.0588
     23 S          -2.0837  -17.6780   18.8454 S.2     1  UNL1       -0.0508
@<TRIPOS>BOND
     1    12    13    1
     2    13    14    1
     3    13    11    1
     4    11     7    1
     5     7     8    2
     6     7     9   am
     7     9     1    1
     8     1     2   ar
     9     2     3   ar
    10     3     4   ar
    11     4    15    1
    12    15    16    2
    13    15    17   am
    14    17    19    1
    15    19    20   ar
    16    20    21   ar
    17    21    22   ar
    18    22    23   ar
    19     4     5   ar
    20     5     6   ar
    21     6     1   ar
    22    23    19   ar
    23     9    10    1
    24    17    18    1
@<TRIPOS>MOLECULE
*****
 23 24 0 0 0
SMALL
GASTEIGER

@<TRIPOS>ATOM
      1 C          -5.0963  -19.2174   21.7303 C.ar    1  UNL1        0.0503
      2 C          -5.7119  -18.0636   22.4649 C.ar    1  UNL1        0.0148
      3 C          -7.1862  -18.0507   22.7407 C.ar    1  UNL1        0.0058
      4 C          -8.0450  -19.1917   22.2819 C.ar    1  UNL1        0.0538
      5 C          -7.4295  -20.3455   21.5473 C.ar    1  UNL1        0.0058
      6 C          -5.9551  -20.3584   21.2715 C.ar    1  UNL1        0.0148
      7 C          -3.0936  -18.6568   20.1731 C.2     1  UNL1        0.2261
      8 O          -4.0396  -18.0704   19.1675 O.2     1  UNL1       -0.2748
      9 N          -3.6219  -19.2302   21.4545 N.am    1  UNL1       -0.2839
     10 H          -3.0010  -19.6150   22.1145 H       1  UNL1        0.1549
     11 C          -1.6192  -18.6696   19.8973 C.3     1  UNL1        0.0854
     12 C          -1.3717  -16.3863   21.1120 C.3     1  UNL1        0.0005
     13 C          -0.7615  -17.5255   20.3505 C.3     1  UNL1        0.0091
     14 C           0.7065  -17.5205   20.0421 C.3     1  UNL1        0.0005
     15 C          -9.5194  -19.1789   22.5577 C.2     1  UNL1        0.2509
     16 O         -10.4210  -20.1554   21.8624 O.2     1  UNL1       -0.2698
     17 N         -10.0922  -18.1895   23.5288 N.am    1  UNL1       -0.2606
     18 H          -9.5004  -17.5486   23.9852 H       1  UNL1        0.1571
     19 C         -11.5665  -18.1767   23.8046 C.ar    1  UNL1        0.1658
     20 N         -12.2485  -18.8047   24.9838 N.ar    1  UNL1       -0.2224
     21 C         -13.7212  -18.5497   24.8576 C.ar    1  UNL1        0.1079
     22 C         -13.9496  -17.7641   23.6004 C.ar    1  UNL1        0.0588
     23 S         -12.6179  -17.5334   22.9496 S.2     1  UNL1       -0.0508
@<TRIPOS>BOND
     1    12    13    1
     2    13    14    1
     3    13    11    1
     4    11     7    1
     5     7     8    2
     6     7     9   am
     7     9     1    1
     8     1     2   ar
     9     2     3   ar
    10     3     4   ar
    11     4    15    1
    12    15    16    2
    13    15    17   am
    14    17    19    1
    15    19    20   ar
    16    20    21   ar
    17    21    22   ar
    18    22    23   ar
    19     4     5   ar
    20     5     6   ar
    21     6     1   ar
    22    23    19   ar
    23     9    10    1
    24    17    18    1
@<TRIPOS>MOLECULE
*****
 23 24 0 0 0
SMALL
GASTEIGER

@<TRIPOS>ATOM
      1 C          -9.7685  -18.0769   23.1321 C.ar    1  UNL1        0.0503
      2 C          -9.3712  -19.4998   22.8724 C.ar    1  UNL1        0.0148
      3 C          -8.0020  -19.8121   22.3455 C.ar    1  UNL1        0.0058
      4 C          -7.0299  -18.7014   22.0784 C.ar    1  UNL1        0.0538
      5 C          -7.4271  -17.2785   22.3381 C.ar    1  UNL1        0.0058
      6 C          -8.7964  -16.9662   22.8650 C.ar    1  UNL1        0.0148
      7 C         -12.3044  -17.6918   22.7190 C.2     1  UNL1        0.2261
      8 O         -12.1018  -17.9311   21.2521 O.2     1  UNL1       -0.2748
      9 N         -11.1378  -17.7647   23.6590 N.am    1  UNL1       -0.2839
     10 H         -11.2707  -17.6077   24.6217 H       1  UNL1        0.1549
     11 C         -13.6737  -17.3796   23.2458 C.3     1  UNL1        0.0854
     12 C         -13.4677  -18.6181   25.5204 C.3     1  UNL1        0.0005
     13 C         -14.2787  -18.2376   24.3173 C.3     1  UNL1        0.0091
     14 C         -15.6945  -18.7151   24.1855 C.3     1  UNL1        0.0005
     15 C          -5.6606  -19.0136   21.5515 C.2     1  UNL1        0.2509
     16 O          -5.4266  -20.2725   20.7704 O.2     1  UNL1       -0.2698
     17 N          -4.5253  -18.0668   21.8058 N.am    1  UNL1       -0.2606
     18 H          -4.6789  -17.2405   22.3185 H       1  UNL1        0.1571
     19 C          -3.1560  -18.3790   21.2789 C.ar    1  UNL1        0.1658
     20 N          -2.3049  -19.5492   21.6742 N.ar    1  UNL1       -0.2224
     21 C          -1.0203  -19.4693   20.9038 C.ar    1  UNL1        0.1079
     22 C          -1.0775  -18.2497   20.0325 C.ar    1  UNL1        0.0588
     23 S          -2.3974  -17.5758   20.2643 S.2     1  UNL1       -0.0508
@<TRIPOS>BOND
     1    12    13    1
     2    13    14    1
     3    13    11    1
     4    11     7    1
     5     7     8    2
     6     7     9   am
     7     9     1    1
     8     1     2   ar
     9     2     3   ar
    10     3     4   ar
    11     4    15    1
    12    15    16    2
    13    15    17   am
    14    17    19    1
    15    19    20   ar
    16    20    21   ar
    17    21    22   ar
    18    22    23   ar
    19     4     5   ar
    20     5     6   ar
    21     6     1   ar
    22    23    19   ar
    23     9    10    1
    24    17    18    1
@<TRIPOS>MOLECULE
*****
 23 24 0 0 0
SMALL
GASTEIGER

@<TRIPOS>ATOM
      1 C          -8.4493  -17.9728   23.0603 C.ar    1  UNL1        0.0503
      2 C          -7.8164  -19.1242   22.3367 C.ar    1  UNL1        0.0148
      3 C          -6.3439  -19.1124   22.0512 C.ar    1  UNL1        0.0058
      4 C          -5.5043  -17.9491   22.4892 C.ar    1  UNL1        0.0538
      5 C          -6.1372  -16.7977   23.2127 C.ar    1  UNL1        0.0058
      6 C          -7.6098  -16.8096   23.4983 C.ar    1  UNL1        0.0148
      7 C         -10.8876  -17.4559   22.3272 C.2     1  UNL1        0.2261
      8 O         -10.3809  -16.9152   21.0230 O.2     1  UNL1       -0.2748
      9 N          -9.9219  -17.9846   23.3458 N.am    1  UNL1       -0.2839
     10 H         -10.2545  -18.3395   24.2018 H       1  UNL1        0.1549
     11 C         -12.3602  -17.4677   22.6128 C.3     1  UNL1        0.0854
     12 C         -14.3388  -18.0945   24.1755 C.3     1  UNL1        0.0005
     13 C         -12.8840  -18.1849   23.8217 C.3     1  UNL1        0.0091
     14 C         -11.9529  -18.9923   24.6767 C.3     1  UNL1        0.0005
     15 C          -4.0318  -17.9373   22.2036 C.2     1  UNL1        0.2509
     16 O          -3.0487  -18.0789   23.3276 O.2     1  UNL1       -0.2698
     17 N          -3.5424  -17.7839   20.7941 N.am    1  UNL1       -0.2606
     18 H          -4.1876  -17.6910   20.0563 H       1  UNL1        0.1571
     19 C          -2.0698  -17.7721   20.5085 C.ar    1  UNL1        0.1658
     20 N          -1.1577  -16.5875   20.6298 N.ar    1  UNL1       -0.2224
     21 C           0.2250  -17.0261   20.2478 C.ar    1  UNL1        0.1079
     22 C           0.1674  -18.4817   19.8904 C.ar    1  UNL1        0.0588
     23 S          -1.2509  -18.9429   20.0515 S.2     1  UNL1       -0.0508
@<TRIPOS>BOND
     1    12    13    1
     2    13    14    1
     3    13    11    1
     4    11     7    1
     5     7     8    2
     6     7     9   am
     7     9     1    1
     8     1     2   ar
     9     2     3   ar
    10     3     4   ar
    11     4    15    1
    12    15    16    2
    13    15    17   am
    14    17    19    1
    15    19    20   ar
    16    20    21   ar
    17    21    22   ar
    18    22    23   ar
    19     4     5   ar
    20     5     6   ar
    21     6     1   ar
    22    23    19   ar
    23     9    10    1
    24    17    18    1
@<TRIPOS>MOLECULE
*****
 23 24 0 0 0
SMALL
GASTEIGER

@<TRIPOS>ATOM
      1 C           2.6658   -0.1359   19.6420 C.ar    1  UNL1        0.0503
      2 C           1.3411   -0.5340   20.2220 C.ar    1  UNL1        0.0148
      3 C           0.2275    0.4675   20.3056 C.ar    1  UNL1        0.0058
      4 C           0.4387    1.8671   19.8092 C.ar    1  UNL1        0.0538
      5 C           1.7635    2.2652   19.2292 C.ar    1  UNL1        0.0058
      6 C           2.8770    1.2637   19.1456 C.ar    1  UNL1        0.0148
      7 C           4.2722   -1.6009   18.2197 C.2     1  UNL1        0.2261
      8 O           3.6515   -1.0630   16.9645 O.2     1  UNL1       -0.2748
      9 N           3.7794   -1.1374   19.5584 N.am    1  UNL1       -0.2839
     10 H           4.1868   -1.4905   20.3822 H       1  UNL1        0.1549
     11 C           5.3858   -2.6024   18.1361 C.3     1  UNL1        0.0854
     12 C           6.3919   -3.7963   20.2127 C.3     1  UNL1        0.0005
     13 C           5.4147   -3.7720   19.0749 C.3     1  UNL1        0.0091
     14 C           4.4666   -4.9171   18.8760 C.3     1  UNL1        0.0005
     15 C          -0.6749    2.8686   19.8929 C.2     1  UNL1        0.2509
     16 O          -0.5561    4.1834   19.1808 O.2     1  UNL1       -0.2698
     17 N          -1.9072    2.5552   20.6886 N.am    1  UNL1       -0.2606
     18 H          -1.9851    1.6923   21.1560 H       1  UNL1        0.1571
     19 C          -3.0207    3.5567   20.7722 C.ar    1  UNL1        0.1658
     20 N          -4.1452    3.7089   19.7912 N.ar    1  UNL1       -0.2224
     21 C          -5.0248    4.8281   20.2642 C.ar    1  UNL1        0.1079
     22 C          -4.4439    5.3677   21.5376 C.ar    1  UNL1        0.0588
     23 S          -3.2053    4.5819   21.8516 S.2     1  UNL1       -0.0508
@<TRIPOS>BOND
     1    12    13    1
     2    13    14    1
     3    13    11    1
     4    11     7    1
     5     7     8    2
     6     7     9   am
     7     9     1    1
     8     1     2   ar
     9     2     3   ar
    10     3     4   ar
    11     4    15    1
    12    15    16    2
    13    15    17   am
    14    17    19    1
    15    19    20   ar
    16    20    21   ar
    17    21    22   ar
    18    22    23   ar
    19     4     5   ar
    20     5     6   ar
    21     6     1   ar
    22    23    19   ar
    23     9    10    1
    24    17    18    1
@<TRIPOS>MOLECULE
*****
 23 24 0 0 0
SMALL
GASTEIGER

@<TRIPOS>ATOM
      1 C           4.8916   -0.5586   34.3438 C.ar    1  UNL1        0.0503
      2 C           6.0714   -0.0616   33.5621 C.ar    1  UNL1        0.0148
      3 C           6.6208   -0.8803   32.4316 C.ar    1  UNL1        0.0058
      4 C           5.9904   -2.1959   32.0828 C.ar    1  UNL1        0.0538
      5 C           4.8106   -2.6929   32.8645 C.ar    1  UNL1        0.0058
      6 C           4.2612   -1.8742   33.9950 C.ar    1  UNL1        0.0148
      7 C           5.0358    0.2631   36.8043 C.2     1  UNL1        0.2261
      8 O           6.2789   -0.5525   37.0038 O.2     1  UNL1       -0.2748
      9 N           4.3423    0.2600   35.4743 N.am    1  UNL1       -0.2839
     10 H           3.5265    0.7953   35.3434 H       1  UNL1        0.1549
     11 C           4.4865    1.0817   37.9348 C.3     1  UNL1        0.0854
     12 C           2.0357    0.7447   38.7286 C.3     1  UNL1        0.0005
     13 C           3.0475    1.5053   37.9239 C.3     1  UNL1        0.0091
     14 C           2.6205    2.6895   37.1083 C.3     1  UNL1        0.0005
     15 C           6.5398   -3.0145   30.9523 C.2     1  UNL1        0.2509
     16 O           7.1465   -2.3356   29.7604 O.2     1  UNL1       -0.2698
     17 N           6.4824   -4.5122   31.0138 N.am    1  UNL1       -0.2606
     18 H           6.0841   -4.9578   31.7961 H       1  UNL1        0.1571
     19 C           7.0318   -5.3308   29.8833 C.ar    1  UNL1        0.1658
     20 N           6.4670   -5.4094   28.4959 N.ar    1  UNL1       -0.2224
     21 C           7.3286   -6.3418   27.6969 C.ar    1  UNL1        0.1079
     22 C           8.4258   -6.8394   28.5904 C.ar    1  UNL1        0.0588
     23 S           8.2424   -6.2146   29.9418 S.2     1  UNL1       -0.0508
@<TRIPOS>BOND
     1    12    13    1
     2    13    14    1
     3    13    11    1
     4    11     7    1
     5     7     8    2
     6     7     9   am
     7     9     1    1
     8     1     2   ar
     9     2     3   ar
    10     3     4   ar
    11     4    15    1
    12    15    16    2
    13    15    17   am
    14    17    19    1
    15    19    20   ar
    16    20    21   ar
    17    21    22   ar
    18    22    23   ar
    19     4     5   ar
    20     5     6   ar
    21     6     1   ar
    22    23    19   ar
    23     9    10    1
    24    17    18    1
@<TRIPOS>MOLECULE
*****
 23 24 0 0 0
SMALL
GASTEIGER

@<TRIPOS>ATOM
      1 C           6.4985   -3.2976   21.9810 C.ar    1  UNL1        0.0503
      2 C           7.5399   -4.3647   22.1439 C.ar    1  UNL1        0.0148
      3 C           7.7674   -4.9920   23.4873 C.ar    1  UNL1        0.0058
      4 C           6.9534   -4.5521   24.6679 C.ar    1  UNL1        0.0538
      5 C           5.9119   -3.4850   24.5051 C.ar    1  UNL1        0.0058
      6 C           5.6845   -2.8578   23.1616 C.ar    1  UNL1        0.0148
      7 C           5.3770   -3.3422   19.6379 C.2     1  UNL1        0.2261
      8 O           4.7105   -4.6414   19.9816 O.2     1  UNL1       -0.2748
      9 N           6.2710   -2.6704   20.6376 N.am    1  UNL1       -0.2839
     10 H           6.7085   -1.8178   20.4120 H       1  UNL1        0.1549
     11 C           5.1496   -2.7150   18.2945 C.3     1  UNL1        0.0854
     12 C           3.2134   -1.2884   19.2774 C.3     1  UNL1        0.0005
     13 C           4.1261   -1.6297   18.1371 C.3     1  UNL1        0.0091
     14 C           4.0155   -0.8857   16.8393 C.3     1  UNL1        0.0005
     15 C           7.1809   -5.1793   26.0114 C.2     1  UNL1        0.2509
     16 O           7.1276   -6.6708   26.1615 O.2     1  UNL1       -0.2698
     17 N           7.4616   -4.3150   27.2047 N.am    1  UNL1       -0.2606
     18 H           7.4966   -3.3361   27.1063 H       1  UNL1        0.1571
     19 C           7.6891   -4.9423   28.5482 C.ar    1  UNL1        0.1658
     20 N           6.6369   -5.2229   29.5798 N.ar    1  UNL1       -0.2224
     21 C           7.3062   -5.8530   30.7651 C.ar    1  UNL1        0.1079
     22 C           8.7721   -5.9619   30.4661 C.ar    1  UNL1        0.0588
     23 S           9.0088   -5.3990   29.0959 S.2     1  UNL1       -0.0508
@<TRIPOS>BOND
     1    12    13    1
     2    13    14    1
     3    13    11    1
     4    11     7    1
     5     7     8    2
     6     7     9   am
     7     9     1    1
     8     1     2   ar
     9     2     3   ar
    10     3     4   ar
    11     4    15    1
    12    15    16    2
    13    15    17   am
    14    17    19    1
    15    19    20   ar
    16    20    21   ar
    17    21    22   ar
    18    22    23   ar
    19     4     5   ar
    20     5     6   ar
    21     6     1   ar
    22    23    19   ar
    23     9    10    1
    24    17    18    1
@<TRIPOS>MOLECULE
*****
 23 24 0 0 0
SMALL
GASTEIGER

@<TRIPOS>ATOM
      1 C           3.1733   -1.0815   19.0887 C.ar    1  UNL1        0.0503
      2 C           2.0875   -1.2658   20.1070 C.ar    1  UNL1        0.0148
      3 C           1.0230   -0.2211   20.2658 C.ar    1  UNL1        0.0058
      4 C           1.0442    1.0081   19.4064 C.ar    1  UNL1        0.0538
      5 C           2.1300    1.1924   18.3881 C.ar    1  UNL1        0.0058
      6 C           3.1945    0.1477   18.2292 C.ar    1  UNL1        0.0148
      7 C           5.4042   -2.1579   19.8725 C.2     1  UNL1        0.2261
      8 O           5.5060   -1.1448   20.9740 O.2     1  UNL1       -0.2748
      9 N           4.2378   -2.1262   18.9298 N.am    1  UNL1       -0.2839
     10 H           4.1710   -2.7912   18.2069 H       1  UNL1        0.1549
     11 C           6.4687   -3.2027   19.7136 C.3     1  UNL1        0.0854
     12 C           8.7106   -3.6000   20.9650 C.3     1  UNL1        0.0005
     13 C           7.9078   -2.8483   19.9450 C.3     1  UNL1        0.0091
     14 C           8.5440   -1.7423   19.1565 C.3     1  UNL1        0.0005
     15 C          -0.0203    2.0528   19.5652 C.2     1  UNL1        0.2509
     16 O          -0.2812    3.0320   18.4593 O.2     1  UNL1       -0.2698
     17 N          -0.8240    2.1184   20.8300 N.am    1  UNL1       -0.2606
     18 H          -0.6528    1.4758   21.5559 H       1  UNL1        0.1571
     19 C          -1.8885    3.1632   20.9889 C.ar    1  UNL1        0.1658
     20 N          -3.3583    2.9657   20.7637 N.ar    1  UNL1       -0.2224
     21 C          -4.0484    4.2693   21.0364 C.ar    1  UNL1        0.1079
     22 C          -3.0051    5.2725   21.4302 C.ar    1  UNL1        0.0588
     23 S          -1.6701    4.5890   21.4009 S.2     1  UNL1       -0.0508
@<TRIPOS>BOND
     1    12    13    1
     2    13    14    1
     3    13    11    1
     4    11     7    1
     5     7     8    2
     6     7     9   am
     7     9     1    1
     8     1     2   ar
     9     2     3   ar
    10     3     4   ar
    11     4    15    1
    12    15    16    2
    13    15    17   am
    14    17    19    1
    15    19    20   ar
    16    20    21   ar
    17    21    22   ar
    18    22    23   ar
    19     4     5   ar
    20     5     6   ar
    21     6     1   ar
    22    23    19   ar
    23     9    10    1
    24    17    18    1
