@<TRIPOS>MOLECULE
*****
 30 33 0 0 0
SMALL
GASTEIGER

@<TRIPOS>ATOM
      1 N          -7.9891  -19.5938   21.4191 N.3     1  UNL1       -0.2679
      2 C          -8.6379  -19.1948   22.7113 C.3     1  UNL1        0.0978
      3 C          -9.4910  -20.1776   23.4571 C.3     1  UNL1        0.0224
      4 C         -10.1398  -19.7785   24.7493 C.3     1  UNL1        0.0065
      5 C          -9.9356  -18.3966   25.2957 C.3     1  UNL1        0.0277
      6 C          -9.0825  -17.4138   24.5499 C.ar    1  UNL1       -0.0073
      7 C          -8.8782  -16.0318   25.0964 C.ar    1  UNL1       -0.0015
      8 C          -8.0251  -15.0490   24.3506 C.ar    1  UNL1        0.0203
      9 C          -7.3762  -15.4481   23.0584 C.ar    1  UNL1        0.0985
     10 N          -7.5805  -16.8300   22.5120 N.ar    1  UNL1       -0.2471
     11 C          -8.4336  -17.8129   23.2577 C.ar    1  UNL1        0.0695
     12 C          -8.6716  -19.3020   20.1157 C.3     1  UNL1        0.0725
     13 C         -10.1682  -19.3479   20.0260 C.3     1  UNL1        0.0187
     14 C         -10.9422  -18.0921   19.7539 C.3     1  UNL1        0.0183
     15 N         -10.2074  -15.8439   20.8290 N.3     1  UNL1       -0.3211
     16 C         -11.0916  -17.0557   20.8278 C.3     1  UNL1        0.0652
     17 H         -10.4449  -15.2505   21.6239 H       1  UNL1        0.1189
     18 H         -10.3438  -15.3227   19.9629 H       1  UNL1        0.1189
     19 C          -6.6578  -20.2847   21.4303 C.3     1  UNL1        0.0886
     20 C          -5.3937  -19.4771   21.4429 C.3     1  UNL1        0.0749
     21 C          -4.5194  -19.4336   20.2249 C.3     1  UNL1        0.0447
     22 C          -3.2553  -18.6260   20.2375 C.ar    1  UNL1       -0.0058
     23 C          -2.3810  -18.5825   19.0195 C.ar    1  UNL1       -0.0014
     24 C          -1.1171  -17.7749   19.0321 C.ar    1  UNL1        0.0203
     25 C          -0.7274  -17.0109   20.2627 C.ar    1  UNL1        0.0985
     26 N          -1.6017  -17.0544   21.4807 N.ar    1  UNL1       -0.2471
     27 C          -2.8657  -17.8620   21.4681 C.ar    1  UNL1        0.0710
     28 C          -3.7401  -17.9055   22.6862 C.3     1  UNL1        0.1148
     29 N          -5.0041  -18.7131   22.6736 N.3     1  UNL1       -0.2921
     30 H          -5.7680  -18.0675   22.8735 H       1  UNL1        0.1236
@<TRIPOS>BOND
     1    15    16    1
     2    16    14    1
     3    14    13    1
     4    13    12    1
     5    12     1    1
     6     1    19    1
     7    20    19    1
     8    20    21    1
     9    21    22    1
    10    22    23   ar
    11    23    24   ar
    12    24    25   ar
    13    25    26   ar
    14    26    27   ar
    15    27    28    1
    16    28    29    1
    17     2     1    1
    18     2     3    1
    19     3     4    1
    20     4     5    1
    21     5     6    1
    22     6     7   ar
    23     7     8   ar
    24     8     9   ar
    25     9    10   ar
    26    10    11   ar
    27    29    20    1
    28    11     2    1
    29    27    22   ar
    30    11     6   ar
    31    15    17    1
    32    15    18    1
    33    29    30    1
@<TRIPOS>MOLECULE
*****
 30 33 0 0 0
SMALL
GASTEIGER

@<TRIPOS>ATOM
      1 N         -10.4603  -18.1310   21.5660 N.3     1  UNL1       -0.2679
      2 C          -9.6593  -18.9547   20.6016 C.3     1  UNL1        0.0978
      3 C         -10.3092  -19.5091   19.3687 C.3     1  UNL1        0.0224
      4 C          -9.5082  -20.3328   18.4044 C.3     1  UNL1        0.0065
      5 C          -8.0573  -20.6020   18.6730 C.3     1  UNL1        0.0277
      6 C          -7.4073  -20.0476   19.9059 C.ar    1  UNL1       -0.0073
      7 C          -5.9563  -20.3168   20.1746 C.ar    1  UNL1       -0.0015
      8 C          -5.3064  -19.7624   21.4075 C.ar    1  UNL1        0.0203
      9 C          -6.1074  -18.9388   22.3718 C.ar    1  UNL1        0.0985
     10 N          -7.5583  -18.6695   22.1032 N.ar    1  UNL1       -0.2471
     11 C          -8.2084  -19.2239   20.8702 C.ar    1  UNL1        0.0695
     12 C         -11.5609  -18.7674   22.3620 C.3     1  UNL1        0.0725
     13 C         -12.7979  -17.9851   22.6905 C.3     1  UNL1        0.0187
     14 C         -13.1790  -17.7508   24.1222 C.3     1  UNL1        0.0183
     15 N         -14.4978  -18.6510   26.1717 N.3     1  UNL1       -0.3211
     16 C         -14.3950  -18.4178   24.6935 C.3     1  UNL1        0.0652
     17 H         -15.3833  -19.1113   26.3825 H       1  UNL1        0.1189
     18 H         -14.4545  -17.7569   26.6608 H       1  UNL1        0.1189
     19 C         -10.1608  -16.6709   21.7343 C.3     1  UNL1        0.0886
     20 C          -9.1168  -16.2277   22.7160 C.3     1  UNL1        0.0749
     21 C          -9.3274  -16.4470   24.1849 C.3     1  UNL1        0.0447
     22 C          -8.2834  -16.0038   25.1666 C.ar    1  UNL1       -0.0058
     23 C          -8.4940  -16.2230   26.6355 C.ar    1  UNL1       -0.0014
     24 C          -7.4500  -15.7798   27.6171 C.ar    1  UNL1        0.0203
     25 C          -6.1955  -15.1174   27.1299 C.ar    1  UNL1        0.0985
     26 N          -5.9849  -14.8982   25.6611 N.ar    1  UNL1       -0.2471
     27 C          -7.0288  -15.3414   24.6794 C.ar    1  UNL1        0.0710
     28 C          -6.8183  -15.1222   23.2105 C.3     1  UNL1        0.1148
     29 N          -7.8623  -15.5654   22.2288 N.3     1  UNL1       -0.2921
     30 H          -7.4094  -16.2231   21.5942 H       1  UNL1        0.1236
@<TRIPOS>BOND
     1    15    16    1
     2    16    14    1
     3    14    13    1
     4    13    12    1
     5    12     1    1
     6     1    19    1
     7    20    19    1
     8    20    21    1
     9    21    22    1
    10    22    23   ar
    11    23    24   ar
    12    24    25   ar
    13    25    26   ar
    14    26    27   ar
    15    27    28    1
    16    28    29    1
    17     2     1    1
    18     2     3    1
    19     3     4    1
    20     4     5    1
    21     5     6    1
    22     6     7   ar
    23     7     8   ar
    24     8     9   ar
    25     9    10   ar
    26    10    11   ar
    27    29    20    1
    28    11     2    1
    29    27    22   ar
    30    11     6   ar
    31    15    17    1
    32    15    18    1
    33    29    30    1
@<TRIPOS>MOLECULE
*****
 30 33 0 0 0
SMALL
GASTEIGER

@<TRIPOS>ATOM
      1 N          -7.8213  -18.1346   22.6955 N.3     1  UNL1       -0.2679
      2 C          -9.2623  -18.3106   23.0734 C.3     1  UNL1        0.0978
      3 C          -9.6276  -19.1275   24.2772 C.3     1  UNL1        0.0224
      4 C         -11.0685  -19.3035   24.6551 C.3     1  UNL1        0.0065
      5 C         -12.1441  -18.6626   23.8291 C.3     1  UNL1        0.0277
      6 C         -11.7788  -17.8458   22.6253 C.ar    1  UNL1       -0.0073
      7 C         -12.8545  -17.2049   21.7992 C.ar    1  UNL1       -0.0015
      8 C         -12.4892  -16.3880   20.5954 C.ar    1  UNL1        0.0203
      9 C         -11.0482  -16.2120   20.2175 C.ar    1  UNL1        0.0985
     10 N          -9.9726  -16.8529   21.0435 N.ar    1  UNL1       -0.2471
     11 C         -10.3379  -17.6698   22.2474 C.ar    1  UNL1        0.0695
     12 C          -7.0829  -16.8968   23.1107 C.3     1  UNL1        0.0725
     13 C          -7.7861  -15.8337   23.9017 C.3     1  UNL1        0.0187
     14 C          -7.8956  -15.9571   25.3925 C.3     1  UNL1        0.0183
     15 N          -5.6823  -14.6250   25.6695 N.3     1  UNL1       -0.3211
     16 C          -6.8157  -15.4009   26.2724 C.3     1  UNL1        0.0652
     17 H          -5.0454  -14.3246   26.4074 H       1  UNL1        0.1189
     18 H          -6.0505  -13.8068   25.1842 H       1  UNL1        0.1189
     19 C          -7.1189  -19.1965   21.9025 C.3     1  UNL1        0.0886
     20 C          -5.6386  -19.1077   21.6762 C.3     1  UNL1        0.0749
     21 C          -5.1090  -18.5995   20.3681 C.3     1  UNL1        0.0447
     22 C          -3.6288  -18.5107   20.1418 C.ar    1  UNL1       -0.0058
     23 C          -3.0992  -18.0025   18.8337 C.ar    1  UNL1       -0.0014
     24 C          -1.6191  -17.9138   18.6075 C.ar    1  UNL1        0.0203
     25 C          -0.6685  -18.3332   19.6894 C.ar    1  UNL1        0.0985
     26 N          -1.1981  -18.8414   20.9975 N.ar    1  UNL1       -0.2471
     27 C          -2.6782  -18.9302   21.2237 C.ar    1  UNL1        0.0710
     28 C          -3.2079  -19.4384   22.5319 C.3     1  UNL1        0.1148
     29 N          -4.6881  -19.5272   22.7581 N.3     1  UNL1       -0.2921
     30 H          -4.8965  -18.9503   23.5731 H       1  UNL1        0.1236
@<TRIPOS>BOND
     1    15    16    1
     2    16    14    1
     3    14    13    1
     4    13    12    1
     5    12     1    1
     6     1    19    1
     7    20    19    1
     8    20    21    1
     9    21    22    1
    10    22    23   ar
    11    23    24   ar
    12    24    25   ar
    13    25    26   ar
    14    26    27   ar
    15    27    28    1
    16    28    29    1
    17     2     1    1
    18     2     3    1
    19     3     4    1
    20     4     5    1
    21     5     6    1
    22     6     7   ar
    23     7     8   ar
    24     8     9   ar
    25     9    10   ar
    26    10    11   ar
    27    29    20    1
    28    11     2    1
    29    27    22   ar
    30    11     6   ar
    31    15    17    1
    32    15    18    1
    33    29    30    1
@<TRIPOS>MOLECULE
*****
 30 33 0 0 0
SMALL
GASTEIGER

@<TRIPOS>ATOM
      1 N          -5.6486  -16.6011   23.4305 N.3     1  UNL1       -0.2679
      2 C          -5.1635  -17.7254   22.5641 C.3     1  UNL1        0.0978
      3 C          -6.0193  -18.9409   22.3638 C.3     1  UNL1        0.0224
      4 C          -5.5342  -20.0652   21.4974 C.3     1  UNL1        0.0065
      5 C          -4.1933  -19.9739   20.8313 C.3     1  UNL1        0.0277
      6 C          -3.3376  -18.7584   21.0316 C.ar    1  UNL1       -0.0073
      7 C          -1.9966  -18.6672   20.3655 C.ar    1  UNL1       -0.0015
      8 C          -1.1409  -17.4517   20.5658 C.ar    1  UNL1        0.0203
      9 C          -1.6260  -16.3274   21.4323 C.ar    1  UNL1        0.0985
     10 N          -2.9668  -16.4186   22.0983 N.ar    1  UNL1       -0.2471
     11 C          -3.8227  -17.6342   21.8980 C.ar    1  UNL1        0.0695
     12 C          -5.1487  -16.4699   24.8387 C.3     1  UNL1        0.0725
     13 C          -5.5611  -15.2946   25.6745 C.3     1  UNL1        0.0187
     14 C          -6.2886  -15.5126   26.9680 C.3     1  UNL1        0.0183
     15 N          -8.5457  -16.7502   27.3202 N.3     1  UNL1       -0.3211
     16 C          -7.7882  -15.4964   26.9970 C.3     1  UNL1        0.0652
     17 H          -9.5471  -16.5584   27.2952 H       1  UNL1        0.1189
     18 H          -8.2847  -17.0747   28.2513 H       1  UNL1        0.1189
     19 C          -6.6336  -15.6080   22.8888 C.3     1  UNL1        0.0886
     20 C          -8.0758  -15.9903   22.7334 C.3     1  UNL1        0.0749
     21 C          -8.7126  -16.9296   23.7143 C.3     1  UNL1        0.0447
     22 C         -10.1547  -17.3119   23.5589 C.ar    1  UNL1       -0.0058
     23 C         -10.7915  -18.2512   24.5397 C.ar    1  UNL1       -0.0014
     24 C         -12.2336  -18.6335   24.3843 C.ar    1  UNL1        0.0203
     25 C         -13.0389  -18.0764   23.2480 C.ar    1  UNL1        0.0985
     26 N         -12.4021  -17.1371   22.2671 N.ar    1  UNL1       -0.2471
     27 C         -10.9600  -16.7549   22.4226 C.ar    1  UNL1        0.0710
     28 C         -10.3232  -15.8155   21.4417 C.3     1  UNL1        0.1148
     29 N          -8.8811  -15.4332   21.5971 N.3     1  UNL1       -0.2921
     30 H          -8.8537  -14.4176   21.6870 H       1  UNL1        0.1236
@<TRIPOS>BOND
     1    15    16    1
     2    16    14    1
     3    14    13    1
     4    13    12    1
     5    12     1    1
     6     1    19    1
     7    20    19    1
     8    20    21    1
     9    21    22    1
    10    22    23   ar
    11    23    24   ar
    12    24    25   ar
    13    25    26   ar
    14    26    27   ar
    15    27    28    1
    16    28    29    1
    17     2     1    1
    18     2     3    1
    19     3     4    1
    20     4     5    1
    21     5     6    1
    22     6     7   ar
    23     7     8   ar
    24     8     9   ar
    25     9    10   ar
    26    10    11   ar
    27    29    20    1
    28    11     2    1
    29    27    22   ar
    30    11     6   ar
    31    15    17    1
    32    15    18    1
    33    29    30    1
@<TRIPOS>MOLECULE
*****
 30 33 0 0 0
SMALL
GASTEIGER

@<TRIPOS>ATOM
      1 N          -7.5957  -18.9413   21.6363 N.3     1  UNL1       -0.2679
      2 C          -8.9164  -19.1575   22.3137 C.3     1  UNL1        0.0978
      3 C          -9.0236  -20.1221   23.4574 C.3     1  UNL1        0.0224
      4 C         -10.3444  -20.3384   24.1348 C.3     1  UNL1        0.0065
      5 C         -11.5579  -19.5901   23.6685 C.3     1  UNL1        0.0277
      6 C         -11.4506  -18.6256   22.5248 C.ar    1  UNL1       -0.0073
      7 C         -12.6642  -17.8773   22.0584 C.ar    1  UNL1       -0.0015
      8 C         -12.5569  -16.9127   20.9147 C.ar    1  UNL1        0.0203
      9 C         -11.2362  -16.6965   20.2373 C.ar    1  UNL1        0.0985
     10 N         -10.0227  -17.4447   20.7036 N.ar    1  UNL1       -0.2471
     11 C         -10.1299  -18.4093   21.8474 C.ar    1  UNL1        0.0695
     12 C          -6.9170  -20.0803   20.9350 C.3     1  UNL1        0.0725
     13 C          -5.8136  -19.8079   19.9560 C.3     1  UNL1        0.0187
     14 C          -4.4274  -20.3116   20.2290 C.3     1  UNL1        0.0183
     15 N          -2.1772  -20.0938   21.5094 N.3     1  UNL1       -0.3211
     16 C          -3.6202  -19.7182   21.3454 C.3     1  UNL1        0.0652
     17 H          -1.7867  -19.6006   22.3123 H       1  UNL1        0.1189
     18 H          -1.6611  -19.8362   20.6682 H       1  UNL1        0.1189
     19 C          -6.9536  -17.5859   21.6602 C.3     1  UNL1        0.0886
     20 C          -6.6819  -16.9076   22.9703 C.3     1  UNL1        0.0749
     21 C          -7.8080  -16.6412   23.9246 C.3     1  UNL1        0.0447
     22 C          -7.5363  -15.9629   25.2347 C.ar    1  UNL1       -0.0058
     23 C          -8.6624  -15.6965   26.1891 C.ar    1  UNL1       -0.0014
     24 C          -8.3907  -15.0183   27.4991 C.ar    1  UNL1        0.0203
     25 C          -6.9929  -14.6066   27.8548 C.ar    1  UNL1        0.0985
     26 N          -5.8667  -14.8730   26.9004 N.ar    1  UNL1       -0.2471
     27 C          -6.1385  -15.5512   25.5904 C.ar    1  UNL1        0.0710
     28 C          -5.0123  -15.8177   24.6360 C.3     1  UNL1        0.1148
     29 N          -5.2840  -16.4959   23.3260 N.3     1  UNL1       -0.2921
     30 H          -4.7145  -17.3419   23.3087 H       1  UNL1        0.1236
@<TRIPOS>BOND
     1    15    16    1
     2    16    14    1
     3    14    13    1
     4    13    12    1
     5    12     1    1
     6     1    19    1
     7    20    19    1
     8    20    21    1
     9    21    22    1
    10    22    23   ar
    11    23    24   ar
    12    24    25   ar
    13    25    26   ar
    14    26    27   ar
    15    27    28    1
    16    28    29    1
    17     2     1    1
    18     2     3    1
    19     3     4    1
    20     4     5    1
    21     5     6    1
    22     6     7   ar
    23     7     8   ar
    24     8     9   ar
    25     9    10   ar
    26    10    11   ar
    27    29    20    1
    28    11     2    1
    29    27    22   ar
    30    11     6   ar
    31    15    17    1
    32    15    18    1
    33    29    30    1
@<TRIPOS>MOLECULE
*****
 30 33 0 0 0
SMALL
GASTEIGER

@<TRIPOS>ATOM
      1 N          -7.4210  -18.0037   22.1806 N.3     1  UNL1       -0.2679
      2 C          -8.5896  -18.4412   21.3482 C.3     1  UNL1        0.0978
      3 C          -8.3678  -19.2895   20.1312 C.3     1  UNL1        0.0224
      4 C          -9.5365  -19.7271   19.2988 C.3     1  UNL1        0.0065
      5 C         -10.9269  -19.3162   19.6833 C.3     1  UNL1        0.0277
      6 C         -11.1487  -18.4679   20.9003 C.ar    1  UNL1       -0.0073
      7 C         -12.5391  -18.0570   21.2850 C.ar    1  UNL1       -0.0015
      8 C         -12.7609  -17.2087   22.5019 C.ar    1  UNL1        0.0203
      9 C         -11.5923  -16.7712   23.3344 C.ar    1  UNL1        0.0985
     10 N         -10.2019  -17.1820   22.9498 N.ar    1  UNL1       -0.2471
     11 C          -9.9801  -18.0304   21.7327 C.ar    1  UNL1        0.0695
     12 C          -7.3103  -16.5757   22.6261 C.3     1  UNL1        0.0725
     13 C          -6.7782  -16.2550   23.9914 C.3     1  UNL1        0.0187
     14 C          -7.6029  -15.4439   24.9464 C.3     1  UNL1        0.0183
     15 N          -8.3314  -14.8900   27.3779 N.3     1  UNL1       -0.3211
     16 C          -7.5657  -15.7480   26.4147 C.3     1  UNL1        0.0652
     17 H          -8.1940  -15.2382   28.3268 H       1  UNL1        0.1189
     18 H          -9.3240  -14.9201   27.1451 H       1  UNL1        0.1189
     19 C          -6.3631  -18.9942   22.5675 C.3     1  UNL1        0.0886
     20 C          -4.9325  -18.7502   22.1881 C.3     1  UNL1        0.0749
     21 C          -4.5441  -18.6657   20.7417 C.3     1  UNL1        0.0447
     22 C          -3.1135  -18.4218   20.3623 C.ar    1  UNL1       -0.0058
     23 C          -2.7251  -18.3373   18.9160 C.ar    1  UNL1       -0.0014
     24 C          -1.2945  -18.0934   18.5366 C.ar    1  UNL1        0.0203
     25 C          -0.2524  -17.9339   19.6036 C.ar    1  UNL1        0.0985
     26 N          -0.6408  -18.0184   21.0499 N.ar    1  UNL1       -0.2471
     27 C          -2.0713  -18.2623   21.4293 C.ar    1  UNL1        0.0710
     28 C          -2.4598  -18.3468   22.8757 C.3     1  UNL1        0.1148
     29 N          -3.8903  -18.5907   23.2551 N.3     1  UNL1       -0.2921
     30 H          -4.1799  -17.8025   23.8341 H       1  UNL1        0.1236
@<TRIPOS>BOND
     1    15    16    1
     2    16    14    1
     3    14    13    1
     4    13    12    1
     5    12     1    1
     6     1    19    1
     7    20    19    1
     8    20    21    1
     9    21    22    1
    10    22    23   ar
    11    23    24   ar
    12    24    25   ar
    13    25    26   ar
    14    26    27   ar
    15    27    28    1
    16    28    29    1
    17     2     1    1
    18     2     3    1
    19     3     4    1
    20     4     5    1
    21     5     6    1
    22     6     7   ar
    23     7     8   ar
    24     8     9   ar
    25     9    10   ar
    26    10    11   ar
    27    29    20    1
    28    11     2    1
    29    27    22   ar
    30    11     6   ar
    31    15    17    1
    32    15    18    1
    33    29    30    1
@<TRIPOS>MOLECULE
*****
 30 33 0 0 0
SMALL
GASTEIGER

@<TRIPOS>ATOM
      1 N          -5.3312  -16.9244   23.4203 N.3     1  UNL1       -0.2679
      2 C          -4.3252  -17.7704   22.6977 C.3     1  UNL1        0.0978
      3 C          -2.8586  -17.5275   22.8981 C.3     1  UNL1        0.0224
      4 C          -1.8526  -18.3735   22.1755 C.3     1  UNL1        0.0065
      5 C          -2.3131  -19.4624   21.2524 C.3     1  UNL1        0.0277
      6 C          -3.7796  -19.7053   21.0519 C.ar    1  UNL1       -0.0073
      7 C          -4.2402  -20.7943   20.1288 C.ar    1  UNL1       -0.0015
      8 C          -5.7068  -21.0372   19.9283 C.ar    1  UNL1        0.0203
      9 C          -6.7128  -20.1912   20.6510 C.ar    1  UNL1        0.0985
     10 N          -6.2523  -19.1023   21.5741 N.ar    1  UNL1       -0.2471
     11 C          -4.7857  -18.8593   21.7746 C.ar    1  UNL1        0.0695
     12 C          -5.0430  -15.4760   23.6826 C.3     1  UNL1        0.0725
     13 C          -5.6494  -14.7942   24.8733 C.3     1  UNL1        0.0187
     14 C          -5.4054  -15.3338   26.2514 C.3     1  UNL1        0.0183
     15 N          -7.8538  -14.9586   27.0356 N.3     1  UNL1       -0.3211
     16 C          -6.5644  -15.7204   27.1215 C.3     1  UNL1        0.0652
     17 H          -8.5268  -15.3542   27.6921 H       1  UNL1        0.1189
     18 H          -8.2247  -15.0239   26.0877 H       1  UNL1        0.1189
     19 C          -6.6254  -17.5269   23.8806 C.3     1  UNL1        0.0886
     20 C          -7.9057  -17.1788   23.1807 C.3     1  UNL1        0.0749
     21 C          -9.2030  -17.7631   23.6557 C.3     1  UNL1        0.0447
     22 C         -10.4832  -17.4150   22.9557 C.ar    1  UNL1       -0.0058
     23 C         -11.7805  -17.9993   23.4307 C.ar    1  UNL1       -0.0014
     24 C         -13.0607  -17.6511   22.7308 C.ar    1  UNL1        0.0203
     25 C         -13.0436  -16.7187   21.5559 C.ar    1  UNL1        0.0985
     26 N         -11.7463  -16.1344   21.0810 N.ar    1  UNL1       -0.2471
     27 C         -10.4661  -16.4826   21.7809 C.ar    1  UNL1        0.0710
     28 C          -9.1687  -15.8983   21.3059 C.3     1  UNL1        0.1148
     29 N          -7.8886  -16.2464   22.0059 N.3     1  UNL1       -0.2921
     30 H          -7.4834  -15.3690   22.3321 H       1  UNL1        0.1236
@<TRIPOS>BOND
     1    15    16    1
     2    16    14    1
     3    14    13    1
     4    13    12    1
     5    12     1    1
     6     1    19    1
     7    20    19    1
     8    20    21    1
     9    21    22    1
    10    22    23   ar
    11    23    24   ar
    12    24    25   ar
    13    25    26   ar
    14    26    27   ar
    15    27    28    1
    16    28    29    1
    17     2     1    1
    18     2     3    1
    19     3     4    1
    20     4     5    1
    21     5     6    1
    22     6     7   ar
    23     7     8   ar
    24     8     9   ar
    25     9    10   ar
    26    10    11   ar
    27    29    20    1
    28    11     2    1
    29    27    22   ar
    30    11     6   ar
    31    15    17    1
    32    15    18    1
    33    29    30    1
@<TRIPOS>MOLECULE
*****
 30 33 0 0 0
SMALL
GASTEIGER

@<TRIPOS>ATOM
      1 N          -5.8475  -18.5014   22.4117 N.3     1  UNL1       -0.2679
      2 C          -4.8548  -18.9346   21.3740 C.3     1  UNL1        0.0978
      3 C          -5.1277  -20.1479   20.5353 C.3     1  UNL1        0.0224
      4 C          -4.1349  -20.5811   19.4976 C.3     1  UNL1        0.0065
      5 C          -2.8693  -19.8011   19.2986 C.3     1  UNL1        0.0277
      6 C          -2.5964  -18.5878   20.1373 C.ar    1  UNL1       -0.0073
      7 C          -1.3308  -17.8076   19.9383 C.ar    1  UNL1       -0.0015
      8 C          -1.0579  -16.5943   20.7770 C.ar    1  UNL1        0.0203
      9 C          -2.0507  -16.1611   21.8146 C.ar    1  UNL1        0.0985
     10 N          -3.3163  -16.9412   22.0137 N.ar    1  UNL1       -0.2471
     11 C          -3.5892  -18.1545   21.1750 C.ar    1  UNL1        0.0695
     12 C          -5.6584  -17.2002   23.1335 C.3     1  UNL1        0.0725
     13 C          -6.8220  -16.2732   23.3259 C.3     1  UNL1        0.0187
     14 C          -7.2023  -15.8232   24.7052 C.3     1  UNL1        0.0183
     15 N          -6.5222  -14.8864   27.0312 N.3     1  UNL1       -0.3211
     16 C          -6.1385  -15.4158   25.6811 C.3     1  UNL1        0.0652
     17 H          -5.6796  -14.6608   27.5599 H       1  UNL1        0.1189
     18 H          -7.0596  -15.5931   27.5333 H       1  UNL1        0.1189
     19 C          -7.0294  -19.3694   22.7275 C.3     1  UNL1        0.0886
     20 C          -8.4024  -18.9564   22.2867 C.3     1  UNL1        0.0749
     21 C          -9.5131  -18.8544   23.2896 C.3     1  UNL1        0.0447
     22 C         -10.8862  -18.4414   22.8488 C.ar    1  UNL1       -0.0058
     23 C         -11.9968  -18.3394   23.8517 C.ar    1  UNL1       -0.0014
     24 C         -13.3698  -17.9264   23.4109 C.ar    1  UNL1        0.0203
     25 C         -13.6321  -17.6155   21.9671 C.ar    1  UNL1        0.0985
     26 N         -12.5214  -17.7175   20.9642 N.ar    1  UNL1       -0.2471
     27 C         -11.1484  -18.1305   21.4050 C.ar    1  UNL1        0.0710
     28 C         -10.0377  -18.2325   20.4020 C.3     1  UNL1        0.1148
     29 N          -8.6647  -18.6455   20.8429 N.3     1  UNL1       -0.2921
     30 H          -8.0324  -17.8877   20.5853 H       1  UNL1        0.1236
@<TRIPOS>BOND
     1    15    16    1
     2    16    14    1
     3    14    13    1
     4    13    12    1
     5    12     1    1
     6     1    19    1
     7    20    19    1
     8    20    21    1
     9    21    22    1
    10    22    23   ar
    11    23    24   ar
    12    24    25   ar
    13    25    26   ar
    14    26    27   ar
    15    27    28    1
    16    28    29    1
    17     2     1    1
    18     2     3    1
    19     3     4    1
    20     4     5    1
    21     5     6    1
    22     6     7   ar
    23     7     8   ar
    24     8     9   ar
    25     9    10   ar
    26    10    11   ar
    27    29    20    1
    28    11     2    1
    29    27    22   ar
    30    11     6   ar
    31    15    17    1
    32    15    18    1
    33    29    30    1
