@<TRIPOS>MOLECULE
*****
 35 38 0 0 0
SMALL
GASTEIGER

@<TRIPOS>ATOM
      1 C           5.2863   -1.6163   18.4711 C.ar    1  UNL1        0.0536
      2 C           6.6495   -1.0118   18.3088 C.ar    1  UNL1        0.0042
      3 C           7.8393   -1.6614   18.9510 C.ar    1  UNL1       -0.0025
      4 C           7.6659   -2.9155   19.7555 C.ar    1  UNL1       -0.0026
      5 C           6.3027   -3.5200   19.9177 C.ar    1  UNL1       -0.0025
      6 C           5.1129   -2.8704   19.2756 C.ar    1  UNL1        0.0042
      7 C           1.1491    1.3192   20.3464 C.3     1  UNL1        0.1025
      8 C           2.3389    0.6696   20.9886 C.3     1  UNL1        0.0327
      9 C           3.3214   -0.0923   20.1494 C.3     1  UNL1        0.0943
     10 N           3.1141   -0.2047   18.6681 N.am    1  UNL1       -0.2761
     11 C           4.0965   -0.9667   17.8290 C.2     1  UNL1        0.2490
     12 O           3.8892   -1.0791   16.3476 O.2     1  UNL1       -0.2699
     13 C           1.9243    0.4449   18.0260 C.3     1  UNL1        0.0943
     14 C           0.9418    1.2068   18.8651 C.3     1  UNL1        0.0327
     15 C           0.1667    2.0812   21.1856 C.2     1  UNL1        0.3167
     16 O           0.6285    2.7870   22.4260 O.2     1  UNL1       -0.2501
     17 C          -1.8583    3.4126   20.2493 C.3     1  UNL1        0.2556
     18 O          -1.2775    2.1373   20.7844 O.3     1  UNL1       -0.4444
     19 C           8.8557   -3.5651   20.3976 C.3     1  UNL1        0.1166
     20 N           8.7648   -4.0700   21.8072 N.am    1  UNL1       -0.2969
     21 C           8.5201   -5.5268   22.0677 C.2     1  UNL1        0.2461
     22 O           8.3663   -6.4787   20.9187 O.2     1  UNL1       -0.2701
     23 H           8.8657   -3.4453   22.5613 H       1  UNL1        0.1501
     24 C           8.4292   -6.0317   23.4773 C.ar    1  UNL1        0.0540
     25 C           8.9975   -7.3740   23.8312 C.ar    1  UNL1        0.0061
     26 C           8.9066   -7.8789   25.2407 C.ar    1  UNL1        0.0198
     27 C           8.2474   -7.0415   26.2963 C.ar    1  UNL1        0.0892
     28 N           8.0112   -7.2738   27.7593 N.ar    1  UNL1       -0.2245
     29 C           7.2969   -6.0750   28.3095 C.ar    1  UNL1        0.1567
     30 N           6.8639   -5.8830   29.7328 N.pl3   1  UNL1       -0.3375
     31 S           7.0917   -5.1019   27.1866 S.2     1  UNL1       -0.0520
     32 C           7.6792   -5.6992   25.9424 C.ar    1  UNL1        0.0498
     33 C           7.7701   -5.1943   24.5329 C.ar    1  UNL1        0.0126
     34 H           7.0447   -6.5829   30.4011 H       1  UNL1        0.1442
     35 H           6.3988   -5.0570   29.9987 H       1  UNL1        0.1442
@<TRIPOS>BOND
     1    17    18    1
     2    18    15    1
     3    15    16    2
     4    15     7    1
     5     7     8    1
     6     8     9    1
     7     9    10    1
     8    10    11   am
     9    11    12    2
    10    11     1    1
    11     1     2   ar
    12     2     3   ar
    13     3     4   ar
    14     4    19    1
    15    19    20    1
    16    20    21   am
    17    21    22    2
    18    21    24    1
    19    24    25   ar
    20    25    26   ar
    21    26    27   ar
    22    27    28   ar
    23    28    29   ar
    24    29    30    1
    25    29    31   ar
    26    31    32   ar
    27    32    33   ar
    28     4     5   ar
    29     5     6   ar
    30    10    13    1
    31    13    14    1
    32    14     7    1
    33     6     1   ar
    34    33    24   ar
    35    32    27   ar
    36    20    23    1
    37    30    34    1
    38    30    35    1
@<TRIPOS>MOLECULE
*****
 35 38 0 0 0
SMALL
GASTEIGER

@<TRIPOS>ATOM
      1 C           2.8873    0.6200   18.1389 C.ar    1  UNL1        0.0536
      2 C           3.5365    1.9600   18.3205 C.ar    1  UNL1        0.0042
      3 C           2.7043    3.1531   18.6867 C.ar    1  UNL1       -0.0025
      4 C           1.2230    3.0062   18.8713 C.ar    1  UNL1       -0.0026
      5 C           0.5738    1.6662   18.6897 C.ar    1  UNL1       -0.0025
      6 C           1.4059    0.4731   18.3236 C.ar    1  UNL1        0.0042
      7 C           5.6146   -3.0708   21.0007 C.3     1  UNL1        0.1025
      8 C           4.7825   -1.8777   21.3669 C.3     1  UNL1        0.0327
      9 C           4.1508   -1.0451   20.2909 C.3     1  UNL1        0.0943
     10 N           4.3511   -1.4057   18.8488 N.am    1  UNL1       -0.2761
     11 C           3.7194   -0.5731   17.7728 C.2     1  UNL1        0.2490
     12 O           3.9197   -0.9336   16.3306 O.2     1  UNL1       -0.2699
     13 C           5.1832   -2.5988   18.4826 C.3     1  UNL1        0.0943
     14 C           5.8149   -3.4313   19.5586 C.3     1  UNL1        0.0327
     15 C           6.2463   -3.9034   22.0767 C.2     1  UNL1        0.3167
     16 O           7.3503   -4.8594   21.7344 O.2     1  UNL1       -0.2501
     17 C           6.6614   -4.2191   24.6219 C.3     1  UNL1        0.2556
     18 O           5.7741   -3.7799   23.4951 O.3     1  UNL1       -0.4444
     19 C           0.3909    4.1993   19.2375 C.3     1  UNL1        0.1166
     20 N          -0.5179    4.1426   20.4294 N.am    1  UNL1       -0.2969
     21 C          -1.9701    3.8124   20.2503 C.2     1  UNL1        0.2461
     22 O          -2.5135    3.5389   18.8791 O.2     1  UNL1       -0.2701
     23 H          -0.1613    4.3220   21.3294 H       1  UNL1        0.1501
     24 C          -2.8790    3.7556   21.4423 C.ar    1  UNL1        0.0540
     25 C          -4.2559    3.1757   21.3086 C.ar    1  UNL1        0.0061
     26 C          -5.1647    3.1190   22.5006 C.ar    1  UNL1        0.0198
     27 C          -4.6966    3.6422   23.8262 C.ar    1  UNL1        0.0892
     28 N          -5.3642    3.7191   25.1673 N.ar    1  UNL1       -0.2245
     29 C          -4.3999    4.3465   26.1298 C.ar    1  UNL1        0.1567
     30 N          -4.6543    4.6158   27.5833 N.pl3   1  UNL1       -0.3375
     31 S          -3.1363    4.6574   25.3835 S.2     1  UNL1       -0.0520
     32 C          -3.3197    4.2221   23.9598 C.ar    1  UNL1        0.0498
     33 C          -2.4109    4.2788   22.7679 C.ar    1  UNL1        0.0126
     34 H          -5.5205    4.3746   27.9844 H       1  UNL1        0.1442
     35 H          -3.9552    5.0338   28.1363 H       1  UNL1        0.1442
@<TRIPOS>BOND
     1    17    18    1
     2    18    15    1
     3    15    16    2
     4    15     7    1
     5     7     8    1
     6     8     9    1
     7     9    10    1
     8    10    11   am
     9    11    12    2
    10    11     1    1
    11     1     2   ar
    12     2     3   ar
    13     3     4   ar
    14     4    19    1
    15    19    20    1
    16    20    21   am
    17    21    22    2
    18    21    24    1
    19    24    25   ar
    20    25    26   ar
    21    26    27   ar
    22    27    28   ar
    23    28    29   ar
    24    29    30    1
    25    29    31   ar
    26    31    32   ar
    27    32    33   ar
    28     4     5   ar
    29     5     6   ar
    30    10    13    1
    31    13    14    1
    32    14     7    1
    33     6     1   ar
    34    33    24   ar
    35    32    27   ar
    36    20    23    1
    37    30    34    1
    38    30    35    1
@<TRIPOS>MOLECULE
*****
 35 38 0 0 0
SMALL
GASTEIGER

@<TRIPOS>ATOM
      1 C           2.9789    0.5912   18.0877 C.ar    1  UNL1        0.0536
      2 C           3.6892    1.9065   18.2127 C.ar    1  UNL1        0.0042
      3 C           2.9170    3.1464   18.5540 C.ar    1  UNL1       -0.0025
      4 C           1.4346    3.0710   18.7704 C.ar    1  UNL1       -0.0026
      5 C           0.7244    1.7557   18.6455 C.ar    1  UNL1       -0.0025
      6 C           1.4965    0.5159   18.3041 C.ar    1  UNL1        0.0042
      7 C           5.5807   -3.1331   21.0220 C.3     1  UNL1        0.1025
      8 C           4.8086   -1.8933   21.3633 C.3     1  UNL1        0.0327
      9 C           4.1987   -1.0651   20.2715 C.3     1  UNL1        0.0943
     10 N           4.3609   -1.4768   18.8382 N.am    1  UNL1       -0.2761
     11 C           3.7510   -0.6486   17.7464 C.2     1  UNL1        0.2490
     12 O           3.9133   -1.0603   16.3132 O.2     1  UNL1       -0.2699
     13 C           5.1330   -2.7166   18.4969 C.3     1  UNL1        0.0943
     14 C           5.7429   -3.5448   19.5888 C.3     1  UNL1        0.0327
     15 C           6.1905   -3.9613   22.1138 C.2     1  UNL1        0.3167
     16 O           7.3542   -4.8589   21.8134 O.2     1  UNL1       -0.2501
     17 C           6.5107   -3.4427   24.6394 C.3     1  UNL1        0.2556
     18 O           5.6368   -3.8920   23.5061 O.3     1  UNL1       -0.4444
     19 C           0.6625    4.3108   19.1118 C.3     1  UNL1        0.1166
     20 N          -0.5853    4.2135   19.9386 N.am    1  UNL1       -0.2969
     21 C          -0.4882    4.0304   21.4242 C.2     1  UNL1        0.2461
     22 O           0.8566    3.9446   22.0830 O.2     1  UNL1       -0.2701
     23 H          -1.4680    4.2698   19.5062 H       1  UNL1        0.1501
     24 C          -1.7360    3.9331   22.2511 C.ar    1  UNL1        0.0540
     25 C          -1.6411    3.6588   23.7227 C.ar    1  UNL1        0.0061
     26 C          -2.8888    3.5615   24.5494 C.ar    1  UNL1        0.0198
     27 C          -4.2315    3.7385   23.9046 C.ar    1  UNL1        0.0892
     28 N          -5.6247    3.6975   24.4593 N.ar    1  UNL1       -0.2245
     29 C          -6.5805    3.9464   23.3305 C.ar    1  UNL1        0.1567
     30 N          -8.0762    3.9925   23.4355 N.pl3   1  UNL1       -0.3375
     31 S          -5.7782    4.1413   22.0781 S.2     1  UNL1       -0.0520
     32 C          -4.3265    4.0128   22.4330 C.ar    1  UNL1        0.0498
     33 C          -3.0787    4.1101   21.6062 C.ar    1  UNL1        0.0126
     34 H          -8.5131    3.8517   24.3065 H       1  UNL1        0.1442
     35 H          -8.6209    4.1635   22.6335 H       1  UNL1        0.1442
@<TRIPOS>BOND
     1    17    18    1
     2    18    15    1
     3    15    16    2
     4    15     7    1
     5     7     8    1
     6     8     9    1
     7     9    10    1
     8    10    11   am
     9    11    12    2
    10    11     1    1
    11     1     2   ar
    12     2     3   ar
    13     3     4   ar
    14     4    19    1
    15    19    20    1
    16    20    21   am
    17    21    22    2
    18    21    24    1
    19    24    25   ar
    20    25    26   ar
    21    26    27   ar
    22    27    28   ar
    23    28    29   ar
    24    29    30    1
    25    29    31   ar
    26    31    32   ar
    27    32    33   ar
    28     4     5   ar
    29     5     6   ar
    30    10    13    1
    31    13    14    1
    32    14     7    1
    33     6     1   ar
    34    33    24   ar
    35    32    27   ar
    36    20    23    1
    37    30    34    1
    38    30    35    1
@<TRIPOS>MOLECULE
*****
 35 38 0 0 0
SMALL
GASTEIGER

@<TRIPOS>ATOM
      1 C           2.7779   -1.0872   19.6721 C.ar    1  UNL1        0.0536
      2 C           3.5709   -0.0987   18.8696 C.ar    1  UNL1        0.0042
      3 C           2.9484    1.2011   18.4536 C.ar    1  UNL1       -0.0025
      4 C           1.5328    1.5123   18.8399 C.ar    1  UNL1       -0.0026
      5 C           0.7398    0.5238   19.6424 C.ar    1  UNL1       -0.0025
      6 C           1.3623   -0.7760   20.0585 C.ar    1  UNL1        0.0042
      7 C           5.4744   -2.7163   24.0681 C.3     1  UNL1        0.1025
      8 C           4.8519   -1.4166   23.6520 C.3     1  UNL1        0.0327
      9 C           4.1606   -1.3068   22.3254 C.3     1  UNL1        0.0943
     10 N           4.0917   -2.4967   21.4148 N.am    1  UNL1       -0.2761
     11 C           3.4004   -2.3870   20.0881 C.2     1  UNL1        0.2490
     12 O           3.3316   -3.5769   19.1775 O.2     1  UNL1       -0.2699
     13 C           4.7142   -3.7965   21.8308 C.3     1  UNL1        0.0943
     14 C           5.4056   -3.9063   23.1575 C.3     1  UNL1        0.0327
     15 C           6.1657   -2.8261   25.3947 C.2     1  UNL1        0.3167
     16 O           5.7942   -1.8981   26.5131 O.2     1  UNL1       -0.2501
     17 C           6.8939   -5.1517   26.2953 C.3     1  UNL1        0.2556
     18 O           7.2286   -3.8638   25.6030 O.3     1  UNL1       -0.4444
     19 C           0.9103    2.8120   18.4239 C.3     1  UNL1        0.1166
     20 N          -0.5555    3.0451   18.6412 N.am    1  UNL1       -0.2969
     21 C          -1.0442    3.5706   19.9584 C.2     1  UNL1        0.2461
     22 O          -0.0671    3.8630   21.0583 O.2     1  UNL1       -0.2701
     23 H          -1.1968    2.8532   17.9193 H       1  UNL1        0.1501
     24 C          -2.5100    3.8037   20.1757 C.ar    1  UNL1        0.0540
     25 C          -3.3733    4.2619   19.0378 C.ar    1  UNL1        0.0061
     26 C          -4.8390    4.4950   19.2552 C.ar    1  UNL1        0.0198
     27 C          -5.4414    4.2699   20.6103 C.ar    1  UNL1        0.0892
     28 N          -6.8439    4.4159   21.1221 N.ar    1  UNL1       -0.2245
     29 C          -6.8473    4.0479   22.5763 C.ar    1  UNL1        0.1567
     30 N          -8.0413    4.0525   23.4842 N.pl3   1  UNL1       -0.3375
     31 S          -5.4469    3.6745   22.9632 S.2     1  UNL1       -0.0520
     32 C          -4.5781    3.8117   21.7482 C.ar    1  UNL1        0.0498
     33 C          -3.1124    3.5786   21.5308 C.ar    1  UNL1        0.0126
     34 H          -8.9239    4.3145   23.1354 H       1  UNL1        0.1442
     35 H          -7.9424    3.7936   24.4289 H       1  UNL1        0.1442
@<TRIPOS>BOND
     1    17    18    1
     2    18    15    1
     3    15    16    2
     4    15     7    1
     5     7     8    1
     6     8     9    1
     7     9    10    1
     8    10    11   am
     9    11    12    2
    10    11     1    1
    11     1     2   ar
    12     2     3   ar
    13     3     4   ar
    14     4    19    1
    15    19    20    1
    16    20    21   am
    17    21    22    2
    18    21    24    1
    19    24    25   ar
    20    25    26   ar
    21    26    27   ar
    22    27    28   ar
    23    28    29   ar
    24    29    30    1
    25    29    31   ar
    26    31    32   ar
    27    32    33   ar
    28     4     5   ar
    29     5     6   ar
    30    10    13    1
    31    13    14    1
    32    14     7    1
    33     6     1   ar
    34    33    24   ar
    35    32    27   ar
    36    20    23    1
    37    30    34    1
    38    30    35    1
@<TRIPOS>MOLECULE
*****
 35 38 0 0 0
SMALL
GASTEIGER

@<TRIPOS>ATOM
      1 C           3.1222    0.5753   18.0629 C.ar    1  UNL1        0.0536
      2 C           3.9293    1.8332   18.1910 C.ar    1  UNL1        0.0042
      3 C           3.2461    3.1360   18.4845 C.ar    1  UNL1       -0.0025
      4 C           1.7559    3.1809   18.6498 C.ar    1  UNL1       -0.0026
      5 C           0.9489    1.9230   18.5217 C.ar    1  UNL1       -0.0025
      6 C           1.6320    0.6202   18.2283 C.ar    1  UNL1        0.0042
      7 C           5.5898   -3.1381   21.1242 C.3     1  UNL1        0.1025
      8 C           4.9067   -1.8353   21.4176 C.3     1  UNL1        0.0327
      9 C           4.3119   -1.0318   20.2994 C.3     1  UNL1        0.0943
     10 N           4.4002   -1.5310   18.8877 N.am    1  UNL1       -0.2761
     11 C           3.8054   -0.7274   17.7694 C.2     1  UNL1        0.2490
     12 O           3.8937   -1.2266   16.3577 O.2     1  UNL1       -0.2699
     13 C           5.0833   -2.8337   18.5942 C.3     1  UNL1        0.0943
     14 C           5.6781   -3.6373   19.7125 C.3     1  UNL1        0.0327
     15 C           6.1846   -3.9416   22.2424 C.2     1  UNL1        0.3167
     16 O           7.3329   -4.8680   21.9720 O.2     1  UNL1       -0.2501
     17 C           6.5532   -3.8694   24.8132 C.3     1  UNL1        0.2556
     18 O           5.6311   -3.8188   23.6311 O.3     1  UNL1       -0.4444
     19 C           1.0728    4.4836   18.9433 C.3     1  UNL1        0.1166
     20 N          -0.3476    4.4937   19.4256 N.am    1  UNL1       -0.2969
     21 C          -1.4629    4.7903   18.4675 C.2     1  UNL1        0.2461
     22 O          -1.1580    5.0767   17.0270 O.2     1  UNL1       -0.2701
     23 H          -0.5477    4.3058   20.3711 H       1  UNL1        0.1501
     24 C          -2.8833    4.8004   18.9498 C.ar    1  UNL1        0.0540
     25 C          -3.9833    5.2481   18.0337 C.ar    1  UNL1        0.0061
     26 C          -5.4035    5.2582   18.5160 C.ar    1  UNL1        0.0198
     27 C          -5.7238    4.8206   19.9146 C.ar    1  UNL1        0.0892
     28 N          -7.0195    4.7243   20.6642 N.ar    1  UNL1       -0.2245
     29 C          -6.7202    4.2170   22.0437 C.ar    1  UNL1        0.1567
     30 N          -7.7251    3.9701   23.1297 N.pl3   1  UNL1       -0.3375
     31 S          -5.2396    3.9998   22.1466 S.2     1  UNL1       -0.0520
     32 C          -4.6238    4.3729   20.8308 C.ar    1  UNL1        0.0498
     33 C          -3.2035    4.3628   20.3484 C.ar    1  UNL1        0.0126
     34 H          -8.6802    4.1436   22.9653 H       1  UNL1        0.1442
     35 H          -7.4296    3.6346   24.0069 H       1  UNL1        0.1442
@<TRIPOS>BOND
     1    17    18    1
     2    18    15    1
     3    15    16    2
     4    15     7    1
     5     7     8    1
     6     8     9    1
     7     9    10    1
     8    10    11   am
     9    11    12    2
    10    11     1    1
    11     1     2   ar
    12     2     3   ar
    13     3     4   ar
    14     4    19    1
    15    19    20    1
    16    20    21   am
    17    21    22    2
    18    21    24    1
    19    24    25   ar
    20    25    26   ar
    21    26    27   ar
    22    27    28   ar
    23    28    29   ar
    24    29    30    1
    25    29    31   ar
    26    31    32   ar
    27    32    33   ar
    28     4     5   ar
    29     5     6   ar
    30    10    13    1
    31    13    14    1
    32    14     7    1
    33     6     1   ar
    34    33    24   ar
    35    32    27   ar
    36    20    23    1
    37    30    34    1
    38    30    35    1
@<TRIPOS>MOLECULE
*****
 35 38 0 0 0
SMALL
GASTEIGER

@<TRIPOS>ATOM
      1 C           7.6734   -6.0023   24.7045 C.ar    1  UNL1        0.0536
      2 C           6.7961   -4.8169   24.4302 C.ar    1  UNL1        0.0042
      3 C           6.8921   -4.1010   23.1155 C.ar    1  UNL1       -0.0025
      4 C           7.8654   -4.5706   22.0752 C.ar    1  UNL1       -0.0026
      5 C           8.7426   -5.7560   22.3495 C.ar    1  UNL1       -0.0025
      6 C           8.6466   -6.4718   23.6641 C.ar    1  UNL1        0.0042
      7 C           8.1187   -4.4439   29.8643 C.3     1  UNL1        0.1025
      8 C           8.2147   -3.7281   28.5496 C.3     1  UNL1        0.0327
      9 C           8.0342   -4.4862   27.2679 C.3     1  UNL1        0.0943
     10 N           7.7578   -5.9601   27.3008 N.am    1  UNL1       -0.2761
     11 C           7.5774   -6.7181   26.0191 C.2     1  UNL1        0.2490
     12 O           7.3010   -8.1920   26.0521 O.2     1  UNL1       -0.2699
     13 C           7.6618   -6.6759   28.6155 C.3     1  UNL1        0.0943
     14 C           7.8423   -5.9178   29.8972 C.3     1  UNL1        0.0327
     15 C           8.2991   -3.6859   31.1460 C.2     1  UNL1        0.3167
     16 O           9.5293   -2.8544   31.3587 O.2     1  UNL1       -0.2501
     17 C           5.9703   -2.9906   32.0640 C.3     1  UNL1        0.2556
     18 O           7.2494   -3.7593   32.2149 O.3     1  UNL1       -0.4444
     19 C           7.9613   -3.8548   20.7605 C.3     1  UNL1        0.1166
     20 N           6.9248   -2.8385   20.3824 N.am    1  UNL1       -0.2969
     21 C           5.6075   -3.2842   19.8203 C.2     1  UNL1        0.2461
     22 O           5.3267   -4.7461   19.6362 O.2     1  UNL1       -0.2701
     23 H           7.1091   -1.8790   20.5033 H       1  UNL1        0.1501
     24 C           4.5710   -2.2679   19.4422 C.ar    1  UNL1        0.0540
     25 C           4.5692   -1.6753   18.0643 C.ar    1  UNL1        0.0061
     26 C           3.5327   -0.6591   17.6863 C.ar    1  UNL1        0.0198
     27 C           2.4980   -0.2355   18.6862 C.ar    1  UNL1        0.0892
     28 N           1.3601    0.7383   18.6018 N.ar    1  UNL1       -0.2245
     29 C           0.6587    0.7475   19.9277 C.ar    1  UNL1        0.1567
     30 N          -0.5372    1.5789   20.2868 N.pl3   1  UNL1       -0.3375
     31 S           1.3630   -0.2205   20.8314 S.2     1  UNL1       -0.0520
     32 C           2.4998   -0.8280   20.0642 C.ar    1  UNL1        0.0498
     33 C           3.5363   -1.8443   20.4422 C.ar    1  UNL1        0.0126
     34 H          -0.9307    2.1885   19.6214 H       1  UNL1        0.1442
     35 H          -0.9286    1.5148   21.1879 H       1  UNL1        0.1442
@<TRIPOS>BOND
     1    17    18    1
     2    18    15    1
     3    15    16    2
     4    15     7    1
     5     7     8    1
     6     8     9    1
     7     9    10    1
     8    10    11   am
     9    11    12    2
    10    11     1    1
    11     1     2   ar
    12     2     3   ar
    13     3     4   ar
    14     4    19    1
    15    19    20    1
    16    20    21   am
    17    21    22    2
    18    21    24    1
    19    24    25   ar
    20    25    26   ar
    21    26    27   ar
    22    27    28   ar
    23    28    29   ar
    24    29    30    1
    25    29    31   ar
    26    31    32   ar
    27    32    33   ar
    28     4     5   ar
    29     5     6   ar
    30    10    13    1
    31    13    14    1
    32    14     7    1
    33     6     1   ar
    34    33    24   ar
    35    32    27   ar
    36    20    23    1
    37    30    34    1
    38    30    35    1
@<TRIPOS>MOLECULE
*****
 35 38 0 0 0
SMALL
GASTEIGER

@<TRIPOS>ATOM
      1 C           2.8211   -0.7645   19.6296 C.ar    1  UNL1        0.0536
      2 C           3.2108    0.5499   19.0210 C.ar    1  UNL1        0.0042
      3 C           2.2251    1.6799   18.9819 C.ar    1  UNL1       -0.0025
      4 C           0.8498    1.4955   19.5514 C.ar    1  UNL1       -0.0026
      5 C           0.4601    0.1811   20.1600 C.ar    1  UNL1       -0.0025
      6 C           1.4457   -0.9489   20.1991 C.ar    1  UNL1        0.0042
      7 C           5.6427   -3.1444   23.5824 C.3     1  UNL1        0.1025
      8 C           4.6570   -2.0144   23.5433 C.3     1  UNL1        0.0327
      9 C           4.0451   -1.5978   22.2387 C.3     1  UNL1        0.0943
     10 N           4.4187   -2.3112   20.9733 N.am    1  UNL1       -0.2761
     11 C           3.8068   -1.8945   19.6687 C.2     1  UNL1        0.2490
     12 O           4.1805   -2.6079   18.4033 O.2     1  UNL1       -0.2699
     13 C           5.4044   -3.4411   21.0124 C.3     1  UNL1        0.0943
     14 C           6.0163   -3.8578   22.3170 C.3     1  UNL1        0.0327
     15 C           6.2546   -3.5611   24.8870 C.2     1  UNL1        0.3167
     16 O           6.1690   -2.6546   26.0790 O.2     1  UNL1       -0.2501
     17 C           8.4502   -4.9403   25.0509 C.3     1  UNL1        0.2556
     18 O           6.9522   -4.8842   24.9996 O.3     1  UNL1       -0.4444
     19 C          -0.1359    2.6255   19.5122 C.3     1  UNL1        0.1166
     20 N          -1.0555    2.8591   20.6740 N.am    1  UNL1       -0.2969
     21 C          -2.4517    3.3538   20.4377 C.2     1  UNL1        0.2461
     22 O          -2.9283    3.6149   19.0396 O.2     1  UNL1       -0.2701
     23 H          -0.7427    2.6878   21.5917 H       1  UNL1        0.1501
     24 C          -3.3714    3.5875   21.5995 C.ar    1  UNL1        0.0540
     25 C          -4.8533    3.4337   21.4258 C.ar    1  UNL1        0.0061
     26 C          -5.7729    3.6673   22.5875 C.ar    1  UNL1        0.0198
     27 C          -5.2105    4.0548   23.9231 C.ar    1  UNL1        0.0892
     28 N          -5.8647    4.3483   25.2407 N.ar    1  UNL1       -0.2245
     29 C          -4.7870    4.6835   26.2287 C.ar    1  UNL1        0.1567
     30 N          -4.9933    5.0421   27.6706 N.pl3   1  UNL1       -0.3375
     31 S          -3.4669    4.5972   25.5218 S.2     1  UNL1       -0.0520
     32 C          -3.7286    4.2086   24.0968 C.ar    1  UNL1        0.0498
     33 C          -2.8090    3.9749   22.9351 C.ar    1  UNL1        0.0126
     34 H          -5.9033    5.0724   28.0450 H       1  UNL1        0.1442
     35 H          -4.2186    5.2472   28.2425 H       1  UNL1        0.1442
@<TRIPOS>BOND
     1    17    18    1
     2    18    15    1
     3    15    16    2
     4    15     7    1
     5     7     8    1
     6     8     9    1
     7     9    10    1
     8    10    11   am
     9    11    12    2
    10    11     1    1
    11     1     2   ar
    12     2     3   ar
    13     3     4   ar
    14     4    19    1
    15    19    20    1
    16    20    21   am
    17    21    22    2
    18    21    24    1
    19    24    25   ar
    20    25    26   ar
    21    26    27   ar
    22    27    28   ar
    23    28    29   ar
    24    29    30    1
    25    29    31   ar
    26    31    32   ar
    27    32    33   ar
    28     4     5   ar
    29     5     6   ar
    30    10    13    1
    31    13    14    1
    32    14     7    1
    33     6     1   ar
    34    33    24   ar
    35    32    27   ar
    36    20    23    1
    37    30    34    1
    38    30    35    1
@<TRIPOS>MOLECULE
*****
 35 38 0 0 0
SMALL
GASTEIGER

@<TRIPOS>ATOM
      1 C          -0.7076    3.9569   19.3655 C.ar    1  UNL1        0.0536
      2 C          -1.6696    4.3724   18.2922 C.ar    1  UNL1        0.0042
      3 C          -3.1470    4.2488   18.5204 C.ar    1  UNL1       -0.0025
      4 C          -3.6624    3.7096   19.8218 C.ar    1  UNL1       -0.0026
      5 C          -2.7004    3.2941   20.8951 C.ar    1  UNL1       -0.0025
      6 C          -1.2230    3.4177   20.6669 C.ar    1  UNL1        0.0042
      7 C           3.1815    0.4562   17.9982 C.3     1  UNL1        0.1025
      8 C           1.7042    0.3326   18.2263 C.3     1  UNL1        0.0327
      9 C           0.9003    1.5407   18.6060 C.3     1  UNL1        0.0943
     10 N           1.5737    2.8724   18.7576 N.am    1  UNL1       -0.2761
     11 C           0.7698    4.0805   19.1373 C.2     1  UNL1        0.2490
     12 O           1.4432    5.4122   19.2889 O.2     1  UNL1       -0.2699
     13 C           3.0510    2.9960   18.5295 C.3     1  UNL1        0.0943
     14 C           3.8550    1.7879   18.1498 C.3     1  UNL1        0.0327
     15 C           3.9855   -0.7519   17.6185 C.2     1  UNL1        0.3167
     16 O           4.0545   -1.1865   16.1845 O.2     1  UNL1       -0.2501
     17 C           5.7941   -2.4962   18.2791 C.3     1  UNL1        0.2556
     18 O           4.7204   -1.5255   18.6727 O.3     1  UNL1       -0.4444
     19 C          -5.1397    3.5860   20.0499 C.3     1  UNL1        0.1166
     20 N          -5.7934    4.3506   21.1627 N.am    1  UNL1       -0.2969
     21 C          -5.7606    3.8128   22.5625 C.2     1  UNL1        0.2461
     22 O          -5.0742    2.5103   22.8497 O.2     1  UNL1       -0.2701
     23 H          -6.2439    5.2055   20.9743 H       1  UNL1        0.1501
     24 C          -6.4143    4.5773   23.6753 C.ar    1  UNL1        0.0540
     25 C          -7.8057    5.1102   23.5029 C.ar    1  UNL1        0.0061
     26 C          -8.4593    5.8748   24.6156 C.ar    1  UNL1        0.0198
     27 C          -7.7214    6.1064   25.9009 C.ar    1  UNL1        0.0892
     28 N          -8.1052    6.8182   27.1643 N.ar    1  UNL1       -0.2245
     29 C          -6.9508    6.7251   28.1176 C.ar    1  UNL1        0.1567
     30 N          -6.9021    7.3003   29.5022 N.pl3   1  UNL1       -0.3375
     31 S          -5.8537    5.9559   27.4434 S.2     1  UNL1       -0.0520
     32 C          -6.3299    5.5735   26.0733 C.ar    1  UNL1        0.0498
     33 C          -5.6764    4.8090   24.9606 C.ar    1  UNL1        0.0126
     34 H          -7.6771    7.7919   29.8585 H       1  UNL1        0.1442
     35 H          -6.0952    7.1861   30.0545 H       1  UNL1        0.1442
@<TRIPOS>BOND
     1    17    18    1
     2    18    15    1
     3    15    16    2
     4    15     7    1
     5     7     8    1
     6     8     9    1
     7     9    10    1
     8    10    11   am
     9    11    12    2
    10    11     1    1
    11     1     2   ar
    12     2     3   ar
    13     3     4   ar
    14     4    19    1
    15    19    20    1
    16    20    21   am
    17    21    22    2
    18    21    24    1
    19    24    25   ar
    20    25    26   ar
    21    26    27   ar
    22    27    28   ar
    23    28    29   ar
    24    29    30    1
    25    29    31   ar
    26    31    32   ar
    27    32    33   ar
    28     4     5   ar
    29     5     6   ar
    30    10    13    1
    31    13    14    1
    32    14     7    1
    33     6     1   ar
    34    33    24   ar
    35    32    27   ar
    36    20    23    1
    37    30    34    1
    38    30    35    1
@<TRIPOS>MOLECULE
*****
 35 38 0 0 0
SMALL
GASTEIGER

@<TRIPOS>ATOM
      1 C           4.9462   -3.2599   20.7448 C.ar    1  UNL1        0.0536
      2 C           4.9376   -3.5700   22.2124 C.ar    1  UNL1        0.0042
      3 C           6.2137   -3.9413   22.9080 C.ar    1  UNL1       -0.0025
      4 C           7.4983   -4.0025   22.1360 C.ar    1  UNL1       -0.0026
      5 C           7.5069   -3.6924   20.6685 C.ar    1  UNL1       -0.0025
      6 C           6.2309   -3.3212   19.9729 C.ar    1  UNL1        0.0042
      7 C           1.4962    0.8805   21.1971 C.3     1  UNL1        0.1025
      8 C           2.7722    0.5092   21.8927 C.3     1  UNL1        0.0327
      9 C           3.4968   -0.7472   21.5101 C.3     1  UNL1        0.0943
     10 N           2.9455   -1.6323   20.4319 N.am    1  UNL1       -0.2761
     11 C           3.6702   -2.8886   20.0492 C.2     1  UNL1        0.2490
     12 O           3.1189   -3.7737   18.9710 O.2     1  UNL1       -0.2699
     13 C           1.6695   -1.2610   19.7363 C.3     1  UNL1        0.0943
     14 C           0.9448   -0.0046   20.1189 C.3     1  UNL1        0.0327
     15 C           0.7715    2.1368   21.5797 C.2     1  UNL1        0.3167
     16 O          -0.7279    2.1740   21.5580 O.2     1  UNL1       -0.2501
     17 C           0.8871    4.7033   21.9666 C.3     1  UNL1        0.2556
     18 O           1.5462    3.3560   21.9840 O.3     1  UNL1       -0.4444
     19 C           8.7743   -4.3738   22.8316 C.3     1  UNL1        0.1166
     20 N           8.7847   -4.5861   24.3166 N.am    1  UNL1       -0.2969
     21 C           8.5063   -5.9474   24.8815 C.2     1  UNL1        0.2461
     22 O           8.2175   -7.0965   23.9616 O.2     1  UNL1       -0.2701
     23 H           8.9743   -3.8319   24.9203 H       1  UNL1        0.1501
     24 C           8.5168   -6.1597   26.3664 C.ar    1  UNL1        0.0540
     25 C           9.5246   -7.0824   26.9851 C.ar    1  UNL1        0.0061
     26 C           9.5350   -7.2947   28.4699 C.ar    1  UNL1        0.0198
     27 C           8.5375   -6.5843   29.3361 C.ar    1  UNL1        0.0892
     28 N           8.3070   -6.5959   30.8183 N.ar    1  UNL1       -0.2245
     29 C           7.1566   -5.6804   31.1156 C.ar    1  UNL1        0.1567
     30 N           6.5867   -5.3927   32.4731 N.pl3   1  UNL1       -0.3375
     31 S           6.6762   -5.1029   29.8172 S.2     1  UNL1       -0.0520
     32 C           7.5297   -5.6615   28.7175 C.ar    1  UNL1        0.0498
     33 C           7.5193   -5.4493   27.2326 C.ar    1  UNL1        0.0126
     34 H           6.9726   -5.8228   33.2702 H       1  UNL1        0.1442
     35 H           5.8268   -4.7738   32.5668 H       1  UNL1        0.1442
@<TRIPOS>BOND
     1    17    18    1
     2    18    15    1
     3    15    16    2
     4    15     7    1
     5     7     8    1
     6     8     9    1
     7     9    10    1
     8    10    11   am
     9    11    12    2
    10    11     1    1
    11     1     2   ar
    12     2     3   ar
    13     3     4   ar
    14     4    19    1
    15    19    20    1
    16    20    21   am
    17    21    22    2
    18    21    24    1
    19    24    25   ar
    20    25    26   ar
    21    26    27   ar
    22    27    28   ar
    23    28    29   ar
    24    29    30    1
    25    29    31   ar
    26    31    32   ar
    27    32    33   ar
    28     4     5   ar
    29     5     6   ar
    30    10    13    1
    31    13    14    1
    32    14     7    1
    33     6     1   ar
    34    33    24   ar
    35    32    27   ar
    36    20    23    1
    37    30    34    1
    38    30    35    1
