@<TRIPOS>MOLECULE
*****
 35 39 0 0 0
SMALL
GASTEIGER

@<TRIPOS>ATOM
      1 C           5.7126   -2.2547   30.6283 C.ar    1  UNL1        0.1261
      2 N           6.4020   -3.5189   30.2081 N.ar    1  UNL1       -0.1632
      3 N           6.5677   -3.4831   28.7177 N.ar    1  UNL1       -0.2290
      4 C           5.9807   -2.1968   28.2168 C.ar    1  UNL1        0.0822
      5 C           5.4522   -1.4376   29.3976 C.ar    1  UNL1        0.0413
      6 C           7.2080   -4.5468   27.8759 C.ar    1  UNL1        0.0933
      7 C           6.3831   -5.6826   27.3473 C.ar    1  UNL1        0.0209
      8 C           7.0234   -6.7463   26.5055 C.ar    1  UNL1        0.0130
      9 C           8.4886   -6.6742   26.1925 C.ar    1  UNL1        0.0586
     10 CL          9.1289   -7.7379   25.3507 Cl      1  UNL1       -0.0822
     11 C           9.3135   -5.5384   26.7211 C.ar    1  UNL1        0.0243
     12 C           8.6732   -4.4747   27.5628 C.ar    1  UNL1        0.0761
     13 CL          9.4981   -3.3388   28.0915 Cl      1  UNL1       -0.0806
     14 C           5.9309   -1.7484   26.7863 C.ar    1  UNL1        0.0175
     15 C           7.1740   -1.2457   26.1141 C.ar    1  UNL1        0.0020
     16 C           7.1242   -0.7973   24.6836 C.ar    1  UNL1        0.0067
     17 C           5.8312   -0.8516   23.9252 C.ar    1  UNL1        0.0346
     18 BR          5.7814   -0.4032   22.4946 Br      1  UNL1       -0.0490
     19 C           4.5879   -1.3543   24.5973 C.ar    1  UNL1        0.0067
     20 C           4.6379   -1.8026   26.0279 C.ar    1  UNL1        0.0020
     21 C           5.4599   -0.9719   34.2829 C.ar    1  UNL1        0.1104
     22 N           4.1124   -1.6064   34.1046 N.ar    1  UNL1       -0.1453
     23 N           4.0431   -2.1642   32.7139 N.ar    1  UNL1       -0.1396
     24 C           5.3477   -1.8744   32.0327 C.ar    1  UNL1        0.1525
     25 S           6.2233   -1.1375   33.0024 S.2     1  UNL1       -0.0483
     26 C           7.3247   -0.1851   34.9180 C.3     1  UNL1        0.0065
     27 C           5.9566   -0.2913   35.5238 C.3     1  UNL1        0.0430
     28 C           4.5885   -0.3975   36.1297 C.3     1  UNL1        0.0065
     29 C           6.4533    0.3893   36.7648 C.3     1  UNL1        0.0065
     30 C           4.7812   -0.0967   29.3552 C.3     1  UNL1        0.1587
     31 N           3.2908    0.0009   29.4948 N.ar    1  UNL1       -0.2254
     32 C           2.5522    0.6687   30.6168 C.ar    1  UNL1        0.1975
     33 N           1.0824    0.5283   30.3524 N.ar    1  UNL1       -0.2007
     34 C           0.9126   -0.2262   29.0671 C.ar    1  UNL1        0.2210
     35 N           2.2775   -0.5521   28.5371 N.ar    1  UNL1       -0.1448
@<TRIPOS>BOND
     1    26    27    1
     2    27    28    1
     3    27    29    1
     4    27    21    1
     5    21    22   ar
     6    22    23   ar
     7    23    24   ar
     8    24     1    1
     9     1     2   ar
    10     2     3   ar
    11     3     6    1
    12     6     7   ar
    13     7     8   ar
    14     8     9   ar
    15     9    10    1
    16     9    11   ar
    17    11    12   ar
    18    12    13    1
    19     3     4   ar
    20     4    14    1
    21    14    15   ar
    22    15    16   ar
    23    16    17   ar
    24    17    18    1
    25    17    19   ar
    26    19    20   ar
    27     4     5   ar
    28     5    30    1
    29    30    31    1
    30    31    32   ar
    31    32    33   ar
    32    33    34   ar
    33    34    35   ar
    34    24    25   ar
    35    25    21   ar
    36     5     1   ar
    37    35    31   ar
    38    12     6   ar
    39    20    14   ar
@<TRIPOS>MOLECULE
*****
 35 39 0 0 0
SMALL
GASTEIGER

@<TRIPOS>ATOM
      1 C           5.8948   -3.1935   23.4420 C.ar    1  UNL1        0.1261
      2 N           5.6125   -2.1641   24.4959 N.ar    1  UNL1       -0.1632
      3 N           4.7326   -1.1106   23.8910 N.ar    1  UNL1       -0.2290
      4 C           4.4709   -1.4890   22.4633 C.ar    1  UNL1        0.0822
      5 C           5.1892   -2.7762   22.1857 C.ar    1  UNL1        0.0413
      6 C           4.2065    0.1073   24.5910 C.ar    1  UNL1        0.0933
      7 C           2.9874    0.0057   25.4589 C.ar    1  UNL1        0.0209
      8 C           2.4614    1.2237   26.1588 C.ar    1  UNL1        0.0130
      9 C           3.1546    2.5432   25.9907 C.ar    1  UNL1        0.0586
     10 CL          2.6285    3.7612   26.6907 Cl      1  UNL1       -0.0822
     11 C           4.3737    2.6449   25.1228 C.ar    1  UNL1        0.0243
     12 C           4.8996    1.4269   24.4229 C.ar    1  UNL1        0.0761
     13 CL          6.1188    1.5285   23.5549 Cl      1  UNL1       -0.0806
     14 C           3.6374   -0.7158   21.4848 C.ar    1  UNL1        0.0175
     15 C           2.1437   -0.8518   21.4999 C.ar    1  UNL1        0.0020
     16 C           1.3102   -0.0787   20.5215 C.ar    1  UNL1        0.0067
     17 C           1.9703    0.8306   19.5278 C.ar    1  UNL1        0.0346
     18 BR          1.1368    1.6038   18.5494 Br      1  UNL1       -0.0490
     19 C           3.4641    0.9667   19.5126 C.ar    1  UNL1        0.0067
     20 C           4.2976    0.1935   20.4911 C.ar    1  UNL1        0.0020
     21 C           7.8463   -6.3401   24.6064 C.ar    1  UNL1        0.1104
     22 N           8.2097   -6.2954   23.1517 N.ar    1  UNL1       -0.1453
     23 N           7.5229   -5.1113   22.5385 N.ar    1  UNL1       -0.1396
     24 C           6.7350   -4.4241   23.6141 C.ar    1  UNL1        0.1525
     25 S           6.9350   -5.1835   24.8921 S.2     1  UNL1       -0.0483
     26 C           7.2240   -6.9414   26.5431 C.3     1  UNL1        0.0065
     27 C           8.3126   -7.3618   25.6005 C.3     1  UNL1        0.0430
     28 C           9.4011   -7.7823   24.6580 C.3     1  UNL1        0.0065
     29 C           8.7788   -8.3837   26.5948 C.3     1  UNL1        0.0065
     30 C           5.2001   -3.5163   20.8811 C.3     1  UNL1        0.1587
     31 N           5.9909   -2.9836   19.7231 N.ar    1  UNL1       -0.2254
     32 C           5.5304   -2.9173   18.2970 C.ar    1  UNL1        0.1975
     33 N           6.6359   -2.3163   17.4805 N.ar    1  UNL1       -0.2007
     34 C           7.7795   -2.0112   18.4019 C.ar    1  UNL1        0.2210
     35 N           7.3808   -2.4235   19.7879 N.ar    1  UNL1       -0.1448
@<TRIPOS>BOND
     1    26    27    1
     2    27    28    1
     3    27    29    1
     4    27    21    1
     5    21    22   ar
     6    22    23   ar
     7    23    24   ar
     8    24     1    1
     9     1     2   ar
    10     2     3   ar
    11     3     6    1
    12     6     7   ar
    13     7     8   ar
    14     8     9   ar
    15     9    10    1
    16     9    11   ar
    17    11    12   ar
    18    12    13    1
    19     3     4   ar
    20     4    14    1
    21    14    15   ar
    22    15    16   ar
    23    16    17   ar
    24    17    18    1
    25    17    19   ar
    26    19    20   ar
    27     4     5   ar
    28     5    30    1
    29    30    31    1
    30    31    32   ar
    31    32    33   ar
    32    33    34   ar
    33    34    35   ar
    34    24    25   ar
    35    25    21   ar
    36     5     1   ar
    37    35    31   ar
    38    12     6   ar
    39    20    14   ar
@<TRIPOS>MOLECULE
*****
 35 39 0 0 0
SMALL
GASTEIGER

@<TRIPOS>ATOM
      1 C           2.3025    0.1052   30.2020 C.ar    1  UNL1        0.1261
      2 N           3.4443   -0.8273   29.9252 N.ar    1  UNL1       -0.1632
      3 N           4.3738   -0.7838   31.1017 N.ar    1  UNL1       -0.2290
      4 C           3.8064    0.1756   32.1056 C.ar    1  UNL1        0.0822
      5 C           2.5262    0.7250   31.5495 C.ar    1  UNL1        0.0413
      6 C           5.6472   -1.5629   31.2486 C.ar    1  UNL1        0.0933
      7 C           5.6529   -2.8535   32.0131 C.ar    1  UNL1        0.0209
      8 C           6.9262   -3.6325   32.1600 C.ar    1  UNL1        0.0130
      9 C           8.1939   -3.1210   31.5424 C.ar    1  UNL1        0.0586
     10 CL          9.4673   -3.9002   31.6893 Cl      1  UNL1       -0.0822
     11 C           8.1882   -1.8305   30.7779 C.ar    1  UNL1        0.0243
     12 C           6.9149   -1.0515   30.6310 C.ar    1  UNL1        0.0761
     13 CL          6.9091    0.2391   29.8665 Cl      1  UNL1       -0.0806
     14 C           4.4127    0.5242   33.4325 C.ar    1  UNL1        0.0175
     15 C           4.3558   -0.4582   34.5645 C.ar    1  UNL1        0.0020
     16 C           4.9621   -0.1095   35.8915 C.ar    1  UNL1        0.0067
     17 C           5.6253    1.2217   36.0865 C.ar    1  UNL1        0.0346
     18 BR          6.2316    1.5703   37.4134 Br      1  UNL1       -0.0490
     19 C           5.6823    2.2042   34.9544 C.ar    1  UNL1        0.0067
     20 C           5.0759    1.8554   33.6275 C.ar    1  UNL1        0.0020
     21 C          -0.2147    1.2260   27.4682 C.ar    1  UNL1        0.1104
     22 N          -1.0791    0.3353   28.3105 N.ar    1  UNL1       -0.1453
     23 N          -0.2414   -0.1929   29.4371 N.ar    1  UNL1       -0.1396
     24 C           1.1407    0.3713   29.2911 C.ar    1  UNL1        0.1525
     25 S           1.1572    1.2482   28.0743 S.2     1  UNL1       -0.0483
     26 C           0.2113    1.0652   25.3963 C.3     1  UNL1        0.0065
     27 C          -0.6465    1.9647   26.2363 C.3     1  UNL1        0.0430
     28 C          -1.5042    2.8641   27.0761 C.3     1  UNL1        0.0065
     29 C          -1.0782    2.7033   25.0042 C.3     1  UNL1        0.0065
     30 C           1.6276    1.7196   32.2227 C.3     1  UNL1        0.1587
     31 N           1.4624    3.0935   31.6436 N.ar    1  UNL1       -0.2254
     32 C           2.4420    3.7984   30.7528 C.ar    1  UNL1        0.1975
     33 N           1.8736    5.1441   30.4123 N.ar    1  UNL1       -0.2007
     34 C           0.5428    5.2709   31.0927 C.ar    1  UNL1        0.2210
     35 N           0.2887    4.0035   31.8537 N.ar    1  UNL1       -0.1448
@<TRIPOS>BOND
     1    26    27    1
     2    27    28    1
     3    27    29    1
     4    27    21    1
     5    21    22   ar
     6    22    23   ar
     7    23    24   ar
     8    24     1    1
     9     1     2   ar
    10     2     3   ar
    11     3     6    1
    12     6     7   ar
    13     7     8   ar
    14     8     9   ar
    15     9    10    1
    16     9    11   ar
    17    11    12   ar
    18    12    13    1
    19     3     4   ar
    20     4    14    1
    21    14    15   ar
    22    15    16   ar
    23    16    17   ar
    24    17    18    1
    25    17    19   ar
    26    19    20   ar
    27     4     5   ar
    28     5    30    1
    29    30    31    1
    30    31    32   ar
    31    32    33   ar
    32    33    34   ar
    33    34    35   ar
    34    24    25   ar
    35    25    21   ar
    36     5     1   ar
    37    35    31   ar
    38    12     6   ar
    39    20    14   ar
@<TRIPOS>MOLECULE
*****
 35 39 0 0 0
SMALL
GASTEIGER

@<TRIPOS>ATOM
      1 C           2.1551    0.2335   30.0573 C.ar    1  UNL1        0.1261
      2 N           2.3633    0.6909   31.4706 N.ar    1  UNL1       -0.1632
      3 N           3.6740    0.1395   31.9480 N.ar    1  UNL1       -0.2290
      4 C           4.2760   -0.6587   30.8297 C.ar    1  UNL1        0.0822
      5 C           3.3373   -0.6006   29.6612 C.ar    1  UNL1        0.0413
      6 C           4.2769    0.3494   33.3054 C.ar    1  UNL1        0.0933
      7 C           4.2142   -0.7433   34.3311 C.ar    1  UNL1        0.0209
      8 C           4.8172   -0.5333   35.6884 C.ar    1  UNL1        0.0130
      9 C           5.4828    0.7694   36.0201 C.ar    1  UNL1        0.0586
     10 CL          6.0857    0.9793   37.3775 Cl      1  UNL1       -0.0822
     11 C           5.5455    1.8621   34.9944 C.ar    1  UNL1        0.0243
     12 C           4.9425    1.6521   33.6371 C.ar    1  UNL1        0.0761
     13 CL          5.0052    2.7449   32.6114 Cl      1  UNL1       -0.0806
     14 C           5.5865   -1.3871   30.8725 C.ar    1  UNL1        0.0175
     15 C           5.7061   -2.6715   31.6380 C.ar    1  UNL1        0.0020
     16 C           7.0167   -3.3999   31.6808 C.ar    1  UNL1        0.0067
     17 C           8.2077   -2.8439   30.9580 C.ar    1  UNL1        0.0346
     18 BR          9.5183   -3.5723   31.0007 Br      1  UNL1       -0.0490
     19 C           8.0881   -1.5594   30.1924 C.ar    1  UNL1        0.0067
     20 C           6.7775   -0.8311   30.1497 C.ar    1  UNL1        0.0020
     21 C          -0.4036    1.4377   27.3987 C.ar    1  UNL1        0.1104
     22 N          -1.2909    0.6565   28.3220 N.ar    1  UNL1       -0.1453
     23 N          -0.4404    0.1103   29.4303 N.ar    1  UNL1       -0.1396
     24 C           0.9725    0.5540   29.1920 C.ar    1  UNL1        0.1525
     25 S           0.9952    1.3743   27.9364 S.2     1  UNL1       -0.0483
     26 C           0.0900    1.3069   25.3398 C.3     1  UNL1        0.0065
     27 C          -0.8389    2.1561   26.1560 C.3     1  UNL1        0.0430
     28 C          -1.7678    3.0052   26.9722 C.3     1  UNL1        0.0065
     29 C          -1.2741    2.8744   24.9132 C.3     1  UNL1        0.0065
     30 C           3.5444   -1.2607   28.3303 C.3     1  UNL1        0.1587
     31 N           4.0528   -0.4610   27.1675 N.ar    1  UNL1       -0.2254
     32 C           3.6701   -0.6542   25.7300 C.ar    1  UNL1        0.1975
     33 N           4.4139    0.3596   24.9121 N.ar    1  UNL1       -0.2007
     34 C           5.2562    1.1793   25.8441 C.ar    1  UNL1        0.2210
     35 N           5.0330    0.6721   27.2380 N.ar    1  UNL1       -0.1448
@<TRIPOS>BOND
     1    26    27    1
     2    27    28    1
     3    27    29    1
     4    27    21    1
     5    21    22   ar
     6    22    23   ar
     7    23    24   ar
     8    24     1    1
     9     1     2   ar
    10     2     3   ar
    11     3     6    1
    12     6     7   ar
    13     7     8   ar
    14     8     9   ar
    15     9    10    1
    16     9    11   ar
    17    11    12   ar
    18    12    13    1
    19     3     4   ar
    20     4    14    1
    21    14    15   ar
    22    15    16   ar
    23    16    17   ar
    24    17    18    1
    25    17    19   ar
    26    19    20   ar
    27     4     5   ar
    28     5    30    1
    29    30    31    1
    30    31    32   ar
    31    32    33   ar
    32    33    34   ar
    33    34    35   ar
    34    24    25   ar
    35    25    21   ar
    36     5     1   ar
    37    35    31   ar
    38    12     6   ar
    39    20    14   ar
@<TRIPOS>MOLECULE
*****
 35 39 0 0 0
SMALL
GASTEIGER

@<TRIPOS>ATOM
      1 C           3.8045    0.3705   32.6173 C.ar    1  UNL1        0.1261
      2 N           2.5058    0.8800   32.0661 N.ar    1  UNL1       -0.1632
      3 N           2.5872    0.8323   30.5690 N.ar    1  UNL1       -0.2290
      4 C           3.9361    0.2934   30.1951 C.ar    1  UNL1        0.0822
      5 C           4.6885    0.0079   31.4609 C.ar    1  UNL1        0.0413
      6 C           1.5088    1.2503   29.6137 C.ar    1  UNL1        0.0933
      7 C           0.4782    0.2571   29.1649 C.ar    1  UNL1        0.0209
      8 C          -0.6000    0.6751   28.2096 C.ar    1  UNL1        0.0130
      9 C          -0.6476    2.0861   27.7030 C.ar    1  UNL1        0.0586
     10 CL         -1.7259    2.5040   26.7477 Cl      1  UNL1       -0.0822
     11 C           0.3830    3.0793   28.1518 C.ar    1  UNL1        0.0243
     12 C           1.4613    2.6613   29.1071 C.ar    1  UNL1        0.0761
     13 CL          2.4920    3.6545   29.5559 Cl      1  UNL1       -0.0806
     14 C           4.4436    0.0776   28.8001 C.ar    1  UNL1        0.0175
     15 C           5.4580    1.0165   28.2174 C.ar    1  UNL1        0.0020
     16 C           5.9654    0.8008   26.8225 C.ar    1  UNL1        0.0067
     17 C           5.4586   -0.3538   26.0101 C.ar    1  UNL1        0.0346
     18 BR          5.9660   -0.5695   24.6152 Br      1  UNL1       -0.0490
     19 C           4.4441   -1.2928   26.5928 C.ar    1  UNL1        0.0067
     20 C           3.9367   -1.0770   27.9878 C.ar    1  UNL1        0.0020
     21 C           4.5611    0.7839   36.4017 C.ar    1  UNL1        0.1104
     22 N           4.8392   -0.6774   36.2085 N.ar    1  UNL1       -0.1453
     23 N           4.5896   -1.0101   34.7673 N.ar    1  UNL1       -0.1396
     24 C           4.1573    0.2456   34.0699 C.ar    1  UNL1        0.1525
     25 S           4.1397    1.3543   35.0800 S.2     1  UNL1       -0.0483
     26 C           3.3585    0.9967   38.1362 C.3     1  UNL1        0.0065
     27 C           4.6831    1.5417   37.6905 C.3     1  UNL1        0.0430
     28 C           6.0076    2.0866   37.2448 C.3     1  UNL1        0.0065
     29 C           4.8050    2.2994   38.9792 C.3     1  UNL1        0.0065
     30 C           6.0804   -0.5433   31.5541 C.3     1  UNL1        0.1587
     31 N           6.3146   -2.0177   31.4078 N.ar    1  UNL1       -0.2254
     32 C           6.5004   -2.7569   30.1158 C.ar    1  UNL1        0.1975
     33 N           6.7047   -4.2077   30.4373 N.ar    1  UNL1       -0.2007
     34 C           6.6452   -4.3651   31.9278 C.ar    1  UNL1        0.2210
     35 N           6.4041   -3.0116   32.5276 N.ar    1  UNL1       -0.1448
@<TRIPOS>BOND
     1    26    27    1
     2    27    28    1
     3    27    29    1
     4    27    21    1
     5    21    22   ar
     6    22    23   ar
     7    23    24   ar
     8    24     1    1
     9     1     2   ar
    10     2     3   ar
    11     3     6    1
    12     6     7   ar
    13     7     8   ar
    14     8     9   ar
    15     9    10    1
    16     9    11   ar
    17    11    12   ar
    18    12    13    1
    19     3     4   ar
    20     4    14    1
    21    14    15   ar
    22    15    16   ar
    23    16    17   ar
    24    17    18    1
    25    17    19   ar
    26    19    20   ar
    27     4     5   ar
    28     5    30    1
    29    30    31    1
    30    31    32   ar
    31    32    33   ar
    32    33    34   ar
    33    34    35   ar
    34    24    25   ar
    35    25    21   ar
    36     5     1   ar
    37    35    31   ar
    38    12     6   ar
    39    20    14   ar
@<TRIPOS>MOLECULE
*****
 35 39 0 0 0
SMALL
GASTEIGER

@<TRIPOS>ATOM
      1 C           3.9312   -0.4276   30.6344 C.ar    1  UNL1        0.1261
      2 N           2.6682    0.2480   30.1891 N.ar    1  UNL1       -0.1632
      3 N           2.7326    0.4160   28.6999 N.ar    1  UNL1       -0.2290
      4 C           4.0354   -0.1559   28.2249 C.ar    1  UNL1        0.0822
      5 C           4.7762   -0.6773   29.4204 C.ar    1  UNL1        0.0413
      6 C           1.6791    1.0453   27.8372 C.ar    1  UNL1        0.0933
      7 C           2.0590    2.0936   26.8339 C.ar    1  UNL1        0.0209
      8 C           1.0055    2.7229   25.9713 C.ar    1  UNL1        0.0130
      9 C          -0.4279    2.3039   26.1120 C.ar    1  UNL1        0.0586
     10 CL         -1.4813    2.9332   25.2493 Cl      1  UNL1       -0.0822
     11 C          -0.8078    1.2556   27.1153 C.ar    1  UNL1        0.0243
     12 C           0.2457    0.6263   27.9779 C.ar    1  UNL1        0.0761
     13 CL         -0.1342   -0.4221   28.9813 Cl      1  UNL1       -0.0806
     14 C           4.5134   -0.1989   26.8037 C.ar    1  UNL1        0.0175
     15 C           3.9610   -1.2229   25.8572 C.ar    1  UNL1        0.0020
     16 C           4.4391   -1.2659   24.4361 C.ar    1  UNL1        0.0067
     17 C           5.4696   -0.2847   23.9614 C.ar    1  UNL1        0.0346
     18 BR          5.9477   -0.3277   22.5403 Br      1  UNL1       -0.0490
     19 C           6.0222    0.7395   24.9080 C.ar    1  UNL1        0.0067
     20 C           5.5440    0.7823   26.3291 C.ar    1  UNL1        0.0020
     21 C           5.2075   -0.7012   34.2898 C.ar    1  UNL1        0.1104
     22 N           4.4607   -1.9942   34.1459 N.ar    1  UNL1       -0.1453
     23 N           3.8917   -2.0490   32.7591 N.ar    1  UNL1       -0.1396
     24 C           4.2868   -0.7900   32.0459 C.ar    1  UNL1        0.1525
     25 S           5.1000    0.0429   32.9918 S.2     1  UNL1       -0.0483
     26 C           4.6437   -0.2356   36.2811 C.3     1  UNL1        0.0065
     27 C           5.9341   -0.2345   35.5161 C.3     1  UNL1        0.0430
     28 C           7.2244   -0.2334   34.7513 C.3     1  UNL1        0.0065
     29 C           6.6606    0.2322   36.7426 C.3     1  UNL1        0.0065
     30 C           6.1251   -1.3331   29.4047 C.3     1  UNL1        0.1587
     31 N           6.2338   -2.8213   29.2508 N.ar    1  UNL1       -0.2254
     32 C           6.5524   -3.7996   30.3423 C.ar    1  UNL1        0.1975
     33 N           6.5585   -5.1753   29.7444 N.ar    1  UNL1       -0.2007
     34 C           6.2436   -5.0472   28.2834 C.ar    1  UNL1        0.2210
     35 N           6.0430   -3.5923   27.9784 N.ar    1  UNL1       -0.1448
@<TRIPOS>BOND
     1    26    27    1
     2    27    28    1
     3    27    29    1
     4    27    21    1
     5    21    22   ar
     6    22    23   ar
     7    23    24   ar
     8    24     1    1
     9     1     2   ar
    10     2     3   ar
    11     3     6    1
    12     6     7   ar
    13     7     8   ar
    14     8     9   ar
    15     9    10    1
    16     9    11   ar
    17    11    12   ar
    18    12    13    1
    19     3     4   ar
    20     4    14    1
    21    14    15   ar
    22    15    16   ar
    23    16    17   ar
    24    17    18    1
    25    17    19   ar
    26    19    20   ar
    27     4     5   ar
    28     5    30    1
    29    30    31    1
    30    31    32   ar
    31    32    33   ar
    32    33    34   ar
    33    34    35   ar
    34    24    25   ar
    35    25    21   ar
    36     5     1   ar
    37    35    31   ar
    38    12     6   ar
    39    20    14   ar
@<TRIPOS>MOLECULE
*****
 35 39 0 0 0
SMALL
GASTEIGER

@<TRIPOS>ATOM
      1 C           5.7826   -1.8783   26.5550 C.ar    1  UNL1        0.1261
      2 N           6.0223   -2.6208   25.2739 N.ar    1  UNL1       -0.1632
      3 N           5.3335   -1.8747   24.1699 N.ar    1  UNL1       -0.2290
      4 C           4.6679   -0.6712   24.7687 C.ar    1  UNL1        0.0822
      5 C           4.9455   -0.6734   26.2428 C.ar    1  UNL1        0.0413
      6 C           5.3136   -2.2639   22.7213 C.ar    1  UNL1        0.0933
      7 C           4.3716   -3.3290   22.2437 C.ar    1  UNL1        0.0209
      8 C           4.3518   -3.7181   20.7953 C.ar    1  UNL1        0.0130
      9 C           5.2739   -3.0421   19.8244 C.ar    1  UNL1        0.0586
     10 CL          5.2540   -3.4312   18.3758 Cl      1  UNL1       -0.0822
     11 C           6.2159   -1.9769   20.3019 C.ar    1  UNL1        0.0243
     12 C           6.2357   -1.5878   21.7504 C.ar    1  UNL1        0.0761
     13 CL          7.1777   -0.5227   22.2281 Cl      1  UNL1       -0.0806
     14 C           3.8657    0.3545   24.0241 C.ar    1  UNL1        0.0175
     15 C           2.3874    0.1691   23.8504 C.ar    1  UNL1        0.0020
     16 C           1.5852    1.1948   23.1058 C.ar    1  UNL1        0.0067
     17 C           2.2613    2.4060   22.5350 C.ar    1  UNL1        0.0346
     18 BR          1.4590    3.4317   21.7904 Br      1  UNL1       -0.0490
     19 C           3.7397    2.5915   22.7087 C.ar    1  UNL1        0.0067
     20 C           4.5418    1.5658   23.4533 C.ar    1  UNL1        0.0020
     21 C           6.8425   -3.5812   29.8780 C.ar    1  UNL1        0.1104
     22 N           7.3025   -2.1731   30.1143 N.ar    1  UNL1       -0.1453
     23 N           6.9615   -1.3639   28.8982 N.ar    1  UNL1       -0.1396
     24 C           6.2906   -2.2717   27.9104 C.ar    1  UNL1        0.1525
     25 S           6.2171   -3.6421   28.5160 S.2     1  UNL1       -0.0483
     26 C           6.9994   -5.6877   29.6838 C.3     1  UNL1        0.0065
     27 C           6.9831   -4.7270   30.8357 C.3     1  UNL1        0.0430
     28 C           6.9668   -3.7663   31.9876 C.3     1  UNL1        0.0065
     29 C           7.1238   -5.8728   31.7934 C.3     1  UNL1        0.0065
     30 C           4.4695    0.3497   27.2311 C.3     1  UNL1        0.1587
     31 N           3.2820    0.0577   28.0998 N.ar    1  UNL1       -0.2254
     32 C           3.3238   -0.4974   29.4928 C.ar    1  UNL1        0.1975
     33 N           1.9119   -0.6286   29.9819 N.ar    1  UNL1       -0.2007
     34 C           0.9976   -0.1547   28.8914 C.ar    1  UNL1        0.2210
     35 N           1.8444    0.2695   27.7282 N.ar    1  UNL1       -0.1448
@<TRIPOS>BOND
     1    26    27    1
     2    27    28    1
     3    27    29    1
     4    27    21    1
     5    21    22   ar
     6    22    23   ar
     7    23    24   ar
     8    24     1    1
     9     1     2   ar
    10     2     3   ar
    11     3     6    1
    12     6     7   ar
    13     7     8   ar
    14     8     9   ar
    15     9    10    1
    16     9    11   ar
    17    11    12   ar
    18    12    13    1
    19     3     4   ar
    20     4    14    1
    21    14    15   ar
    22    15    16   ar
    23    16    17   ar
    24    17    18    1
    25    17    19   ar
    26    19    20   ar
    27     4     5   ar
    28     5    30    1
    29    30    31    1
    30    31    32   ar
    31    32    33   ar
    32    33    34   ar
    33    34    35   ar
    34    24    25   ar
    35    25    21   ar
    36     5     1   ar
    37    35    31   ar
    38    12     6   ar
    39    20    14   ar
@<TRIPOS>MOLECULE
*****
 35 39 0 0 0
SMALL
GASTEIGER

@<TRIPOS>ATOM
      1 C           4.8093   -2.1280   24.4254 C.ar    1  UNL1        0.1261
      2 N           3.7967   -1.2998   25.1593 N.ar    1  UNL1       -0.1632
      3 N           4.3039   -1.0751   26.5529 N.ar    1  UNL1       -0.2290
      4 C           5.6301   -1.7644   26.6803 C.ar    1  UNL1        0.0822
      5 C           5.9425   -2.4151   25.3654 C.ar    1  UNL1        0.0413
      6 C           3.6073   -0.2975   27.6301 C.ar    1  UNL1        0.0933
      7 C           2.4632   -0.9136   28.3793 C.ar    1  UNL1        0.0209
      8 C           1.7667   -0.1361   29.4565 C.ar    1  UNL1        0.0130
      9 C           2.2143    1.2576   29.7843 C.ar    1  UNL1        0.0586
     10 CL          1.5177    2.0351   30.8615 Cl      1  UNL1       -0.0822
     11 C           3.3584    1.8736   29.0351 C.ar    1  UNL1        0.0243
     12 C           4.0549    1.0961   27.9580 C.ar    1  UNL1        0.0761
     13 CL          5.1991    1.7122   27.2086 Cl      1  UNL1       -0.0806
     14 C           6.4924   -1.7972   27.9072 C.ar    1  UNL1        0.0175
     15 C           6.1598   -2.7308   29.0331 C.ar    1  UNL1        0.0020
     16 C           7.0222   -2.7636   30.2599 C.ar    1  UNL1        0.0067
     17 C           8.2173   -1.8627   30.3609 C.ar    1  UNL1        0.0346
     18 BR          9.0796   -1.8956   31.5878 Br      1  UNL1       -0.0490
     19 C           8.5500   -0.9291   29.2350 C.ar    1  UNL1        0.0067
     20 C           7.6876   -0.8963   28.0082 C.ar    1  UNL1        0.0020
     21 C           4.4552   -2.5865   20.5874 C.ar    1  UNL1        0.1104
     22 N           4.6431   -4.0065   21.0329 N.ar    1  UNL1       -0.1453
     23 N           4.7987   -4.0076   22.5248 N.ar    1  UNL1       -0.1396
     24 C           4.7069   -2.5883   23.0014 C.ar    1  UNL1        0.1525
     25 S           4.4946   -1.7101   21.8040 S.2     1  UNL1       -0.0483
     26 C           5.4614   -2.9192   18.7498 C.3     1  UNL1        0.0065
     27 C           4.2619   -2.1244   19.1736 C.3     1  UNL1        0.0430
     28 C           3.0624   -1.3296   19.5974 C.3     1  UNL1        0.0065
     29 C           4.0686   -1.6622   17.7598 C.3     1  UNL1        0.0065
     30 C           7.1720   -3.2129   25.0465 C.3     1  UNL1        0.1587
     31 N           7.2174   -4.6789   25.3611 N.ar    1  UNL1       -0.2254
     32 C           7.8471   -5.7436   24.5125 C.ar    1  UNL1        0.1975
     33 N           7.6599   -7.0602   25.2063 N.ar    1  UNL1       -0.2007
     34 C           6.9145   -6.8093   26.4836 C.ar    1  UNL1        0.2210
     35 N           6.6410   -5.3376   26.5792 N.ar    1  UNL1       -0.1448
@<TRIPOS>BOND
     1    26    27    1
     2    27    28    1
     3    27    29    1
     4    27    21    1
     5    21    22   ar
     6    22    23   ar
     7    23    24   ar
     8    24     1    1
     9     1     2   ar
    10     2     3   ar
    11     3     6    1
    12     6     7   ar
    13     7     8   ar
    14     8     9   ar
    15     9    10    1
    16     9    11   ar
    17    11    12   ar
    18    12    13    1
    19     3     4   ar
    20     4    14    1
    21    14    15   ar
    22    15    16   ar
    23    16    17   ar
    24    17    18    1
    25    17    19   ar
    26    19    20   ar
    27     4     5   ar
    28     5    30    1
    29    30    31    1
    30    31    32   ar
    31    32    33   ar
    32    33    34   ar
    33    34    35   ar
    34    24    25   ar
    35    25    21   ar
    36     5     1   ar
    37    35    31   ar
    38    12     6   ar
    39    20    14   ar
@<TRIPOS>MOLECULE
*****
 35 39 0 0 0
SMALL
GASTEIGER

@<TRIPOS>ATOM
      1 C          -1.5092    3.2111   21.8910 C.ar    1  UNL1        0.1261
      2 N          -0.9645    2.3836   20.7647 N.ar    1  UNL1       -0.1632
      3 N           0.3916    1.8860   21.1688 N.ar    1  UNL1       -0.2290
      4 C           0.6850    2.4059   22.5449 C.ar    1  UNL1        0.0822
      5 C          -0.4897    3.2248   22.9913 C.ar    1  UNL1        0.0413
      6 C           1.2956    1.0204   20.3419 C.ar    1  UNL1        0.0933
      7 C           1.4789   -0.4257   20.6956 C.ar    1  UNL1        0.0209
      8 C           2.3828   -1.2912   19.8688 C.ar    1  UNL1        0.0130
      9 C           3.1035   -0.7106   18.6883 C.ar    1  UNL1        0.0586
     10 CL          4.0075   -1.5762   17.8614 Cl      1  UNL1       -0.0822
     11 C           2.9202    0.7355   18.3346 C.ar    1  UNL1        0.0243
     12 C           2.0162    1.6010   19.1615 C.ar    1  UNL1        0.0761
     13 CL          1.8329    3.0472   18.8078 Cl      1  UNL1       -0.0806
     14 C           1.9339    2.1515   23.3357 C.ar    1  UNL1        0.0175
     15 C           3.0046    3.1997   23.4047 C.ar    1  UNL1        0.0020
     16 C           4.2535    2.9453   24.1956 C.ar    1  UNL1        0.0067
     17 C           4.4318    1.6426   24.9175 C.ar    1  UNL1        0.0346
     18 BR          5.6807    1.3882   25.7084 Br      1  UNL1       -0.0490
     19 C           3.3611    0.5943   24.8486 C.ar    1  UNL1        0.0067
     20 C           2.1122    0.8488   24.0577 C.ar    1  UNL1        0.0020
     21 C          -5.1108    4.5209   22.5063 C.ar    1  UNL1        0.1104
     22 N          -4.6639    5.4159   21.3886 N.ar    1  UNL1       -0.1453
     23 N          -3.2604    5.0342   21.0221 N.ar    1  UNL1       -0.1396
     24 C          -2.8398    3.9033   21.9133 C.ar    1  UNL1        0.1525
     25 S          -3.9834    3.5861   22.8305 S.2     1  UNL1       -0.0483
     26 C          -5.8168    4.0932   24.4604 C.3     1  UNL1        0.0065
     27 C          -6.4499    4.5549   23.1812 C.3     1  UNL1        0.0430
     28 C          -7.0829    5.0165   21.9021 C.3     1  UNL1        0.0065
     29 C          -7.7890    4.5888   23.8562 C.3     1  UNL1        0.0065
     30 C          -0.6218    3.9332   24.3069 C.3     1  UNL1        0.1587
     31 N          -0.5123    3.1615   25.5885 N.ar    1  UNL1       -0.2254
     32 C          -0.0512    3.7051   26.9083 C.ar    1  UNL1        0.1975
     33 N          -0.0986    2.5903   27.9108 N.ar    1  UNL1       -0.2007
     34 C          -0.5890    1.3578   27.2106 C.ar    1  UNL1        0.2210
     35 N          -0.8447    1.7108   25.7753 N.ar    1  UNL1       -0.1448
@<TRIPOS>BOND
     1    26    27    1
     2    27    28    1
     3    27    29    1
     4    27    21    1
     5    21    22   ar
     6    22    23   ar
     7    23    24   ar
     8    24     1    1
     9     1     2   ar
    10     2     3   ar
    11     3     6    1
    12     6     7   ar
    13     7     8   ar
    14     8     9   ar
    15     9    10    1
    16     9    11   ar
    17    11    12   ar
    18    12    13    1
    19     3     4   ar
    20     4    14    1
    21    14    15   ar
    22    15    16   ar
    23    16    17   ar
    24    17    18    1
    25    17    19   ar
    26    19    20   ar
    27     4     5   ar
    28     5    30    1
    29    30    31    1
    30    31    32   ar
    31    32    33   ar
    32    33    34   ar
    33    34    35   ar
    34    24    25   ar
    35    25    21   ar
    36     5     1   ar
    37    35    31   ar
    38    12     6   ar
    39    20    14   ar
