@<TRIPOS>MOLECULE
*****
 29 31 0 0 0
SMALL
GASTEIGER

@<TRIPOS>ATOM
      1 C          -5.6083  -17.6156   22.8465 C.ar    1  UNL1        0.0942
      2 C          -5.8515  -16.4960   23.8147 C.ar    1  UNL1        0.1078
      3 N          -7.2470  -16.1887   24.2706 N.ar    1  UNL1       -0.2119
      4 C          -8.3994  -17.0009   23.7583 C.ar    1  UNL1        0.2206
      5 N          -8.1562  -18.1205   22.7902 N.ar    1  UNL1       -0.2094
      6 C          -6.7606  -18.4278   22.3343 C.ar    1  UNL1        0.1613
      7 O          -3.2287  -16.8097   22.1845 O.2     1  UNL1       -0.2700
      8 C          -4.2126  -17.9230   22.3906 C.2     1  UNL1        0.2488
      9 N          -3.8010  -19.3436   22.1407 N.am    1  UNL1       -0.3008
     10 H          -4.4469  -20.0742   22.2760 H       1  UNL1        0.1497
     11 C          -2.4054  -19.6510   21.6848 C.3     1  UNL1        0.0896
     12 C          -1.8168  -18.9111   20.5203 C.3     1  UNL1        0.0196
     13 C          -2.4904  -18.6598   19.2038 C.3     1  UNL1        0.0017
     14 C          -1.5412  -17.8860   18.3377 C.3     1  UNL1        0.0001
     15 C          -0.2808  -17.6591   19.1189 C.3     1  UNL1        0.0001
     16 C          -0.4512  -18.2927   20.4678 C.3     1  UNL1        0.0017
     17 C          -6.5173  -19.5474   21.3661 C.3     1  UNL1        0.4351
     18 F          -6.2741  -20.6670   20.3979 F       1  UNL1       -0.1644
     19 F          -6.6293  -20.5396   22.4854 F       1  UNL1       -0.1644
     20 F          -6.4053  -18.5552   20.2468 F       1  UNL1       -0.1644
     21 N          -9.7950  -16.6935   24.2143 N.pl3   1  UNL1       -0.2825
     22 H          -9.9491  -16.3266   25.1148 H       1  UNL1        0.1551
     23 C         -10.9558  -16.9452   23.2983 C.ar    1  UNL1        0.0513
     24 C         -12.0680  -17.8547   23.7294 C.ar    1  UNL1        0.0147
     25 C         -13.2288  -18.1063   22.8133 C.ar    1  UNL1        0.0021
     26 C         -13.2775  -17.4485   21.4662 C.ar    1  UNL1        0.0115
     27 C         -12.1653  -16.5389   21.0351 C.ar    1  UNL1        0.0589
     28 CL        -12.2140  -15.8810   19.6879 Cl      1  UNL1       -0.0822
     29 C         -11.0045  -16.2873   21.9511 C.ar    1  UNL1        0.0261
@<TRIPOS>BOND
     1     7     8    2
     2     8     9   am
     3     9    11    1
     4    11    12    1
     5    12    13    1
     6    13    14    1
     7    14    15    1
     8    15    16    1
     9     8     1    1
    10     1     2   ar
    11     2     3   ar
    12     3     4   ar
    13     4    21    1
    14    21    23    1
    15    23    24   ar
    16    24    25   ar
    17    25    26   ar
    18    26    27   ar
    19    27    28    1
    20    27    29   ar
    21     4     5   ar
    22     5     6   ar
    23     6    17    1
    24    17    18    1
    25    17    19    1
    26    17    20    1
    27    16    12    1
    28     6     1   ar
    29    29    23   ar
    30     9    10    1
    31    21    22    1
@<TRIPOS>MOLECULE
*****
 29 31 0 0 0
SMALL
GASTEIGER

@<TRIPOS>ATOM
      1 C          -9.0991  -19.3741   21.2390 C.ar    1  UNL1        0.0942
      2 C          -8.4865  -19.4116   19.8704 C.ar    1  UNL1        0.1078
      3 N          -7.0226  -19.6971   19.7115 N.ar    1  UNL1       -0.2119
      4 C          -6.1712  -19.9451   20.9213 C.ar    1  UNL1        0.2206
      5 N          -6.7838  -19.9076   22.2900 N.ar    1  UNL1       -0.2094
      6 C          -8.2477  -19.6221   22.4489 C.ar    1  UNL1        0.1613
      7 O         -11.5666  -20.1869   21.2064 O.2     1  UNL1       -0.2700
      8 C         -10.5631  -19.0885   21.3979 C.2     1  UNL1        0.2488
      9 N         -11.0236  -17.7046   21.7483 N.am    1  UNL1       -0.3008
     10 H         -10.3650  -16.9838   21.8740 H       1  UNL1        0.1497
     11 C         -12.4876  -17.4191   21.9072 C.3     1  UNL1        0.0896
     12 C         -13.2073  -17.8592   23.1475 C.3     1  UNL1        0.0196
     13 C         -14.6941  -17.9729   23.3107 C.3     1  UNL1        0.0017
     14 C         -14.9723  -18.4469   24.7064 C.3     1  UNL1        0.0001
     15 C         -13.6574  -18.6262   25.4058 C.3     1  UNL1        0.0001
     16 C         -12.5666  -18.2630   24.4423 C.3     1  UNL1        0.0017
     17 C          -8.8604  -19.5845   23.8176 C.3     1  UNL1        0.4351
     18 F          -9.4730  -19.5471   25.1862 F       1  UNL1       -0.1644
     19 F          -9.0061  -21.0772   23.7932 F       1  UNL1       -0.1644
     20 F          -8.7147  -18.0919   23.8419 F       1  UNL1       -0.1644
     21 N          -4.7072  -20.2307   20.7624 N.pl3   1  UNL1       -0.2825
     22 H          -4.4077  -21.1264   20.4847 H       1  UNL1        0.1551
     23 C          -3.6995  -19.1515   21.0268 C.ar    1  UNL1        0.0513
     24 C          -3.8410  -18.2727   22.2341 C.ar    1  UNL1        0.0147
     25 C          -2.8333  -17.1934   22.4984 C.ar    1  UNL1        0.0021
     26 C          -1.6842  -16.9930   21.5554 C.ar    1  UNL1        0.0115
     27 C          -1.5427  -17.8718   20.3481 C.ar    1  UNL1        0.0589
     28 CL         -0.3936  -17.6714   19.4050 Cl      1  UNL1       -0.0822
     29 C          -2.5503  -18.9510   20.0837 C.ar    1  UNL1        0.0261
@<TRIPOS>BOND
     1     7     8    2
     2     8     9   am
     3     9    11    1
     4    11    12    1
     5    12    13    1
     6    13    14    1
     7    14    15    1
     8    15    16    1
     9     8     1    1
    10     1     2   ar
    11     2     3   ar
    12     3     4   ar
    13     4    21    1
    14    21    23    1
    15    23    24   ar
    16    24    25   ar
    17    25    26   ar
    18    26    27   ar
    19    27    28    1
    20    27    29   ar
    21     4     5   ar
    22     5     6   ar
    23     6    17    1
    24    17    18    1
    25    17    19    1
    26    17    20    1
    27    16    12    1
    28     6     1   ar
    29    29    23   ar
    30     9    10    1
    31    21    22    1
@<TRIPOS>MOLECULE
*****
 29 31 0 0 0
SMALL
GASTEIGER

@<TRIPOS>ATOM
      1 C          -7.5016  -17.3804   22.9405 C.ar    1  UNL1        0.0942
      2 C          -6.3334  -16.5828   23.4396 C.ar    1  UNL1        0.1078
      3 N          -4.9369  -17.0917   23.2381 N.ar    1  UNL1       -0.2119
      4 C          -4.7085  -18.3981   22.5374 C.ar    1  UNL1        0.2206
      5 N          -5.8766  -19.1957   22.0383 N.ar    1  UNL1       -0.2094
      6 C          -7.2732  -18.6869   22.2398 C.ar    1  UNL1        0.1613
      7 O          -9.2484  -16.1159   24.3896 O.2     1  UNL1       -0.2700
      8 C          -8.8982  -16.8715   23.1420 C.2     1  UNL1        0.2488
      9 N          -9.9445  -17.1182   22.0959 N.am    1  UNL1       -0.3008
     10 H          -9.7147  -17.6141   21.2771 H       1  UNL1        0.1497
     11 C         -11.3412  -16.6094   22.2974 C.3     1  UNL1        0.0896
     12 C         -12.2844  -17.3454   23.2021 C.3     1  UNL1        0.0196
     13 C         -11.8999  -18.3516   24.2460 C.3     1  UNL1        0.0017
     14 C         -13.1555  -18.8326   24.9109 C.3     1  UNL1        0.0001
     15 C         -14.3161  -18.1237   24.2779 C.3     1  UNL1        0.0001
     16 C         -13.7776  -17.2046   23.2218 C.3     1  UNL1        0.0017
     17 C          -8.4414  -19.4845   21.7406 C.3     1  UNL1        0.4351
     18 F          -9.6096  -20.2820   21.2414 F       1  UNL1       -0.1644
     19 F          -8.2120  -18.9541   20.3564 F       1  UNL1       -0.1644
     20 F          -8.6708  -20.0149   23.1248 F       1  UNL1       -0.1644
     21 N          -3.3118  -18.9070   22.3359 N.pl3   1  UNL1       -0.2825
     22 H          -2.8934  -19.4799   23.0185 H       1  UNL1        0.1551
     23 C          -2.5528  -18.5430   21.0945 C.ar    1  UNL1        0.0513
     24 C          -3.2045  -18.6780   19.7502 C.ar    1  UNL1        0.0147
     25 C          -2.4454  -18.3139   18.5087 C.ar    1  UNL1        0.0021
     26 C          -1.0346  -17.8148   18.6115 C.ar    1  UNL1        0.0115
     27 C          -0.3829  -17.6798   19.9558 C.ar    1  UNL1        0.0589
     28 CL          1.0279  -17.1807   20.0586 Cl      1  UNL1       -0.0822
     29 C          -1.1419  -18.0438   21.1972 C.ar    1  UNL1        0.0261
@<TRIPOS>BOND
     1     7     8    2
     2     8     9   am
     3     9    11    1
     4    11    12    1
     5    12    13    1
     6    13    14    1
     7    14    15    1
     8    15    16    1
     9     8     1    1
    10     1     2   ar
    11     2     3   ar
    12     3     4   ar
    13     4    21    1
    14    21    23    1
    15    23    24   ar
    16    24    25   ar
    17    25    26   ar
    18    26    27   ar
    19    27    28    1
    20    27    29   ar
    21     4     5   ar
    22     5     6   ar
    23     6    17    1
    24    17    18    1
    25    17    19    1
    26    17    20    1
    27    16    12    1
    28     6     1   ar
    29    29    23   ar
    30     9    10    1
    31    21    22    1
@<TRIPOS>MOLECULE
*****
 29 31 0 0 0
SMALL
GASTEIGER

@<TRIPOS>ATOM
      1 C          -8.0859  -18.9332   22.2258 C.ar    1  UNL1        0.0942
      2 C          -7.2472  -20.0592   21.6981 C.ar    1  UNL1        0.1078
      3 N          -5.7510  -19.9751   21.7651 N.ar    1  UNL1       -0.2119
      4 C          -5.0937  -18.7650   22.3597 C.ar    1  UNL1        0.2206
      5 N          -5.9325  -17.6390   22.8874 N.ar    1  UNL1       -0.2094
      6 C          -7.4286  -17.7231   22.8204 C.ar    1  UNL1        0.1613
      7 O         -10.2706  -20.3300   22.3883 O.2     1  UNL1       -0.2700
      8 C          -9.5821  -19.0172   22.1588 C.2     1  UNL1        0.2488
      9 N         -10.3898  -17.7885   21.8623 N.am    1  UNL1       -0.3008
     10 H          -9.9379  -16.9269   21.7117 H       1  UNL1        0.1497
     11 C         -11.8860  -17.8725   21.7954 C.3     1  UNL1        0.0896
     12 C         -12.6815  -18.0943   23.0475 C.3     1  UNL1        0.0196
     13 C         -12.1319  -18.5142   24.3785 C.3     1  UNL1        0.0017
     14 C         -13.2770  -18.6145   25.3421 C.3     1  UNL1        0.0001
     15 C         -14.5344  -18.2565   24.6067 C.3     1  UNL1        0.0001
     16 C         -14.1664  -17.9350   23.1886 C.3     1  UNL1        0.0017
     17 C          -8.2675  -16.5970   23.3481 C.3     1  UNL1        0.4351
     18 F          -9.1063  -15.4710   23.8757 F       1  UNL1       -0.1644
     19 F          -7.9439  -15.7849   22.1293 F       1  UNL1       -0.1644
     20 F          -8.5911  -17.4092   24.5670 F       1  UNL1       -0.1644
     21 N          -3.5975  -18.6810   22.4267 N.pl3   1  UNL1       -0.2825
     22 H          -3.1353  -18.8085   23.2866 H       1  UNL1        0.1551
     23 C          -2.8056  -18.4027   21.1836 C.ar    1  UNL1        0.0513
     24 C          -3.4656  -18.4868   19.8393 C.ar    1  UNL1        0.0147
     25 C          -2.6736  -18.2084   18.5962 C.ar    1  UNL1        0.0021
     26 C          -1.2216  -17.8459   18.6974 C.ar    1  UNL1        0.0115
     27 C          -0.5616  -17.7618   20.0418 C.ar    1  UNL1        0.0589
     28 CL          0.8904  -17.3993   20.1430 Cl      1  UNL1       -0.0822
     29 C          -1.3535  -18.0402   21.2849 C.ar    1  UNL1        0.0261
@<TRIPOS>BOND
     1     7     8    2
     2     8     9   am
     3     9    11    1
     4    11    12    1
     5    12    13    1
     6    13    14    1
     7    14    15    1
     8    15    16    1
     9     8     1    1
    10     1     2   ar
    11     2     3   ar
    12     3     4   ar
    13     4    21    1
    14    21    23    1
    15    23    24   ar
    16    24    25   ar
    17    25    26   ar
    18    26    27   ar
    19    27    28    1
    20    27    29   ar
    21     4     5   ar
    22     5     6   ar
    23     6    17    1
    24    17    18    1
    25    17    19    1
    26    17    20    1
    27    16    12    1
    28     6     1   ar
    29    29    23   ar
    30     9    10    1
    31    21    22    1
@<TRIPOS>MOLECULE
*****
 29 31 0 0 0
SMALL
GASTEIGER

@<TRIPOS>ATOM
      1 C           6.2046   -2.4540   19.3122 C.ar    1  UNL1        0.0942
      2 C           7.6163   -2.0424   19.6083 C.ar    1  UNL1        0.1078
      3 N           8.5233   -2.9656   20.3665 N.ar    1  UNL1       -0.2119
      4 C           8.0187   -4.3005   20.8285 C.ar    1  UNL1        0.2206
      5 N           6.6071   -4.7122   20.5323 N.ar    1  UNL1       -0.2094
      6 C           5.7001   -3.7890   19.7741 C.ar    1  UNL1        0.1613
      7 O           5.0224   -1.7766   17.1000 O.2     1  UNL1       -0.2700
      8 C           5.2975   -1.5308   18.5540 C.2     1  UNL1        0.2488
      9 N           4.6655   -0.3618   19.2497 N.am    1  UNL1       -0.3008
     10 H           4.8461   -0.2005   20.2039 H       1  UNL1        0.1497
     11 C           3.7584    0.5614   18.4915 C.3     1  UNL1        0.0896
     12 C           2.3780    0.8454   19.0051 C.3     1  UNL1        0.0196
     13 C           1.5502   -0.0676   19.8601 C.3     1  UNL1        0.0017
     14 C           0.2436    0.6150   20.1373 C.3     1  UNL1        0.0001
     15 C           0.2639    1.9500   19.4536 C.3     1  UNL1        0.0001
     16 C           1.5830    2.0924   18.7538 C.3     1  UNL1        0.0017
     17 C           4.2883   -4.2006   19.4779 C.3     1  UNL1        0.4351
     18 F           2.8767   -4.6122   19.1817 F       1  UNL1       -0.1644
     19 F           3.8116   -3.4222   20.6681 F       1  UNL1       -0.1644
     20 F           4.7650   -4.9791   18.2877 F       1  UNL1       -0.1644
     21 N           8.9259   -5.2238   21.5867 N.pl3   1  UNL1       -0.2825
     22 H           9.7874   -5.4975   21.1966 H       1  UNL1        0.1551
     23 C           8.5204   -5.7300   22.9392 C.ar    1  UNL1        0.0513
     24 C           8.8062   -7.1511   23.3247 C.ar    1  UNL1        0.0147
     25 C           8.4007   -7.6573   24.6773 C.ar    1  UNL1        0.0021
     26 C           7.7095   -6.7424   25.6443 C.ar    1  UNL1        0.0115
     27 C           7.4238   -5.3212   25.2587 C.ar    1  UNL1        0.0589
     28 CL          6.7326   -4.4063   26.2257 Cl      1  UNL1       -0.0822
     29 C           7.8292   -4.8150   23.9062 C.ar    1  UNL1        0.0261
@<TRIPOS>BOND
     1     7     8    2
     2     8     9   am
     3     9    11    1
     4    11    12    1
     5    12    13    1
     6    13    14    1
     7    14    15    1
     8    15    16    1
     9     8     1    1
    10     1     2   ar
    11     2     3   ar
    12     3     4   ar
    13     4    21    1
    14    21    23    1
    15    23    24   ar
    16    24    25   ar
    17    25    26   ar
    18    26    27   ar
    19    27    28    1
    20    27    29   ar
    21     4     5   ar
    22     5     6   ar
    23     6    17    1
    24    17    18    1
    25    17    19    1
    26    17    20    1
    27    16    12    1
    28     6     1   ar
    29    29    23   ar
    30     9    10    1
    31    21    22    1
@<TRIPOS>MOLECULE
*****
 29 31 0 0 0
SMALL
GASTEIGER

@<TRIPOS>ATOM
      1 C          -5.6817  -18.1158   22.3975 C.ar    1  UNL1        0.0942
      2 C          -5.7212  -16.9234   23.3067 C.ar    1  UNL1        0.1078
      3 N          -7.0343  -16.4246   23.8328 N.ar    1  UNL1       -0.2119
      4 C          -8.3080  -17.1181   23.4496 C.ar    1  UNL1        0.2206
      5 N          -8.2685  -18.3105   22.5404 N.ar    1  UNL1       -0.2094
      6 C          -6.9553  -18.8093   22.0143 C.ar    1  UNL1        0.1613
      7 O          -3.3300  -19.1363   22.8198 O.2     1  UNL1       -0.2700
      8 C          -4.3685  -18.6147   21.8714 C.2     1  UNL1        0.2488
      9 N          -4.0938  -18.5918   20.3970 N.am    1  UNL1       -0.3008
     10 H          -4.7754  -18.2495   19.7745 H       1  UNL1        0.1497
     11 C          -2.7806  -19.0907   19.8709 C.3     1  UNL1        0.0896
     12 C          -1.5477  -18.2479   20.0106 C.3     1  UNL1        0.0196
     13 C          -0.1405  -18.6928   19.7425 C.3     1  UNL1        0.0017
     14 C           0.7714  -17.5321   20.0092 C.3     1  UNL1        0.0001
     15 C          -0.0723  -16.3697   20.4421 C.3     1  UNL1        0.0001
     16 C          -1.5055  -16.8122   20.4430 C.3     1  UNL1        0.0017
     17 C          -6.9158  -20.0017   21.1050 C.3     1  UNL1        0.4351
     18 F          -6.8763  -21.1940   20.1958 F       1  UNL1       -0.1644
     19 F          -6.6550  -20.8919   22.2838 F       1  UNL1       -0.1644
     20 F          -7.1766  -19.1115   19.9263 F       1  UNL1       -0.1644
     21 N          -9.6212  -16.6193   23.9757 N.pl3   1  UNL1       -0.2825
     22 H          -9.6472  -16.0664   24.7899 H       1  UNL1        0.1551
     23 C         -10.8946  -16.9627   23.2613 C.ar    1  UNL1        0.0513
     24 C         -11.0036  -16.7527   21.7801 C.ar    1  UNL1        0.0147
     25 C         -12.2771  -17.0961   21.0656 C.ar    1  UNL1        0.0021
     26 C         -13.4415  -17.6495   21.8324 C.ar    1  UNL1        0.0115
     27 C         -13.3324  -17.8596   23.3136 C.ar    1  UNL1        0.0589
     28 CL        -14.4967  -18.4130   24.0804 Cl      1  UNL1       -0.0822
     29 C         -12.0590  -17.5162   24.0280 C.ar    1  UNL1        0.0261
@<TRIPOS>BOND
     1     7     8    2
     2     8     9   am
     3     9    11    1
     4    11    12    1
     5    12    13    1
     6    13    14    1
     7    14    15    1
     8    15    16    1
     9     8     1    1
    10     1     2   ar
    11     2     3   ar
    12     3     4   ar
    13     4    21    1
    14    21    23    1
    15    23    24   ar
    16    24    25   ar
    17    25    26   ar
    18    26    27   ar
    19    27    28    1
    20    27    29   ar
    21     4     5   ar
    22     5     6   ar
    23     6    17    1
    24    17    18    1
    25    17    19    1
    26    17    20    1
    27    16    12    1
    28     6     1   ar
    29    29    23   ar
    30     9    10    1
    31    21    22    1
@<TRIPOS>MOLECULE
*****
 29 31 0 0 0
SMALL
GASTEIGER

@<TRIPOS>ATOM
      1 C          -8.2490  -17.1013   22.9505 C.ar    1  UNL1        0.0942
      2 C          -7.4276  -17.8882   21.9727 C.ar    1  UNL1        0.1078
      3 N          -5.9369  -17.9525   22.1262 N.ar    1  UNL1       -0.2119
      4 C          -5.2675  -17.2299   23.2576 C.ar    1  UNL1        0.2206
      5 N          -6.0889  -16.4430   24.2354 N.ar    1  UNL1       -0.2094
      6 C          -7.5796  -16.3787   24.0818 C.ar    1  UNL1        0.1613
      7 O         -10.4875  -15.8153   23.2424 O.2     1  UNL1       -0.2700
      8 C          -9.7397  -17.0370   22.7970 C.2     1  UNL1        0.2488
      9 N         -10.4827  -18.1943   22.1981 N.am    1  UNL1       -0.3008
     10 H          -9.9919  -18.9961   21.9058 H       1  UNL1        0.1497
     11 C         -11.9735  -18.1299   22.0446 C.3     1  UNL1        0.0896
     12 C         -12.8579  -18.2630   23.2488 C.3     1  UNL1        0.0196
     13 C         -14.3458  -18.0749   23.2750 C.3     1  UNL1        0.0017
     14 C         -14.8171  -18.3031   24.6806 C.3     1  UNL1        0.0001
     15 C         -13.6205  -18.6323   25.5232 C.3     1  UNL1        0.0001
     16 C         -12.4096  -18.6074   24.6382 C.3     1  UNL1        0.0017
     17 C          -8.4011  -15.5918   25.0596 C.3     1  UNL1        0.4351
     18 F          -9.2225  -14.8049   26.0374 F       1  UNL1       -0.1644
     19 F          -8.0043  -14.3204   24.3697 F       1  UNL1       -0.1644
     20 F          -8.7978  -16.8632   25.7496 F       1  UNL1       -0.1644
     21 N          -3.7768  -17.2943   23.4111 N.pl3   1  UNL1       -0.2825
     22 H          -3.3511  -16.9532   24.2307 H       1  UNL1        0.1551
     23 C          -2.9345  -17.8782   22.3158 C.ar    1  UNL1        0.0513
     24 C          -3.1062  -19.3156   21.9230 C.ar    1  UNL1        0.0147
     25 C          -2.2639  -19.8996   20.8277 C.ar    1  UNL1        0.0021
     26 C          -1.2500  -19.0461   20.1253 C.ar    1  UNL1        0.0115
     27 C          -1.0783  -17.6086   20.5181 C.ar    1  UNL1        0.0589
     28 CL         -0.0644  -16.7551   19.8156 Cl      1  UNL1       -0.0822
     29 C          -1.9205  -17.0247   21.6133 C.ar    1  UNL1        0.0261
@<TRIPOS>BOND
     1     7     8    2
     2     8     9   am
     3     9    11    1
     4    11    12    1
     5    12    13    1
     6    13    14    1
     7    14    15    1
     8    15    16    1
     9     8     1    1
    10     1     2   ar
    11     2     3   ar
    12     3     4   ar
    13     4    21    1
    14    21    23    1
    15    23    24   ar
    16    24    25   ar
    17    25    26   ar
    18    26    27   ar
    19    27    28    1
    20    27    29   ar
    21     4     5   ar
    22     5     6   ar
    23     6    17    1
    24    17    18    1
    25    17    19    1
    26    17    20    1
    27    16    12    1
    28     6     1   ar
    29    29    23   ar
    30     9    10    1
    31    21    22    1
@<TRIPOS>MOLECULE
*****
 29 31 0 0 0
SMALL
GASTEIGER

@<TRIPOS>ATOM
      1 C           4.9482   -2.5458   20.8675 C.ar    1  UNL1        0.0942
      2 C           4.5285   -1.3178   21.6197 C.ar    1  UNL1        0.1078
      3 N           3.2027   -0.6783   21.3314 N.ar    1  UNL1       -0.2119
      4 C           2.2965   -1.2668   20.2910 C.ar    1  UNL1        0.2206
      5 N           2.7161   -2.4947   19.5388 N.ar    1  UNL1       -0.2094
      6 C           4.0420   -3.1343   19.8270 C.ar    1  UNL1        0.1613
      7 O           7.4163   -3.0070   20.1999 O.2     1  UNL1       -0.2700
      8 C           6.2741   -3.1854   21.1557 C.2     1  UNL1        0.2488
      9 N           6.4576   -4.0032   22.3996 N.am    1  UNL1       -0.3008
     10 H           5.7079   -4.1203   23.0268 H       1  UNL1        0.1497
     11 C           7.7836   -4.6428   22.6878 C.3     1  UNL1        0.0896
     12 C           7.9002   -5.6703   23.7743 C.3     1  UNL1        0.0196
     13 C           8.5326   -7.0242   23.6432 C.3     1  UNL1        0.0017
     14 C           8.4282   -7.7150   24.9706 C.3     1  UNL1        0.0001
     15 C           7.7313   -6.7881   25.9220 C.3     1  UNL1        0.0001
     16 C           7.4050   -5.5245   25.1827 C.3     1  UNL1        0.0017
     17 C           4.4617   -4.3623   19.0748 C.3     1  UNL1        0.4351
     18 F           4.8814   -5.5903   18.3226 F       1  UNL1       -0.1644
     19 F           3.7530   -5.2205   20.0804 F       1  UNL1       -0.1644
     20 F           5.1704   -3.5042   18.0692 F       1  UNL1       -0.1644
     21 N           0.9706   -0.6272   20.0028 N.pl3   1  UNL1       -0.2825
     22 H           0.1497   -1.1706   20.0114 H       1  UNL1        0.1551
     23 C           0.8954    0.8403   19.7015 C.ar    1  UNL1        0.0513
     24 C           1.8449    1.4530   18.7150 C.ar    1  UNL1        0.0147
     25 C           1.7697    2.9206   18.4137 C.ar    1  UNL1        0.0021
     26 C           0.7451    3.7753   19.0989 C.ar    1  UNL1        0.0115
     27 C          -0.2043    3.1626   20.0854 C.ar    1  UNL1        0.0589
     28 CL         -1.2289    4.0174   20.7705 Cl      1  UNL1       -0.0822
     29 C          -0.1292    1.6952   20.3867 C.ar    1  UNL1        0.0261
@<TRIPOS>BOND
     1     7     8    2
     2     8     9   am
     3     9    11    1
     4    11    12    1
     5    12    13    1
     6    13    14    1
     7    14    15    1
     8    15    16    1
     9     8     1    1
    10     1     2   ar
    11     2     3   ar
    12     3     4   ar
    13     4    21    1
    14    21    23    1
    15    23    24   ar
    16    24    25   ar
    17    25    26   ar
    18    26    27   ar
    19    27    28    1
    20    27    29   ar
    21     4     5   ar
    22     5     6   ar
    23     6    17    1
    24    17    18    1
    25    17    19    1
    26    17    20    1
    27    16    12    1
    28     6     1   ar
    29    29    23   ar
    30     9    10    1
    31    21    22    1
@<TRIPOS>MOLECULE
*****
 29 31 0 0 0
SMALL
GASTEIGER

@<TRIPOS>ATOM
      1 C           0.3702    2.1753   28.3298 C.ar    1  UNL1        0.0942
      2 C           1.0683    3.4193   28.7934 C.ar    1  UNL1        0.1078
      3 N           1.2680    3.6651   30.2596 N.ar    1  UNL1       -0.2119
      4 C           0.7697    2.6668   31.2621 C.ar    1  UNL1        0.2206
      5 N           0.0716    1.4228   30.7985 N.ar    1  UNL1       -0.2094
      6 C          -0.1281    1.1770   29.3324 C.ar    1  UNL1        0.1613
      7 O          -1.1532    2.2317   26.2259 O.2     1  UNL1       -0.2700
      8 C           0.1705    1.9294   26.8636 C.2     1  UNL1        0.2488
      9 N           1.2943    1.3813   26.0351 N.am    1  UNL1       -0.3008
     10 H           2.1631    1.1829   26.4536 H       1  UNL1        0.1497
     11 C           1.0946    1.1354   24.5689 C.3     1  UNL1        0.0896
     12 C           2.0672    0.2800   23.8125 C.3     1  UNL1        0.0196
     13 C           2.1655    0.1654   22.3201 C.3     1  UNL1        0.0017
     14 C           3.2714   -0.7964   22.0009 C.3     1  UNL1        0.0001
     15 C           3.8567   -1.2762   23.2961 C.3     1  UNL1        0.0001
     16 C           3.1124   -0.6109   24.4156 C.3     1  UNL1        0.0017
     17 C          -0.8263   -0.0671   28.8687 C.3     1  UNL1        0.4351
     18 F          -1.5243   -1.3112   28.4050 F       1  UNL1       -0.1644
     19 F           0.4978   -0.7578   28.7284 F       1  UNL1       -0.1644
     20 F          -2.1503    0.6236   29.0089 F       1  UNL1       -0.1644
     21 N           0.9694    2.9127   32.7283 N.pl3   1  UNL1       -0.2825
     22 H           1.3614    2.2105   33.2963 H       1  UNL1        0.1551
     23 C           0.5720    4.2283   33.3292 C.ar    1  UNL1        0.0513
     24 C           1.4092    4.8417   34.4122 C.ar    1  UNL1        0.0147
     25 C           1.0117    6.1574   35.0131 C.ar    1  UNL1        0.0021
     26 C          -0.2229    6.8597   34.5309 C.ar    1  UNL1        0.0115
     27 C          -1.0600    6.2464   33.4478 C.ar    1  UNL1        0.0589
     28 CL         -2.2946    6.9487   32.9657 Cl      1  UNL1       -0.0822
     29 C          -0.6626    4.9307   32.8470 C.ar    1  UNL1        0.0261
@<TRIPOS>BOND
     1     7     8    2
     2     8     9   am
     3     9    11    1
     4    11    12    1
     5    12    13    1
     6    13    14    1
     7    14    15    1
     8    15    16    1
     9     8     1    1
    10     1     2   ar
    11     2     3   ar
    12     3     4   ar
    13     4    21    1
    14    21    23    1
    15    23    24   ar
    16    24    25   ar
    17    25    26   ar
    18    26    27   ar
    19    27    28    1
    20    27    29   ar
    21     4     5   ar
    22     5     6   ar
    23     6    17    1
    24    17    18    1
    25    17    19    1
    26    17    20    1
    27    16    12    1
    28     6     1   ar
    29    29    23   ar
    30     9    10    1
    31    21    22    1
