@<TRIPOS>MOLECULE
*****
 39 43 0 0 0
SMALL
GASTEIGER

@<TRIPOS>ATOM
      1 C           5.7805   -2.3569   32.7175 C.ar    1  UNL1        0.0482
      2 C           6.7536   -1.2775   32.3460 C.ar    1  UNL1        0.0177
      3 C           8.0050   -1.6221   31.5941 C.ar    1  UNL1        0.0376
      4 C           8.2834   -3.0461   31.2138 C.ar    1  UNL1        0.1310
      5 O           9.5348   -3.3907   30.4620 O.3     1  UNL1       -0.5058
      6 C           7.3103   -4.1256   31.5853 C.ar    1  UNL1        0.0288
      7 C           6.0589   -3.7810   32.3371 C.ar    1  UNL1        0.0147
      8 H          10.1426   -2.7165   30.2299 H       1  UNL1        0.2922
      9 N           4.5291   -2.0123   33.4693 N.pl3   1  UNL1       -0.3125
     10 H           4.0275   -2.7170   33.9395 H       1  UNL1        0.1522
     11 C           2.4779   -0.2474   29.8738 C.ar    1  UNL1        0.1389
     12 C           1.9908    1.1708   29.9093 C.ar    1  UNL1        0.0384
     13 C           2.1873    2.0007   31.1432 C.ar    1  UNL1        0.0223
     14 C           2.8711    1.4124   32.3417 C.ar    1  UNL1        0.0826
     15 N           3.0676    2.2424   33.5756 N.ar    1  UNL1       -0.2452
     16 C           3.7513    1.6541   34.7741 C.ar    1  UNL1        0.0833
     17 C           3.9479    2.4840   36.0080 C.ar    1  UNL1        0.0305
     18 C           4.6317    1.8957   37.2065 C.ar    1  UNL1        0.0592
     19 CL          4.8282    2.7256   38.4404 Cl      1  UNL1       -0.0822
     20 C           5.1188    0.4775   37.1711 C.ar    1  UNL1        0.0115
     21 C           4.9223   -0.3525   35.9371 C.ar    1  UNL1        0.0036
     22 C           4.2386    0.2358   34.7387 C.ar    1  UNL1        0.0312
     23 C           4.0420   -0.5941   33.5047 C.ar    1  UNL1        0.0513
     24 C           3.3582   -0.0058   32.3062 C.ar    1  UNL1        0.0341
     25 C           3.1616   -0.8357   31.0723 C.ar    1  UNL1        0.0396
     26 C           3.3463   -1.1156   27.5843 C.3     1  UNL1        0.2525
     27 O           2.2814   -1.0774   28.6399 O.3     1  UNL1       -0.4714
     28 C           7.5887   -5.5496   31.2050 C.3     1  UNL1        0.1023
     29 N           7.6078   -5.9498   29.7595 N.3     1  UNL1       -0.2664
     30 C           6.5403   -5.4536   28.8297 C.3     1  UNL1        0.0899
     31 C           6.5594   -5.8537   27.3843 C.3     1  UNL1        0.0897
     32 N           7.6459   -6.7501   26.8685 N.3     1  UNL1       -0.2691
     33 C           8.7133   -7.2463   27.7981 C.3     1  UNL1        0.0897
     34 C           8.6942   -6.8462   29.2437 C.3     1  UNL1        0.0899
     35 C           7.6650   -7.1503   25.4230 C.3     1  UNL1        0.0897
     36 C           8.2125   -6.2090   24.3913 C.3     1  UNL1        0.0897
     37 N           8.0172   -4.7299   24.5467 N.3     1  UNL1       -0.2691
     38 C           6.7465   -4.0875   24.0748 C.3     1  UNL1        0.0897
     39 C           9.0926   -3.8932   25.1739 C.3     1  UNL1        0.0897
@<TRIPOS>BOND
     1    26    27    1
     2    27    11    1
     3    11    12   ar
     4    12    13   ar
     5    13    14   ar
     6    14    15   ar
     7    15    16   ar
     8    16    17   ar
     9    17    18   ar
    10    18    19    1
    11    18    20   ar
    12    20    21   ar
    13    21    22   ar
    14    22    23   ar
    15    23     9    1
    16     9     1    1
    17     1     2   ar
    18     2     3   ar
    19     3     4   ar
    20     4     5    1
    21     4     6   ar
    22     6    28    1
    23    28    29    1
    24    29    30    1
    25    30    31    1
    26    31    32    1
    27    32    35    1
    28    35    36    1
    29    36    37    1
    30    37    38    1
    31    37    39    1
    32    32    33    1
    33    33    34    1
    34     6     7   ar
    35    23    24   ar
    36    24    25   ar
    37    25    11   ar
    38    24    14   ar
    39    22    16   ar
    40     7     1   ar
    41    34    29    1
    42     9    10    1
    43     5     8    1
@<TRIPOS>MOLECULE
*****
 39 43 0 0 0
SMALL
GASTEIGER

@<TRIPOS>ATOM
      1 C           6.0476   -1.9930   25.3484 C.ar    1  UNL1        0.0482
      2 C           5.1885   -1.1875   26.2775 C.ar    1  UNL1        0.0177
      3 C           3.8701   -0.6510   25.8041 C.ar    1  UNL1        0.0376
      4 C           3.4108   -0.9199   24.4017 C.ar    1  UNL1        0.1310
      5 O           2.0925   -0.3834   23.9284 O.3     1  UNL1       -0.5058
      6 C           4.2700   -1.7254   23.4726 C.ar    1  UNL1        0.0288
      7 C           5.5883   -2.2619   23.9460 C.ar    1  UNL1        0.0147
      8 H           1.5558    0.1198   24.5088 H       1  UNL1        0.2922
      9 N           7.3659   -2.5295   25.8218 N.pl3   1  UNL1       -0.3125
     10 H           8.1879   -2.0047   25.6871 H       1  UNL1        0.1522
     11 C           8.2932   -6.2253   23.4278 C.ar    1  UNL1        0.1389
     12 C           8.3592   -7.5614   24.1064 C.ar    1  UNL1        0.0384
     13 C           8.1160   -7.6656   25.5829 C.ar    1  UNL1        0.0223
     14 C           7.8070   -6.4337   26.3808 C.ar    1  UNL1        0.0826
     15 N           7.5638   -6.5379   27.8573 N.ar    1  UNL1       -0.2452
     16 C           7.2548   -5.3060   28.6553 C.ar    1  UNL1        0.0833
     17 C           7.0117   -5.4102   30.1318 C.ar    1  UNL1        0.0305
     18 C           6.7026   -4.1781   30.9298 C.ar    1  UNL1        0.0592
     19 CL          6.4595   -4.2823   32.4063 Cl      1  UNL1       -0.0822
     20 C           6.6366   -2.8420   30.2513 C.ar    1  UNL1        0.0115
     21 C           6.8797   -2.7379   28.7748 C.ar    1  UNL1        0.0036
     22 C           7.1888   -3.9698   27.9768 C.ar    1  UNL1        0.0312
     23 C           7.4319   -3.8656   26.5003 C.ar    1  UNL1        0.0513
     24 C           7.7410   -5.0976   25.7023 C.ar    1  UNL1        0.0341
     25 C           7.9841   -4.9934   24.2258 C.ar    1  UNL1        0.0396
     26 C           8.6641   -4.7734   21.3056 C.3     1  UNL1        0.2525
     27 O           8.5363   -6.1212   21.9513 O.3     1  UNL1       -0.4714
     28 C           3.8107   -1.9943   22.0702 C.3     1  UNL1        0.1023
     29 N           3.3073   -0.8680   21.2170 N.3     1  UNL1       -0.2664
     30 C           4.0964    0.4033   21.1109 C.3     1  UNL1        0.0899
     31 C           3.5930    1.5295   20.2577 C.3     1  UNL1        0.0897
     32 N           2.3004    1.3846   19.5105 N.3     1  UNL1       -0.2691
     33 C           1.5112    0.1134   19.6166 C.3     1  UNL1        0.0897
     34 C           2.0147   -1.0129   20.4699 C.3     1  UNL1        0.0899
     35 C           1.7970    2.5109   18.6573 C.3     1  UNL1        0.0897
     36 C           0.3516    2.5622   18.2594 C.3     1  UNL1        0.0897
     37 N          -0.6409    3.2755   19.1289 N.3     1  UNL1       -0.2691
     38 C          -1.4393    4.4179   18.5743 C.3     1  UNL1        0.0897
     39 C          -0.8349    2.8465   20.5531 C.3     1  UNL1        0.0897
@<TRIPOS>BOND
     1    26    27    1
     2    27    11    1
     3    11    12   ar
     4    12    13   ar
     5    13    14   ar
     6    14    15   ar
     7    15    16   ar
     8    16    17   ar
     9    17    18   ar
    10    18    19    1
    11    18    20   ar
    12    20    21   ar
    13    21    22   ar
    14    22    23   ar
    15    23     9    1
    16     9     1    1
    17     1     2   ar
    18     2     3   ar
    19     3     4   ar
    20     4     5    1
    21     4     6   ar
    22     6    28    1
    23    28    29    1
    24    29    30    1
    25    30    31    1
    26    31    32    1
    27    32    35    1
    28    35    36    1
    29    36    37    1
    30    37    38    1
    31    37    39    1
    32    32    33    1
    33    33    34    1
    34     6     7   ar
    35    23    24   ar
    36    24    25   ar
    37    25    11   ar
    38    24    14   ar
    39    22    16   ar
    40     7     1   ar
    41    34    29    1
    42     9    10    1
    43     5     8    1
@<TRIPOS>MOLECULE
*****
 39 43 0 0 0
SMALL
GASTEIGER

@<TRIPOS>ATOM
      1 C           1.1163    1.9049   19.0325 C.ar    1  UNL1        0.0482
      2 C           2.5256    2.3955   18.8803 C.ar    1  UNL1        0.0177
      3 C           2.7921    3.7228   18.2343 C.ar    1  UNL1        0.0376
      4 C           1.6493    4.5594   17.7403 C.ar    1  UNL1        0.1310
      5 O           1.9157    5.8866   17.0942 O.3     1  UNL1       -0.5058
      6 C           0.2399    4.0687   17.8924 C.ar    1  UNL1        0.0288
      7 C          -0.0266    2.7415   18.5385 C.ar    1  UNL1        0.0147
      8 H           2.7961    6.1931   16.9992 H       1  UNL1        0.2922
      9 N           0.8499    0.5776   19.6785 N.pl3   1  UNL1       -0.3125
     10 H           0.2685   -0.0794   19.2318 H       1  UNL1        0.1522
     11 C           3.9432   -2.6768   19.9784 C.ar    1  UNL1        0.1389
     12 C           4.5625   -3.0029   21.3050 C.ar    1  UNL1        0.0384
     13 C           4.1506   -2.2443   22.5318 C.ar    1  UNL1        0.0223
     14 C           3.1195   -1.1595   22.4318 C.ar    1  UNL1        0.0826
     15 N           2.7077   -0.4009   23.6586 N.ar    1  UNL1       -0.2452
     16 C           1.6766    0.6839   23.5586 C.ar    1  UNL1        0.0833
     17 C           1.2648    1.4425   24.7854 C.ar    1  UNL1        0.0305
     18 C           0.2336    2.5273   24.6854 C.ar    1  UNL1        0.0592
     19 CL         -0.1782    3.2860   25.9121 Cl      1  UNL1       -0.0822
     20 C          -0.3856    2.8535   23.3587 C.ar    1  UNL1        0.0115
     21 C           0.0262    2.0949   22.1320 C.ar    1  UNL1        0.0036
     22 C           1.0573    1.0101   22.2319 C.ar    1  UNL1        0.0312
     23 C           1.4691    0.2515   21.0052 C.ar    1  UNL1        0.0513
     24 C           2.5003   -0.8334   21.1052 C.ar    1  UNL1        0.0341
     25 C           2.9121   -1.5920   19.8784 C.ar    1  UNL1        0.0396
     26 C           4.5057   -4.9267   18.8074 C.3     1  UNL1        0.2525
     27 O           4.3551   -3.4354   18.7516 O.3     1  UNL1       -0.4714
     28 C          -0.9029    4.9054   17.3985 C.3     1  UNL1        0.1023
     29 N          -2.2726    4.7237   17.9823 N.3     1  UNL1       -0.2664
     30 C          -2.5983    5.3054   19.3261 C.3     1  UNL1        0.0899
     31 C          -3.9680    5.1238   19.9100 C.3     1  UNL1        0.0897
     32 N          -5.0120    4.3605   19.1501 N.3     1  UNL1       -0.2691
     33 C          -4.6863    3.7788   17.8065 C.3     1  UNL1        0.0897
     34 C          -3.3166    3.9604   17.2225 C.3     1  UNL1        0.0899
     35 C          -6.3817    4.1788   19.7340 C.3     1  UNL1        0.0897
     36 C          -6.7679    4.9136   20.9835 C.3     1  UNL1        0.0897
     37 N          -6.6295    4.2457   22.3194 N.3     1  UNL1       -0.2691
     38 C          -7.6737    4.4570   23.3754 C.3     1  UNL1        0.0897
     39 C          -5.4468    3.3665   22.5995 C.3     1  UNL1        0.0897
@<TRIPOS>BOND
     1    26    27    1
     2    27    11    1
     3    11    12   ar
     4    12    13   ar
     5    13    14   ar
     6    14    15   ar
     7    15    16   ar
     8    16    17   ar
     9    17    18   ar
    10    18    19    1
    11    18    20   ar
    12    20    21   ar
    13    21    22   ar
    14    22    23   ar
    15    23     9    1
    16     9     1    1
    17     1     2   ar
    18     2     3   ar
    19     3     4   ar
    20     4     5    1
    21     4     6   ar
    22     6    28    1
    23    28    29    1
    24    29    30    1
    25    30    31    1
    26    31    32    1
    27    32    35    1
    28    35    36    1
    29    36    37    1
    30    37    38    1
    31    37    39    1
    32    32    33    1
    33    33    34    1
    34     6     7   ar
    35    23    24   ar
    36    24    25   ar
    37    25    11   ar
    38    24    14   ar
    39    22    16   ar
    40     7     1   ar
    41    34    29    1
    42     9    10    1
    43     5     8    1
@<TRIPOS>MOLECULE
*****
 39 43 0 0 0
SMALL
GASTEIGER

@<TRIPOS>ATOM
      1 C           0.9023    1.8506   26.0212 C.ar    1  UNL1        0.0482
      2 C          -0.5446    1.6950   26.3847 C.ar    1  UNL1        0.0177
      3 C          -0.9327    0.8913   27.5903 C.ar    1  UNL1        0.0376
      4 C           0.1260    0.2432   28.4324 C.ar    1  UNL1        0.1310
      5 O          -0.2622   -0.5604   29.6379 O.3     1  UNL1       -0.5058
      6 C           1.5730    0.3988   28.0688 C.ar    1  UNL1        0.0288
      7 C           1.9612    1.2025   26.8632 C.ar    1  UNL1        0.0147
      8 H          -1.1660   -0.6576   29.8650 H       1  UNL1        0.2922
      9 N           1.2905    2.6542   24.8156 N.pl3   1  UNL1       -0.3125
     10 H           1.9603    3.3712   24.8967 H       1  UNL1        0.1522
     11 C           2.8971   -0.6619   22.2326 C.ar    1  UNL1        0.1389
     12 C           2.2648   -0.9506   20.9034 C.ar    1  UNL1        0.0384
     13 C           1.0970   -0.1339   20.4352 C.ar    1  UNL1        0.0223
     14 C           0.5615    0.9714   21.2961 C.ar    1  UNL1        0.0826
     15 N          -0.6064    1.7881   20.8279 N.ar    1  UNL1       -0.2452
     16 C          -1.1419    2.8934   21.6889 C.ar    1  UNL1        0.0833
     17 C          -2.3098    3.7101   21.2207 C.ar    1  UNL1        0.0305
     18 C          -2.8453    4.8155   22.0817 C.ar    1  UNL1        0.0592
     19 CL         -4.0132    5.6321   21.6135 Cl      1  UNL1       -0.0822
     20 C          -2.2130    5.1042   23.4109 C.ar    1  UNL1        0.0115
     21 C          -1.0452    4.2875   23.8791 C.ar    1  UNL1        0.0036
     22 C          -0.5096    3.1822   23.0182 C.ar    1  UNL1        0.0312
     23 C           0.6582    2.3655   23.4864 C.ar    1  UNL1        0.0513
     24 C           1.1937    1.2601   22.6253 C.ar    1  UNL1        0.0341
     25 C           2.3616    0.4435   23.0936 C.ar    1  UNL1        0.0396
     26 C           4.2305   -1.7827   24.1603 C.3     1  UNL1        0.2525
     27 O           4.0650   -1.4785   22.7008 O.3     1  UNL1       -0.4714
     28 C           2.6317   -0.2492   28.9108 C.3     1  UNL1        0.1023
     29 N           2.8419    0.1983   30.3269 N.3     1  UNL1       -0.2664
     30 C           3.4514   -0.7389   31.3271 C.3     1  UNL1        0.0899
     31 C           3.6616   -0.2913   32.7433 C.3     1  UNL1        0.0897
     32 N           3.2624    1.0934   33.1593 N.3     1  UNL1       -0.2691
     33 C           2.6529    2.0306   32.1592 C.3     1  UNL1        0.0897
     34 C           2.4427    1.5831   30.7430 C.3     1  UNL1        0.0899
     35 C           3.4726    1.5410   34.5754 C.3     1  UNL1        0.0897
     36 C           2.4811    2.4591   35.2269 C.3     1  UNL1        0.0897
     37 N           2.4690    2.6127   36.7189 N.3     1  UNL1       -0.2691
     38 C           2.9635    1.4974   37.5918 C.3     1  UNL1        0.0897
     39 C           1.9624    3.8815   37.3382 C.3     1  UNL1        0.0897
@<TRIPOS>BOND
     1    26    27    1
     2    27    11    1
     3    11    12   ar
     4    12    13   ar
     5    13    14   ar
     6    14    15   ar
     7    15    16   ar
     8    16    17   ar
     9    17    18   ar
    10    18    19    1
    11    18    20   ar
    12    20    21   ar
    13    21    22   ar
    14    22    23   ar
    15    23     9    1
    16     9     1    1
    17     1     2   ar
    18     2     3   ar
    19     3     4   ar
    20     4     5    1
    21     4     6   ar
    22     6    28    1
    23    28    29    1
    24    29    30    1
    25    30    31    1
    26    31    32    1
    27    32    35    1
    28    35    36    1
    29    36    37    1
    30    37    38    1
    31    37    39    1
    32    32    33    1
    33    33    34    1
    34     6     7   ar
    35    23    24   ar
    36    24    25   ar
    37    25    11   ar
    38    24    14   ar
    39    22    16   ar
    40     7     1   ar
    41    34    29    1
    42     9    10    1
    43     5     8    1
@<TRIPOS>MOLECULE
*****
 39 43 0 0 0
SMALL
GASTEIGER

@<TRIPOS>ATOM
      1 C           1.4154    1.3235   26.2934 C.ar    1  UNL1        0.0482
      2 C          -0.0484    1.6507   26.3057 C.ar    1  UNL1        0.0177
      3 C          -0.8964    1.2509   27.4766 C.ar    1  UNL1        0.0376
      4 C          -0.2807    0.5240   28.6352 C.ar    1  UNL1        0.1310
      5 O          -1.1287    0.1242   29.8061 O.3     1  UNL1       -0.5058
      6 C           1.1832    0.1967   28.6229 C.ar    1  UNL1        0.0288
      7 C           2.0312    0.5965   27.4520 C.ar    1  UNL1        0.0147
      8 H          -2.0431    0.3286   29.8138 H       1  UNL1        0.2922
      9 N           2.2634    1.7233   25.1225 N.pl3   1  UNL1       -0.3125
     10 H           2.7980    2.5492   25.1610 H       1  UNL1        0.1522
     11 C          -0.3650    2.7215   21.6090 C.ar    1  UNL1        0.1389
     12 C          -0.3314    1.8630   20.3794 C.ar    1  UNL1        0.0384
     13 C           0.5784    0.6718   20.3210 C.ar    1  UNL1        0.0223
     14 C           1.4545    0.3391   21.4921 C.ar    1  UNL1        0.0826
     15 N           2.3643   -0.8521   21.4337 N.ar    1  UNL1       -0.2452
     16 C           3.2404   -1.1848   22.6049 C.ar    1  UNL1        0.0833
     17 C           4.1502   -2.3760   22.5464 C.ar    1  UNL1        0.0305
     18 C           5.0263   -2.7087   23.7177 C.ar    1  UNL1        0.0592
     19 CL          5.9361   -3.8999   23.6592 Cl      1  UNL1       -0.0822
     20 C           4.9927   -1.8503   24.9472 C.ar    1  UNL1        0.0115
     21 C           4.0830   -0.6591   25.0057 C.ar    1  UNL1        0.0036
     22 C           3.2068   -0.3263   23.8345 C.ar    1  UNL1        0.0312
     23 C           2.2971    0.8649   23.8929 C.ar    1  UNL1        0.0513
     24 C           1.4209    1.1976   22.7217 C.ar    1  UNL1        0.0341
     25 C           0.5111    2.3887   22.7801 C.ar    1  UNL1        0.0396
     26 C          -0.6978    5.2972   21.6791 C.3     1  UNL1        0.2525
     27 O          -1.2748    3.9127   21.6674 O.3     1  UNL1       -0.4714
     28 C           1.7989   -0.5302   29.7815 C.3     1  UNL1        0.1023
     29 N           2.2214    0.2289   31.0042 N.3     1  UNL1       -0.2664
     30 C           1.5662    1.5361   31.3391 C.3     1  UNL1        0.0899
     31 C           1.9887    2.2952   32.5619 C.3     1  UNL1        0.0897
     32 N           3.0664    1.7473   33.4497 N.3     1  UNL1       -0.2691
     33 C           3.7216    0.4403   33.1149 C.3     1  UNL1        0.0897
     34 C           3.2992   -0.3190   31.8921 C.3     1  UNL1        0.0899
     35 C           3.4889    2.5065   34.6725 C.3     1  UNL1        0.0897
     36 C           2.8693    2.1921   36.0019 C.3     1  UNL1        0.0897
     37 N           2.0925    3.2451   36.7352 N.3     1  UNL1       -0.2691
     38 C           1.8837    3.1283   38.2160 C.3     1  UNL1        0.0897
     39 C           1.5247    4.4151   35.9877 C.3     1  UNL1        0.0897
@<TRIPOS>BOND
     1    26    27    1
     2    27    11    1
     3    11    12   ar
     4    12    13   ar
     5    13    14   ar
     6    14    15   ar
     7    15    16   ar
     8    16    17   ar
     9    17    18   ar
    10    18    19    1
    11    18    20   ar
    12    20    21   ar
    13    21    22   ar
    14    22    23   ar
    15    23     9    1
    16     9     1    1
    17     1     2   ar
    18     2     3   ar
    19     3     4   ar
    20     4     5    1
    21     4     6   ar
    22     6    28    1
    23    28    29    1
    24    29    30    1
    25    30    31    1
    26    31    32    1
    27    32    35    1
    28    35    36    1
    29    36    37    1
    30    37    38    1
    31    37    39    1
    32    32    33    1
    33    33    34    1
    34     6     7   ar
    35    23    24   ar
    36    24    25   ar
    37    25    11   ar
    38    24    14   ar
    39    22    16   ar
    40     7     1   ar
    41    34    29    1
    42     9    10    1
    43     5     8    1
@<TRIPOS>MOLECULE
*****
 39 43 0 0 0
SMALL
GASTEIGER

@<TRIPOS>ATOM
      1 C           5.1739   -2.8655   20.9102 C.ar    1  UNL1        0.0482
      2 C           6.6476   -2.8963   20.6321 C.ar    1  UNL1        0.0177
      3 C           7.1861   -2.2846   19.3728 C.ar    1  UNL1        0.0376
      4 C           6.2510   -1.6421   18.3916 C.ar    1  UNL1        0.1310
      5 O           6.7895   -1.0304   17.1323 O.3     1  UNL1       -0.5058
      6 C           4.7773   -1.6114   18.6697 C.ar    1  UNL1        0.0288
      7 C           4.2387   -2.2231   19.9290 C.ar    1  UNL1        0.0147
      8 H           7.7101   -1.0496   16.9586 H       1  UNL1        0.2922
      9 N           4.6354   -3.4772   22.1695 N.pl3   1  UNL1       -0.3125
     10 H           4.0336   -4.2549   22.1207 H       1  UNL1        0.1522
     11 C           2.4698    0.1308   23.7640 C.ar    1  UNL1        0.1389
     12 C           2.8481    0.7039   25.0975 C.ar    1  UNL1        0.0384
     13 C           3.9483    0.0744   25.8996 C.ar    1  UNL1        0.0223
     14 C           4.6701   -1.1283   25.3681 C.ar    1  UNL1        0.0826
     15 N           5.7703   -1.7578   26.1702 N.ar    1  UNL1       -0.2452
     16 C           6.4922   -2.9604   25.6387 C.ar    1  UNL1        0.0833
     17 C           7.5924   -3.5900   26.4408 C.ar    1  UNL1        0.0305
     18 C           8.3142   -4.7927   25.9092 C.ar    1  UNL1        0.0592
     19 CL          9.4144   -5.4222   26.7113 Cl      1  UNL1       -0.0822
     20 C           7.9359   -5.3658   24.5757 C.ar    1  UNL1        0.0115
     21 C           6.8358   -4.7363   23.7736 C.ar    1  UNL1        0.0036
     22 C           6.1139   -3.5336   24.3051 C.ar    1  UNL1        0.0312
     23 C           5.0137   -2.9041   23.5030 C.ar    1  UNL1        0.0513
     24 C           4.2918   -1.7014   24.0346 C.ar    1  UNL1        0.0341
     25 C           3.1917   -1.0719   23.2325 C.ar    1  UNL1        0.0396
     26 C           1.5133    2.1693   22.4680 C.3     1  UNL1        0.2525
     27 O           1.3696    0.7603   22.9619 O.3     1  UNL1       -0.4714
     28 C           3.8421   -0.9690   17.6885 C.3     1  UNL1        0.1023
     29 N           3.0812    0.2645   18.0749 N.3     1  UNL1       -0.2664
     30 C           3.8058    1.5641   18.2649 C.3     1  UNL1        0.0899
     31 C           3.0448    2.7976   18.6513 C.3     1  UNL1        0.0897
     32 N           1.5592    2.7316   18.8477 N.3     1  UNL1       -0.2691
     33 C           0.8345    1.4321   18.6576 C.3     1  UNL1        0.0897
     34 C           1.5955    0.1985   18.2712 C.3     1  UNL1        0.0899
     35 C           0.7982    3.9651   19.2340 C.3     1  UNL1        0.0897
     36 C          -0.5490    4.2347   18.6319 C.3     1  UNL1        0.0897
     37 N          -1.7937    3.8670   19.3837 N.3     1  UNL1       -0.2691
     38 C          -3.1400    4.2160   18.8217 C.3     1  UNL1        0.0897
     39 C          -1.6923    3.1503   20.6975 C.3     1  UNL1        0.0897
@<TRIPOS>BOND
     1    26    27    1
     2    27    11    1
     3    11    12   ar
     4    12    13   ar
     5    13    14   ar
     6    14    15   ar
     7    15    16   ar
     8    16    17   ar
     9    17    18   ar
    10    18    19    1
    11    18    20   ar
    12    20    21   ar
    13    21    22   ar
    14    22    23   ar
    15    23     9    1
    16     9     1    1
    17     1     2   ar
    18     2     3   ar
    19     3     4   ar
    20     4     5    1
    21     4     6   ar
    22     6    28    1
    23    28    29    1
    24    29    30    1
    25    30    31    1
    26    31    32    1
    27    32    35    1
    28    35    36    1
    29    36    37    1
    30    37    38    1
    31    37    39    1
    32    32    33    1
    33    33    34    1
    34     6     7   ar
    35    23    24   ar
    36    24    25   ar
    37    25    11   ar
    38    24    14   ar
    39    22    16   ar
    40     7     1   ar
    41    34    29    1
    42     9    10    1
    43     5     8    1
@<TRIPOS>MOLECULE
*****
 39 43 0 0 0
SMALL
GASTEIGER

@<TRIPOS>ATOM
      1 C          -0.1710    2.9064   25.4648 C.ar    1  UNL1        0.0482
      2 C          -1.1391    2.3630   26.4735 C.ar    1  UNL1        0.0177
      3 C          -0.7104    1.2766   27.4148 C.ar    1  UNL1        0.0376
      4 C           0.6862    0.7337   27.3475 C.ar    1  UNL1        0.1310
      5 O           1.1149   -0.3526   28.2888 O.3     1  UNL1       -0.5058
      6 C           1.6543    1.2772   26.3387 C.ar    1  UNL1        0.0288
      7 C           1.2257    2.3635   25.3973 C.ar    1  UNL1        0.0147
      8 H           0.5102   -0.6921   28.9189 H       1  UNL1        0.2922
      9 N          -0.5997    3.9927   24.5234 N.pl3   1  UNL1       -0.3125
     10 H          -0.4572    4.9368   24.7636 H       1  UNL1        0.1522
     11 C          -5.0806    4.1041   24.1252 C.ar    1  UNL1        0.1389
     12 C          -5.7263    3.7520   22.8179 C.ar    1  UNL1        0.0384
     13 C          -4.8784    3.3629   21.6433 C.ar    1  UNL1        0.0223
     14 C          -3.3848    3.3258   21.7760 C.ar    1  UNL1        0.0826
     15 N          -2.5369    2.9367   20.6015 N.ar    1  UNL1       -0.2452
     16 C          -1.0433    2.8996   20.7342 C.ar    1  UNL1        0.0833
     17 C          -0.1954    2.5104   19.5596 C.ar    1  UNL1        0.0305
     18 C           1.2983    2.4733   19.6924 C.ar    1  UNL1        0.0592
     19 CL          2.1462    2.0842   18.5178 Cl      1  UNL1       -0.0822
     20 C           1.9440    2.8254   20.9997 C.ar    1  UNL1        0.0115
     21 C           1.0961    3.2145   22.1743 C.ar    1  UNL1        0.0036
     22 C          -0.3975    3.2516   22.0415 C.ar    1  UNL1        0.0312
     23 C          -1.2454    3.6407   23.2161 C.ar    1  UNL1        0.0513
     24 C          -2.7391    3.6778   23.0833 C.ar    1  UNL1        0.0341
     25 C          -3.5870    4.0669   24.2579 C.ar    1  UNL1        0.0396
     26 C          -7.0560    5.4662   25.1213 C.3     1  UNL1        0.2525
     27 O          -5.9285    4.4932   25.2998 O.3     1  UNL1       -0.4714
     28 C           3.0510    0.7343   26.2713 C.3     1  UNL1        0.1023
     29 N           3.4237   -0.2457   25.1987 N.3     1  UNL1       -0.2664
     30 C           4.3773   -1.3632   25.5022 C.3     1  UNL1        0.0899
     31 C           4.7501   -2.3432   24.4295 C.3     1  UNL1        0.0897
     32 N           4.1693   -2.2058   23.0534 N.3     1  UNL1       -0.2691
     33 C           3.2157   -1.0884   22.7499 C.3     1  UNL1        0.0897
     34 C           2.8429   -0.1084   23.8225 C.3     1  UNL1        0.0899
     35 C           4.5420   -3.1858   21.9807 C.3     1  UNL1        0.0897
     36 C           5.2306   -2.7096   20.7361 C.3     1  UNL1        0.0897
     37 N           4.7301   -3.1420   19.3898 N.3     1  UNL1       -0.2691
     38 C           3.4639   -3.9390   19.2809 C.3     1  UNL1        0.0897
     39 C           5.4957   -2.7776   18.1525 C.3     1  UNL1        0.0897
@<TRIPOS>BOND
     1    26    27    1
     2    27    11    1
     3    11    12   ar
     4    12    13   ar
     5    13    14   ar
     6    14    15   ar
     7    15    16   ar
     8    16    17   ar
     9    17    18   ar
    10    18    19    1
    11    18    20   ar
    12    20    21   ar
    13    21    22   ar
    14    22    23   ar
    15    23     9    1
    16     9     1    1
    17     1     2   ar
    18     2     3   ar
    19     3     4   ar
    20     4     5    1
    21     4     6   ar
    22     6    28    1
    23    28    29    1
    24    29    30    1
    25    30    31    1
    26    31    32    1
    27    32    35    1
    28    35    36    1
    29    36    37    1
    30    37    38    1
    31    37    39    1
    32    32    33    1
    33    33    34    1
    34     6     7   ar
    35    23    24   ar
    36    24    25   ar
    37    25    11   ar
    38    24    14   ar
    39    22    16   ar
    40     7     1   ar
    41    34    29    1
    42     9    10    1
    43     5     8    1
@<TRIPOS>MOLECULE
*****
 39 43 0 0 0
SMALL
GASTEIGER

@<TRIPOS>ATOM
      1 C           2.2401   -0.4933   19.2215 C.ar    1  UNL1        0.0482
      2 C           2.9955    0.1331   18.0872 C.ar    1  UNL1        0.0177
      3 C           4.2002   -0.5554   17.5174 C.ar    1  UNL1        0.0376
      4 C           4.6495   -1.8704   18.0821 C.ar    1  UNL1        0.1310
      5 O           5.8542   -2.5590   17.5123 O.3     1  UNL1       -0.5058
      6 C           3.8940   -2.4970   19.2165 C.ar    1  UNL1        0.0288
      7 C           2.6893   -1.8084   19.7862 C.ar    1  UNL1        0.0147
      8 H           6.3261   -2.1677   16.8037 H       1  UNL1        0.2922
      9 N           1.0354    0.1952   19.7912 N.pl3   1  UNL1       -0.3125
     10 H           0.1532   -0.2396   19.7474 H       1  UNL1        0.1522
     11 C           2.6438    0.5543   23.9786 C.ar    1  UNL1        0.1389
     12 C           2.7832    1.9053   24.6152 C.ar    1  UNL1        0.0384
     13 C           2.3865    3.1367   23.8560 C.ar    1  UNL1        0.0223
     14 C           1.8504    3.0170   22.4602 C.ar    1  UNL1        0.0826
     15 N           1.4536    4.2484   21.7010 N.ar    1  UNL1       -0.2452
     16 C           0.9175    4.1287   20.3053 C.ar    1  UNL1        0.0833
     17 C           0.5208    5.3600   19.5461 C.ar    1  UNL1        0.0305
     18 C          -0.0154    5.2403   18.1503 C.ar    1  UNL1        0.0592
     19 CL         -0.4121    6.4717   17.3911 Cl      1  UNL1       -0.0822
     20 C          -0.1548    3.8893   17.5137 C.ar    1  UNL1        0.0115
     21 C           0.2419    2.6580   18.2729 C.ar    1  UNL1        0.0036
     22 C           0.7781    2.7776   19.6686 C.ar    1  UNL1        0.0312
     23 C           1.1748    1.5463   20.4278 C.ar    1  UNL1        0.0513
     24 C           1.7110    1.6660   21.8237 C.ar    1  UNL1        0.0341
     25 C           2.1077    0.4346   22.5828 C.ar    1  UNL1        0.0396
     26 C           4.3951   -0.7604   25.3767 C.3     1  UNL1        0.2525
     27 O           3.0406   -0.6771   24.7378 O.3     1  UNL1       -0.4714
     28 C           4.3433   -3.8120   19.7811 C.3     1  UNL1        0.1023
     29 N           5.2846   -3.8446   20.9485 N.3     1  UNL1       -0.2664
     30 C           6.7568   -4.0201   20.7202 C.3     1  UNL1        0.0899
     31 C           7.6981   -4.0528   21.8876 C.3     1  UNL1        0.0897
     32 N           7.1673   -3.9098   23.2833 N.3     1  UNL1       -0.2691
     33 C           5.6952   -3.7343   23.5116 C.3     1  UNL1        0.0897
     34 C           4.7538   -3.7016   22.3441 C.3     1  UNL1        0.0899
     35 C           8.1086   -3.9424   24.4507 C.3     1  UNL1        0.0897
     36 C           8.6512   -5.2524   24.9403 C.3     1  UNL1        0.0897
     37 N           7.7548   -6.2112   25.6663 N.3     1  UNL1       -0.2691
     38 C           6.7221   -5.6941   26.6236 C.3     1  UNL1        0.0897
     39 C           7.8910   -7.6870   25.4351 C.3     1  UNL1        0.0897
@<TRIPOS>BOND
     1    26    27    1
     2    27    11    1
     3    11    12   ar
     4    12    13   ar
     5    13    14   ar
     6    14    15   ar
     7    15    16   ar
     8    16    17   ar
     9    17    18   ar
    10    18    19    1
    11    18    20   ar
    12    20    21   ar
    13    21    22   ar
    14    22    23   ar
    15    23     9    1
    16     9     1    1
    17     1     2   ar
    18     2     3   ar
    19     3     4   ar
    20     4     5    1
    21     4     6   ar
    22     6    28    1
    23    28    29    1
    24    29    30    1
    25    30    31    1
    26    31    32    1
    27    32    35    1
    28    35    36    1
    29    36    37    1
    30    37    38    1
    31    37    39    1
    32    32    33    1
    33    33    34    1
    34     6     7   ar
    35    23    24   ar
    36    24    25   ar
    37    25    11   ar
    38    24    14   ar
    39    22    16   ar
    40     7     1   ar
    41    34    29    1
    42     9    10    1
    43     5     8    1
@<TRIPOS>MOLECULE
*****
 39 43 0 0 0
SMALL
GASTEIGER

@<TRIPOS>ATOM
      1 C           5.2695   -3.0909   21.0035 C.ar    1  UNL1        0.0482
      2 C           6.7343   -3.1400   20.6845 C.ar    1  UNL1        0.0177
      3 C           7.2418   -2.5572   19.3989 C.ar    1  UNL1        0.0376
      4 C           6.2846   -1.9254   18.4323 C.ar    1  UNL1        0.1310
      5 O           6.7921   -1.3426   17.1467 O.3     1  UNL1       -0.5058
      6 C           4.8196   -1.8762   18.7513 C.ar    1  UNL1        0.0288
      7 C           4.3121   -2.4590   20.0369 C.ar    1  UNL1        0.0147
      8 H           7.7071   -1.3733   16.9474 H       1  UNL1        0.2922
      9 N           4.7620   -3.6736   22.2891 N.pl3   1  UNL1       -0.3125
     10 H           4.2039   -4.4846   22.2755 H       1  UNL1        0.1522
     11 C           8.0315   -5.3800   24.8676 C.ar    1  UNL1        0.1389
     12 C           8.3742   -4.7272   26.1738 C.ar    1  UNL1        0.0384
     13 C           7.6271   -3.5057   26.6207 C.ar    1  UNL1        0.0223
     14 C           6.5373   -2.9369   25.7612 C.ar    1  UNL1        0.0826
     15 N           5.7902   -1.7153   26.2080 N.ar    1  UNL1       -0.2452
     16 C           4.7004   -1.1465   25.3486 C.ar    1  UNL1        0.0833
     17 C           3.9533    0.0750   25.7954 C.ar    1  UNL1        0.0305
     18 C           2.8634    0.6438   24.9358 C.ar    1  UNL1        0.0592
     19 CL          2.1163    1.8653   25.3826 Cl      1  UNL1       -0.0822
     20 C           2.5206   -0.0090   23.6296 C.ar    1  UNL1        0.0115
     21 C           3.2677   -1.2305   23.1828 C.ar    1  UNL1        0.0036
     22 C           4.3576   -1.7993   24.0422 C.ar    1  UNL1        0.0312
     23 C           5.1047   -3.0209   23.5954 C.ar    1  UNL1        0.0513
     24 C           6.1946   -3.5897   24.4549 C.ar    1  UNL1        0.0341
     25 C           6.9417   -4.8112   24.0081 C.ar    1  UNL1        0.0396
     26 C           8.8377   -6.9535   22.9639 C.3     1  UNL1        0.2525
     27 O           8.7786   -6.6015   24.4208 O.3     1  UNL1       -0.4714
     28 C           3.8624   -1.2443   17.7848 C.3     1  UNL1        0.1023
     29 N           3.2382    0.0813   18.1057 N.3     1  UNL1       -0.2664
     30 C           1.7523    0.1877   18.2817 C.3     1  UNL1        0.0899
     31 C           1.1281    1.5133   18.6027 C.3     1  UNL1        0.0897
     32 N           1.9897    2.7326   18.7477 N.3     1  UNL1       -0.2691
     33 C           3.4755    2.6262   18.5718 C.3     1  UNL1        0.0897
     34 C           4.0998    1.3005   18.2508 C.3     1  UNL1        0.0899
     35 C           1.3655    4.0582   19.0687 C.3     1  UNL1        0.0897
     36 C           0.5845    4.2319   20.3375 C.3     1  UNL1        0.0897
     37 N           0.9737    3.4681   21.5684 N.3     1  UNL1       -0.2691
     38 C           0.0277    2.4650   22.1592 C.3     1  UNL1        0.0897
     39 C           2.3091    3.7072   22.2085 C.3     1  UNL1        0.0897
@<TRIPOS>BOND
     1    26    27    1
     2    27    11    1
     3    11    12   ar
     4    12    13   ar
     5    13    14   ar
     6    14    15   ar
     7    15    16   ar
     8    16    17   ar
     9    17    18   ar
    10    18    19    1
    11    18    20   ar
    12    20    21   ar
    13    21    22   ar
    14    22    23   ar
    15    23     9    1
    16     9     1    1
    17     1     2   ar
    18     2     3   ar
    19     3     4   ar
    20     4     5    1
    21     4     6   ar
    22     6    28    1
    23    28    29    1
    24    29    30    1
    25    30    31    1
    26    31    32    1
    27    32    35    1
    28    35    36    1
    29    36    37    1
    30    37    38    1
    31    37    39    1
    32    32    33    1
    33    33    34    1
    34     6     7   ar
    35    23    24   ar
    36    24    25   ar
    37    25    11   ar
    38    24    14   ar
    39    22    16   ar
    40     7     1   ar
    41    34    29    1
    42     9    10    1
    43     5     8    1
