@<TRIPOS>MOLECULE
*****
 29 32 0 0 0
SMALL
GASTEIGER

@<TRIPOS>ATOM
      1 C          -7.6051  -17.1588   23.0299 C.2     1  UNL1        0.0035
      2 C          -8.8127  -17.3808   22.1682 C.2     1  UNL1        0.0130
      3 C         -10.1610  -16.9155   22.6324 C.3     1  UNL1        0.1542
      4 C         -10.0202  -17.6028   21.3066 C.3     1  UNL1        0.0614
      5 C         -11.2278  -17.8248   20.4449 C.3     1  UNL1        0.0725
      6 N         -12.5761  -17.3595   20.9091 N.3     1  UNL1       -0.2972
      7 C         -12.7169  -16.6723   22.2349 C.3     1  UNL1        0.0725
      8 C         -11.5094  -16.4503   23.0965 C.3     1  UNL1        0.0614
      9 O         -10.3018  -16.2283   23.9583 O.3     1  UNL1       -0.4785
     10 C          -9.0942  -16.0063   24.8199 C.ar    1  UNL1        0.1386
     11 C          -9.2350  -15.3190   26.1458 C.ar    1  UNL1        0.0369
     12 C          -8.0274  -15.0970   27.0074 C.ar    1  UNL1        0.0031
     13 C          -6.6791  -15.5623   26.5433 C.ar    1  UNL1        0.0002
     14 C          -6.5383  -16.2495   25.2175 C.ar    1  UNL1        0.0030
     15 C          -7.7459  -16.4715   24.3557 C.ar    1  UNL1        0.0338
     16 H         -13.1775  -18.1828   20.9389 H       1  UNL1        0.1233
     17 C          -3.5600  -18.5546   21.6374 C.ar    1  UNL1        0.1347
     18 C          -4.8014  -19.2214   21.1235 C.ar    1  UNL1        0.0238
     19 C          -6.1497  -18.7562   21.5877 C.ar    1  UNL1        0.0032
     20 C          -6.2567  -17.6240   22.5658 C.ar    1  UNL1        0.0191
     21 C          -5.0153  -16.9571   23.0798 C.ar    1  UNL1        0.0989
     22 N          -3.6669  -17.4223   22.6156 N.ar    1  UNL1       -0.2393
     23 N          -1.4336  -18.1996   20.1874 N.am    1  UNL1       -0.2748
     24 C          -2.2116  -19.0198   21.1733 C.2     1  UNL1        0.2668
     25 O          -1.6412  -20.3054   21.6950 O.2     1  UNL1       -0.2683
     26 C           1.1412  -17.8735   20.0691 C.3     1  UNL1        0.0233
     27 C          -0.0853  -18.6649   19.7233 C.3     1  UNL1        0.0938
     28 C          -2.0040  -16.9141   19.6657 C.3     1  UNL1        0.0938
     29 C          -2.8234  -16.9124   18.4093 C.3     1  UNL1        0.0233
@<TRIPOS>BOND
     1    26    27    1
     2    27    23    1
     3    23    28    1
     4    28    29    1
     5    23    24   am
     6    24    25    2
     7    24    17    1
     8    17    18   ar
     9    18    19   ar
    10    19    20   ar
    11    20     1    1
    12     1     2    2
    13     2     3    1
    14     3     4    1
    15     4     5    1
    16     5     6    1
    17     6     7    1
    18     7     8    1
    19     3     9    1
    20     9    10    1
    21    10    11   ar
    22    11    12   ar
    23    12    13   ar
    24    13    14   ar
    25    14    15   ar
    26    20    21   ar
    27    21    22   ar
    28    22    17   ar
    29    15     1    1
    30     8     3    1
    31    15    10   ar
    32     6    16    1
@<TRIPOS>MOLECULE
*****
 29 32 0 0 0
SMALL
GASTEIGER

@<TRIPOS>ATOM
      1 C           6.7445   -3.7911   25.2552 C.2     1  UNL1        0.0035
      2 C           6.4274   -3.1701   26.5834 C.2     1  UNL1        0.0130
      3 C           6.7744   -3.8928   27.8511 C.3     1  UNL1        0.1542
      4 C           6.1103   -2.5492   27.9115 C.3     1  UNL1        0.0614
      5 C           5.7933   -1.9283   29.2396 C.3     1  UNL1        0.0725
      6 N           6.1403   -2.6510   30.5073 N.3     1  UNL1       -0.2972
      7 C           6.8044   -3.9946   30.4470 C.3     1  UNL1        0.0725
      8 C           7.1215   -4.6155   29.1189 C.3     1  UNL1        0.0614
      9 O           7.4386   -5.2365   27.7908 O.3     1  UNL1       -0.4785
     10 C           7.7556   -5.8574   26.4627 C.ar    1  UNL1        0.1386
     11 C           8.4197   -7.2011   26.4023 C.ar    1  UNL1        0.0369
     12 C           8.7368   -7.8220   25.0742 C.ar    1  UNL1        0.0031
     13 C           8.3897   -7.0993   23.8064 C.ar    1  UNL1        0.0002
     14 C           7.7256   -5.7557   23.8667 C.ar    1  UNL1        0.0030
     15 C           7.4085   -5.1347   25.1949 C.ar    1  UNL1        0.0338
     16 H           5.2692   -2.7760   31.0229 H       1  UNL1        0.1233
     17 C           5.7033   -1.6231   21.4518 C.ar    1  UNL1        0.1347
     18 C           4.6546   -2.4154   22.1746 C.ar    1  UNL1        0.0238
     19 C           5.0017   -3.1381   23.4424 C.ar    1  UNL1        0.0032
     20 C           6.3974   -3.0685   23.9874 C.ar    1  UNL1        0.0191
     21 C           7.4462   -2.2761   23.2646 C.ar    1  UNL1        0.0989
     22 N           7.0991   -1.5534   21.9968 N.ar    1  UNL1       -0.2393
     23 N           5.4214   -1.6192   18.8691 N.am    1  UNL1       -0.2748
     24 C           5.3563   -0.9004   20.1840 C.2     1  UNL1        0.2668
     25 O           4.9441    0.5411   20.2312 O.2     1  UNL1       -0.2683
     26 C           3.6412   -0.7760   17.1749 C.3     1  UNL1        0.0233
     27 C           5.0743   -0.8965   17.6013 C.3     1  UNL1        0.0938
     28 C           5.8335   -3.0607   18.8219 C.3     1  UNL1        0.0938
     29 C           4.7906   -4.1380   18.7814 C.3     1  UNL1        0.0233
@<TRIPOS>BOND
     1    26    27    1
     2    27    23    1
     3    23    28    1
     4    28    29    1
     5    23    24   am
     6    24    25    2
     7    24    17    1
     8    17    18   ar
     9    18    19   ar
    10    19    20   ar
    11    20     1    1
    12     1     2    2
    13     2     3    1
    14     3     4    1
    15     4     5    1
    16     5     6    1
    17     6     7    1
    18     7     8    1
    19     3     9    1
    20     9    10    1
    21    10    11   ar
    22    11    12   ar
    23    12    13   ar
    24    13    14   ar
    25    14    15   ar
    26    20    21   ar
    27    21    22   ar
    28    22    17   ar
    29    15     1    1
    30     8     3    1
    31    15    10   ar
    32     6    16    1
@<TRIPOS>MOLECULE
*****
 29 32 0 0 0
SMALL
GASTEIGER

@<TRIPOS>ATOM
      1 C           3.2475   -0.8671   21.6061 C.2     1  UNL1        0.0035
      2 C           3.6297   -1.1359   23.0315 C.2     1  UNL1        0.0130
      3 C           4.7616   -2.0704   23.3410 C.3     1  UNL1        0.1542
      4 C           4.0120   -1.4048   24.4568 C.3     1  UNL1        0.0614
      5 C           4.3942   -1.6736   25.8821 C.3     1  UNL1        0.0725
      6 N           5.5260   -2.6081   26.1916 N.3     1  UNL1       -0.2972
      7 C           6.2756   -3.2736   25.0758 C.3     1  UNL1        0.0725
      8 C           5.8934   -3.0048   23.6505 C.3     1  UNL1        0.0614
      9 O           5.5112   -2.7360   22.2251 O.3     1  UNL1       -0.4785
     10 C           5.1289   -2.4671   20.7998 C.ar    1  UNL1        0.1386
     11 C           5.8785   -3.1327   19.6839 C.ar    1  UNL1        0.0369
     12 C           5.4963   -2.8639   18.2586 C.ar    1  UNL1        0.0031
     13 C           4.3645   -1.9294   17.9491 C.ar    1  UNL1        0.0002
     14 C           3.6149   -1.2638   19.0649 C.ar    1  UNL1        0.0030
     15 C           3.9971   -1.5327   20.4903 C.ar    1  UNL1        0.0338
     16 H           5.1424   -3.3525   26.7738 H       1  UNL1        0.1233
     17 C          -0.1479    1.9362   20.6776 C.ar    1  UNL1        0.1347
     18 C           1.1261    2.4693   21.2628 C.ar    1  UNL1        0.0238
     19 C           2.2579    1.5349   21.5723 C.ar    1  UNL1        0.0032
     20 C           2.1157    0.0674   21.2966 C.ar    1  UNL1        0.0191
     21 C           0.8416   -0.4658   20.7113 C.ar    1  UNL1        0.0989
     22 N          -0.2902    0.4686   20.4018 N.ar    1  UNL1       -0.2393
     23 N          -1.3219    3.5874   19.0511 N.am    1  UNL1       -0.2748
     24 C          -1.2798    2.8707   20.3680 C.2     1  UNL1        0.2668
     25 O          -2.3695    3.0884   21.3756 O.2     1  UNL1       -0.2683
     26 C          -3.7280    3.9886   18.1569 C.3     1  UNL1        0.0233
     27 C          -2.4537    4.5219   18.7416 C.3     1  UNL1        0.0938
     28 C          -0.2321    3.3698   18.0435 C.3     1  UNL1        0.0938
     29 C           0.9038    4.3444   17.9450 C.3     1  UNL1        0.0233
@<TRIPOS>BOND
     1    26    27    1
     2    27    23    1
     3    23    28    1
     4    28    29    1
     5    23    24   am
     6    24    25    2
     7    24    17    1
     8    17    18   ar
     9    18    19   ar
    10    19    20   ar
    11    20     1    1
    12     1     2    2
    13     2     3    1
    14     3     4    1
    15     4     5    1
    16     5     6    1
    17     6     7    1
    18     7     8    1
    19     3     9    1
    20     9    10    1
    21    10    11   ar
    22    11    12   ar
    23    12    13   ar
    24    13    14   ar
    25    14    15   ar
    26    20    21   ar
    27    21    22   ar
    28    22    17   ar
    29    15     1    1
    30     8     3    1
    31    15    10   ar
    32     6    16    1
@<TRIPOS>MOLECULE
*****
 29 32 0 0 0
SMALL
GASTEIGER

@<TRIPOS>ATOM
      1 C           2.3380   -0.0227   22.4850 C.2     1  UNL1        0.0035
      2 C           3.1889   -1.2530   22.3739 C.2     1  UNL1        0.0130
      3 C           3.4731   -1.8492   21.0272 C.3     1  UNL1        0.1542
      4 C           4.0398   -2.4833   22.2628 C.3     1  UNL1        0.0614
      5 C           4.8907   -3.7135   22.1516 C.3     1  UNL1        0.0725
      6 N           5.1749   -4.3097   20.8049 N.3     1  UNL1       -0.2972
      7 C           4.6081   -3.6757   19.5693 C.3     1  UNL1        0.0725
      8 C           3.7572   -2.4455   19.6804 C.3     1  UNL1        0.0614
      9 O           2.9063   -1.2151   19.7915 O.3     1  UNL1       -0.4785
     10 C           2.0554    0.0151   19.9027 C.ar    1  UNL1        0.1386
     11 C           1.4886    0.6492   18.6670 C.ar    1  UNL1        0.0369
     12 C           0.6377    1.8794   18.7782 C.ar    1  UNL1        0.0031
     13 C           0.3535    2.4757   20.1249 C.ar    1  UNL1        0.0002
     14 C           0.9203    1.8416   21.3605 C.ar    1  UNL1        0.0030
     15 C           1.7712    0.6113   21.2494 C.ar    1  UNL1        0.0338
     16 H           4.8291   -5.2690   20.8287 H       1  UNL1        0.1233
     17 C           1.4855    1.7660   26.5253 C.ar    1  UNL1        0.1347
     18 C           0.3653    1.5401   25.5536 C.ar    1  UNL1        0.0238
     19 C           0.6495    0.9439   24.2069 C.ar    1  UNL1        0.0032
     20 C           2.0538    0.5735   23.8318 C.ar    1  UNL1        0.0191
     21 C           3.1740    0.7994   24.8035 C.ar    1  UNL1        0.0989
     22 N           2.8898    1.3956   26.1503 N.ar    1  UNL1       -0.2393
     23 N           0.6599    1.5010   28.9744 N.am    1  UNL1       -0.2748
     24 C           1.2013    2.3622   27.8721 C.2     1  UNL1        0.2668
     25 O           1.4586    3.8197   28.1165 O.2     1  UNL1       -0.2683
     26 C           1.3291    1.8724   31.4572 C.3     1  UNL1        0.0233
     27 C           0.3757    2.0973   30.3212 C.3     1  UNL1        0.0938
     28 C           0.4026    0.0436   28.7301 C.3     1  UNL1        0.0938
     29 C          -1.0040   -0.4772   28.7133 C.3     1  UNL1        0.0233
@<TRIPOS>BOND
     1    26    27    1
     2    27    23    1
     3    23    28    1
     4    28    29    1
     5    23    24   am
     6    24    25    2
     7    24    17    1
     8    17    18   ar
     9    18    19   ar
    10    19    20   ar
    11    20     1    1
    12     1     2    2
    13     2     3    1
    14     3     4    1
    15     4     5    1
    16     5     6    1
    17     6     7    1
    18     7     8    1
    19     3     9    1
    20     9    10    1
    21    10    11   ar
    22    11    12   ar
    23    12    13   ar
    24    13    14   ar
    25    14    15   ar
    26    20    21   ar
    27    21    22   ar
    28    22    17   ar
    29    15     1    1
    30     8     3    1
    31    15    10   ar
    32     6    16    1
@<TRIPOS>MOLECULE
*****
 29 32 0 0 0
SMALL
GASTEIGER

@<TRIPOS>ATOM
      1 C         -14.4583   -4.0010   18.9816 C.2     1  UNL1        0.0035
      2 C         -12.9674   -4.1440   18.8987 C.2     1  UNL1        0.0130
      3 C         -12.3391   -5.5039   18.9754 C.3     1  UNL1        0.1542
      4 C         -11.4766   -4.2871   18.8158 C.3     1  UNL1        0.0614
      5 C          -9.9858   -4.4302   18.7329 C.3     1  UNL1        0.0725
      6 N          -9.3574   -5.7901   18.8096 N.3     1  UNL1       -0.2972
      7 C         -10.2199   -7.0069   18.9692 C.3     1  UNL1        0.0725
      8 C         -11.7107   -6.8638   19.0521 C.3     1  UNL1        0.0614
      9 O         -13.2016   -6.7208   19.1350 O.3     1  UNL1       -0.4785
     10 C         -14.6924   -6.5777   19.2179 C.ar    1  UNL1        0.1386
     11 C         -15.5550   -7.7945   19.3775 C.ar    1  UNL1        0.0369
     12 C         -17.0458   -7.6514   19.4604 C.ar    1  UNL1        0.0031
     13 C         -17.6742   -6.2916   19.3837 C.ar    1  UNL1        0.0002
     14 C         -16.8117   -5.0748   19.2241 C.ar    1  UNL1        0.0030
     15 C         -15.3208   -5.2178   19.1412 C.ar    1  UNL1        0.0338
     16 H          -8.7192   -5.7751   19.6052 H       1  UNL1        0.1233
     17 C         -16.3435    0.0786   18.7515 C.ar    1  UNL1        0.1347
     18 C         -15.9233   -0.4796   20.0788 C.ar    1  UNL1        0.0238
     19 C         -15.2949   -1.8395   20.1555 C.ar    1  UNL1        0.0032
     20 C         -15.0867   -2.6411   18.9049 C.ar    1  UNL1        0.0191
     21 C         -15.5069   -2.0829   17.5775 C.ar    1  UNL1        0.0989
     22 N         -16.1353   -0.7230   17.5008 N.ar    1  UNL1       -0.2393
     23 N         -18.4589    1.5860   18.8045 N.am    1  UNL1       -0.2748
     24 C         -16.9718    1.4385   18.6748 C.2     1  UNL1        0.2668
     25 O         -16.1130    2.6510   18.4684 O.2     1  UNL1       -0.2683
     26 C         -19.1661    3.8059   19.9542 C.3     1  UNL1        0.0233
     27 C         -19.0873    2.9458   18.7278 C.3     1  UNL1        0.0938
     28 C         -19.3177    0.3735   19.0109 C.3     1  UNL1        0.0938
     29 C         -19.6990   -0.0479   20.3990 C.3     1  UNL1        0.0233
@<TRIPOS>BOND
     1    26    27    1
     2    27    23    1
     3    23    28    1
     4    28    29    1
     5    23    24   am
     6    24    25    2
     7    24    17    1
     8    17    18   ar
     9    18    19   ar
    10    19    20   ar
    11    20     1    1
    12     1     2    2
    13     2     3    1
    14     3     4    1
    15     4     5    1
    16     5     6    1
    17     6     7    1
    18     7     8    1
    19     3     9    1
    20     9    10    1
    21    10    11   ar
    22    11    12   ar
    23    12    13   ar
    24    13    14   ar
    25    14    15   ar
    26    20    21   ar
    27    21    22   ar
    28    22    17   ar
    29    15     1    1
    30     8     3    1
    31    15    10   ar
    32     6    16    1
@<TRIPOS>MOLECULE
*****
 29 32 0 0 0
SMALL
GASTEIGER

@<TRIPOS>ATOM
      1 C          -0.1748    2.4218   22.1604 C.2     1  UNL1        0.0035
      2 C          -0.9047    3.4681   21.3712 C.2     1  UNL1        0.0130
      3 C          -1.8413    4.4127   22.0643 C.3     1  UNL1        0.1542
      4 C          -1.6346    4.5142   20.5821 C.3     1  UNL1        0.0614
      5 C          -2.3645    5.5604   19.7930 C.3     1  UNL1        0.0725
      6 N          -3.3011    6.5051   20.4861 N.3     1  UNL1       -0.2972
      7 C          -3.5078    6.4036   21.9683 C.3     1  UNL1        0.0725
      8 C          -2.7780    5.3574   22.7574 C.3     1  UNL1        0.0614
      9 O          -2.0481    4.3112   23.5466 O.3     1  UNL1       -0.4785
     10 C          -1.3182    3.2650   24.3357 C.ar    1  UNL1        0.1386
     11 C          -1.5249    3.1634   25.8179 C.ar    1  UNL1        0.0369
     12 C          -0.7950    2.1172   26.6070 C.ar    1  UNL1        0.0031
     13 C           0.1416    1.1726   25.9140 C.ar    1  UNL1        0.0002
     14 C           0.3483    1.2741   24.4318 C.ar    1  UNL1        0.0030
     15 C          -0.3816    2.3203   23.6426 C.ar    1  UNL1        0.0338
     16 H          -4.2162    6.3837   20.0522 H       1  UNL1        0.1233
     17 C           2.6350   -0.4122   20.0812 C.ar    1  UNL1        0.1347
     18 C           1.1629   -0.6989   20.1058 C.ar    1  UNL1        0.0238
     19 C           0.2263    0.2457   20.7989 C.ar    1  UNL1        0.0032
     20 C           0.7618    1.4771   21.4674 C.ar    1  UNL1        0.0191
     21 C           2.2339    1.7639   21.4427 C.ar    1  UNL1        0.0989
     22 N           3.1706    0.8193   20.7497 N.ar    1  UNL1       -0.2393
     23 N           4.2990   -2.4052   20.1767 N.am    1  UNL1       -0.2748
     24 C           3.5716   -1.3569   19.3881 C.2     1  UNL1        0.2668
     25 O           3.7808   -1.2532   17.9064 O.2     1  UNL1       -0.2683
     26 C           4.7036   -4.5959   18.8399 C.3     1  UNL1        0.0233
     27 C           5.2356   -3.3498   19.4837 C.3     1  UNL1        0.0938
     28 C           4.0898   -2.5088   21.6585 C.3     1  UNL1        0.0938
     29 C           4.7238   -3.6288   22.4289 C.3     1  UNL1        0.0233
@<TRIPOS>BOND
     1    26    27    1
     2    27    23    1
     3    23    28    1
     4    28    29    1
     5    23    24   am
     6    24    25    2
     7    24    17    1
     8    17    18   ar
     9    18    19   ar
    10    19    20   ar
    11    20     1    1
    12     1     2    2
    13     2     3    1
    14     3     4    1
    15     4     5    1
    16     5     6    1
    17     6     7    1
    18     7     8    1
    19     3     9    1
    20     9    10    1
    21    10    11   ar
    22    11    12   ar
    23    12    13   ar
    24    13    14   ar
    25    14    15   ar
    26    20    21   ar
    27    21    22   ar
    28    22    17   ar
    29    15     1    1
    30     8     3    1
    31    15    10   ar
    32     6    16    1
@<TRIPOS>MOLECULE
*****
 29 32 0 0 0
SMALL
GASTEIGER

@<TRIPOS>ATOM
      1 C         -16.5763   -1.7178   19.8040 C.2     1  UNL1        0.0035
      2 C         -16.6508   -0.2622   20.1589 C.2     1  UNL1        0.0130
      3 C         -17.9760    0.3664   20.4727 C.3     1  UNL1        0.1542
      4 C         -16.7252    1.1932   20.5137 C.3     1  UNL1        0.0614
      5 C         -16.7997    2.6487   20.8686 C.3     1  UNL1        0.0725
      6 N         -18.1250    3.2774   21.1824 N.3     1  UNL1       -0.2972
      7 C         -19.3758    2.4505   21.1413 C.3     1  UNL1        0.0725
      8 C         -19.3013    0.9950   20.7865 C.3     1  UNL1        0.0614
      9 O         -19.2269   -0.4606   20.4316 O.3     1  UNL1       -0.4785
     10 C         -19.1524   -1.9160   20.0768 C.ar    1  UNL1        0.1386
     11 C         -20.4033   -2.7430   20.0357 C.ar    1  UNL1        0.0369
     12 C         -20.3288   -4.1985   19.6808 C.ar    1  UNL1        0.0031
     13 C         -19.0035   -4.8271   19.3670 C.ar    1  UNL1        0.0002
     14 C         -17.7527   -4.0002   19.4081 C.ar    1  UNL1        0.0030
     15 C         -17.8271   -2.5447   19.7630 C.ar    1  UNL1        0.0338
     16 H         -18.2541    4.0398   20.5172 H       1  UNL1        0.1233
     17 C         -12.6005   -3.6037   18.8626 C.ar    1  UNL1        0.1347
     18 C         -13.4838   -3.1211   17.7505 C.ar    1  UNL1        0.0238
     19 C         -14.8091   -2.4925   18.0643 C.ar    1  UNL1        0.0032
     20 C         -15.2511   -2.3464   19.4902 C.ar    1  UNL1        0.0191
     21 C         -14.3677   -2.8290   20.6024 C.ar    1  UNL1        0.0989
     22 N         -13.0424   -3.4576   20.2886 N.ar    1  UNL1       -0.2393
     23 N         -11.1284   -5.7249   18.5738 N.am    1  UNL1       -0.2748
     24 C         -11.2752   -4.2323   18.5488 C.2     1  UNL1        0.2668
     25 O         -10.0967   -3.3683   18.2100 O.2     1  UNL1       -0.2683
     26 C          -9.4445   -7.6835   18.8539 C.3     1  UNL1        0.0233
     27 C          -9.8031   -6.3535   18.2600 C.3     1  UNL1        0.0938
     28 C         -12.3069   -6.5889   18.9126 C.3     1  UNL1        0.0938
     29 C         -13.0702   -7.2780   17.8207 C.3     1  UNL1        0.0233
@<TRIPOS>BOND
     1    26    27    1
     2    27    23    1
     3    23    28    1
     4    28    29    1
     5    23    24   am
     6    24    25    2
     7    24    17    1
     8    17    18   ar
     9    18    19   ar
    10    19    20   ar
    11    20     1    1
    12     1     2    2
    13     2     3    1
    14     3     4    1
    15     4     5    1
    16     5     6    1
    17     6     7    1
    18     7     8    1
    19     3     9    1
    20     9    10    1
    21    10    11   ar
    22    11    12   ar
    23    12    13   ar
    24    13    14   ar
    25    14    15   ar
    26    20    21   ar
    27    21    22   ar
    28    22    17   ar
    29    15     1    1
    30     8     3    1
    31    15    10   ar
    32     6    16    1
@<TRIPOS>MOLECULE
*****
 29 32 0 0 0
SMALL
GASTEIGER

@<TRIPOS>ATOM
      1 C           6.6413   -3.8762   24.7540 C.2     1  UNL1        0.0035
      2 C           7.2473   -5.2253   25.0048 C.2     1  UNL1        0.0130
      3 C           7.4791   -5.6937   26.4108 C.3     1  UNL1        0.1542
      4 C           7.8533   -6.5743   25.2556 C.3     1  UNL1        0.0614
      5 C           8.4593   -7.9233   25.5064 C.3     1  UNL1        0.0725
      6 N           8.6910   -8.3917   26.9125 N.3     1  UNL1       -0.2972
      7 C           8.3168   -7.5112   28.0676 C.3     1  UNL1        0.0725
      8 C           7.7108   -6.1622   27.8168 C.3     1  UNL1        0.0614
      9 O           7.1048   -4.8131   27.5660 O.3     1  UNL1       -0.4785
     10 C           6.4988   -3.4641   27.3152 C.ar    1  UNL1        0.1386
     11 C           6.1245   -2.5835   28.4705 C.ar    1  UNL1        0.0369
     12 C           5.5185   -1.2345   28.2196 C.ar    1  UNL1        0.0031
     13 C           5.2867   -0.7660   26.8136 C.ar    1  UNL1        0.0002
     14 C           5.6610   -1.6466   25.6584 C.ar    1  UNL1        0.0030
     15 C           6.2670   -2.9957   25.9092 C.ar    1  UNL1        0.0338
     16 H           9.6894   -8.5820   26.9986 H       1  UNL1        0.1233
     17 C           5.9461   -2.4709   20.5360 C.ar    1  UNL1        0.1347
     18 C           4.8733   -3.2285   21.2605 C.ar    1  UNL1        0.0238
     19 C           5.1050   -3.6970   22.6665 C.ar    1  UNL1        0.0032
     20 C           6.4096   -3.4078   23.3480 C.ar    1  UNL1        0.0191
     21 C           7.4825   -2.6501   22.6235 C.ar    1  UNL1        0.0989
     22 N           7.2507   -2.1817   21.2175 N.ar    1  UNL1       -0.2393
     23 N           5.0393   -0.6866   18.8795 N.am    1  UNL1       -0.2748
     24 C           5.7143   -2.0025   19.1300 C.2     1  UNL1        0.2668
     25 O           6.1577   -2.8499   17.9744 O.2     1  UNL1       -0.2683
     26 C           3.6792   -0.7915   16.6683 C.3     1  UNL1        0.0233
     27 C           4.8075   -0.2182   17.4735 C.3     1  UNL1        0.0938
     28 C           4.5959    0.1609   20.0351 C.3     1  UNL1        0.0938
     29 C           3.1505    0.1866   20.4352 C.3     1  UNL1        0.0233
@<TRIPOS>BOND
     1    26    27    1
     2    27    23    1
     3    23    28    1
     4    28    29    1
     5    23    24   am
     6    24    25    2
     7    24    17    1
     8    17    18   ar
     9    18    19   ar
    10    19    20   ar
    11    20     1    1
    12     1     2    2
    13     2     3    1
    14     3     4    1
    15     4     5    1
    16     5     6    1
    17     6     7    1
    18     7     8    1
    19     3     9    1
    20     9    10    1
    21    10    11   ar
    22    11    12   ar
    23    12    13   ar
    24    13    14   ar
    25    14    15   ar
    26    20    21   ar
    27    21    22   ar
    28    22    17   ar
    29    15     1    1
    30     8     3    1
    31    15    10   ar
    32     6    16    1
@<TRIPOS>MOLECULE
*****
 29 32 0 0 0
SMALL
GASTEIGER

@<TRIPOS>ATOM
      1 C           6.9244   -4.1424   24.6305 C.2     1  UNL1        0.0035
      2 C           6.5764   -3.4991   25.9402 C.2     1  UNL1        0.0130
      3 C           7.0701   -4.0971   27.2241 C.3     1  UNL1        0.1542
      4 C           6.2284   -2.8558   27.2498 C.3     1  UNL1        0.0614
      5 C           5.8805   -2.2126   28.5594 C.3     1  UNL1        0.0725
      6 N           6.3742   -2.8107   29.8434 N.3     1  UNL1       -0.2972
      7 C           7.2159   -4.0520   29.8177 C.3     1  UNL1        0.0725
      8 C           7.5638   -4.6952   28.5081 C.3     1  UNL1        0.0614
      9 O           7.9119   -5.3385   27.1984 O.3     1  UNL1       -0.4785
     10 C           8.2598   -5.9817   25.8888 C.ar    1  UNL1        0.1386
     11 C           9.1016   -7.2231   25.8631 C.ar    1  UNL1        0.0369
     12 C           9.4495   -7.8663   24.5535 C.ar    1  UNL1        0.0031
     13 C           8.9558   -7.2682   23.2696 C.ar    1  UNL1        0.0002
     14 C           8.1141   -6.0270   23.2952 C.ar    1  UNL1        0.0030
     15 C           7.7661   -5.3837   24.6049 C.ar    1  UNL1        0.0338
     16 H           5.5498   -3.0255   30.4043 H       1  UNL1        0.1233
     17 C           5.4432   -2.3482   20.7786 C.ar    1  UNL1        0.1347
     18 C           6.8077   -1.9975   21.2935 C.ar    1  UNL1        0.0238
     19 C           7.3014   -2.5956   22.5774 C.ar    1  UNL1        0.0032
     20 C           6.4307   -3.5443   23.3466 C.ar    1  UNL1        0.0191
     21 C           5.0661   -3.8951   22.8317 C.ar    1  UNL1        0.0989
     22 N           4.5723   -3.2970   21.5478 N.ar    1  UNL1       -0.2393
     23 N           4.0923   -0.5195   19.5213 N.am    1  UNL1       -0.2748
     24 C           4.9495   -1.7501   19.4947 C.2     1  UNL1        0.2668
     25 O           5.3129   -2.3828   18.1840 O.2     1  UNL1       -0.2683
     26 C           2.5235    1.1243   18.2617 C.3     1  UNL1        0.0233
     27 C           3.5986    0.0786   18.2374 C.3     1  UNL1        0.0938
     28 C           3.7289    0.1132   20.8320 C.3     1  UNL1        0.0938
     29 C           4.5967    1.1910   21.4107 C.3     1  UNL1        0.0233
@<TRIPOS>BOND
     1    26    27    1
     2    27    23    1
     3    23    28    1
     4    28    29    1
     5    23    24   am
     6    24    25    2
     7    24    17    1
     8    17    18   ar
     9    18    19   ar
    10    19    20   ar
    11    20     1    1
    12     1     2    2
    13     2     3    1
    14     3     4    1
    15     4     5    1
    16     5     6    1
    17     6     7    1
    18     7     8    1
    19     3     9    1
    20     9    10    1
    21    10    11   ar
    22    11    12   ar
    23    12    13   ar
    24    13    14   ar
    25    14    15   ar
    26    20    21   ar
    27    21    22   ar
    28    22    17   ar
    29    15     1    1
    30     8     3    1
    31    15    10   ar
    32     6    16    1
