@<TRIPOS>MOLECULE
*****
 35 37 0 0 0
SMALL
GASTEIGER

@<TRIPOS>ATOM
      1 C          -4.0976  -17.4718   22.0954 C.ar    1  UNL1        0.2445
      2 N          -3.2631  -16.2343   22.2449 N.ar    1  UNL1       -0.2078
      3 C          -1.9083  -16.1615   21.6053 C.ar    1  UNL1        0.1135
      4 C          -1.3879  -17.3261   20.8162 C.ar    1  UNL1        0.0783
      5 CL         -0.0331  -17.2533   20.1766 Cl      1  UNL1       -0.0806
      6 C          -2.2223  -18.5636   20.6666 C.ar    1  UNL1        0.0336
      7 C          -3.5772  -18.6364   21.3062 C.ar    1  UNL1        0.1190
      8 N          -4.4116  -19.8739   21.1567 N.pl3   1  UNL1       -0.2104
      9 H          -3.9802  -20.7585   21.1322 H       1  UNL1        0.1739
     10 S          -5.9033  -19.7636   21.0445 S.O2    1  UNL1        0.0737
     11 O          -6.0586  -20.6228   22.2643 O.2     1  UNL1       -0.1499
     12 O          -5.7481  -18.9045   19.8248 O.2     1  UNL1       -0.1499
     13 C          -7.3951  -19.6533   20.9324 C.ar    1  UNL1        0.1261
     14 C          -8.0339  -19.4601   19.5891 C.ar    1  UNL1        0.0211
     15 C          -9.5256  -19.3498   19.4769 C.ar    1  UNL1        0.0136
     16 C         -10.3785  -19.4328   20.7080 C.ar    1  UNL1        0.0683
     17 CL        -11.8702  -19.3225   20.5959 Cl      1  UNL1       -0.0814
     18 C          -9.7397  -19.6261   22.0514 C.ar    1  UNL1        0.0695
     19 CL        -10.5925  -19.7091   23.2825 Cl      1  UNL1       -0.0813
     20 C          -8.2479  -19.7364   22.1636 C.ar    1  UNL1        0.0324
     21 O          -5.4524  -17.5446   22.7350 O.3     1  UNL1       -0.4349
     22 C          -7.0839  -16.0039   24.0445 C.ar    1  UNL1        0.0879
     23 C          -7.3919  -15.1613   25.2466 C.ar    1  UNL1        0.0076
     24 C          -6.3767  -15.0168   26.3414 C.ar    1  UNL1        0.0003
     25 C          -5.0535  -15.7149   26.2340 C.ar    1  UNL1        0.0031
     26 C          -4.7454  -16.5575   25.0319 C.ar    1  UNL1        0.0377
     27 C          -5.7606  -16.7020   23.9371 C.ar    1  UNL1        0.1515
     28 O          -7.6504  -16.3453   21.5320 O.2     1  UNL1       -0.2700
     29 C          -8.0990  -16.1483   22.9497 C.2     1  UNL1        0.2489
     30 N          -9.5629  -16.0958   23.2726 N.am    1  UNL1       -0.2984
     31 H          -9.8574  -15.9665   24.2031 H       1  UNL1        0.1498
     32 C         -10.5781  -16.2403   22.1778 C.3     1  UNL1        0.1215
     33 C         -12.0314  -16.0069   22.4671 C.3     1  UNL1        0.1583
     34 O         -12.8854  -17.1314   22.9731 O.3     1  UNL1       -0.3802
     35 H         -12.9638  -17.8121   22.2866 H       1  UNL1        0.2105
@<TRIPOS>BOND
     1    28    29    2
     2    29    30   am
     3    30    32    1
     4    32    33    1
     5    33    34    1
     6    29    22    1
     7    22    23   ar
     8    23    24   ar
     9    24    25   ar
    10    25    26   ar
    11    26    27   ar
    12    27    21    1
    13    21     1    1
    14     1     2   ar
    15     2     3   ar
    16     3     4   ar
    17     4     5    1
    18     4     6   ar
    19     6     7   ar
    20     7     8    1
    21     8    10    1
    22    10    11    2
    23    10    12    2
    24    10    13    1
    25    13    14   ar
    26    14    15   ar
    27    15    16   ar
    28    16    17    1
    29    16    18   ar
    30    18    19    1
    31    18    20   ar
    32    27    22   ar
    33     7     1   ar
    34    20    13   ar
    35    30    31    1
    36    34    35    1
    37     8     9    1
@<TRIPOS>MOLECULE
*****
 35 37 0 0 0
SMALL
GASTEIGER

@<TRIPOS>ATOM
      1 C          -8.3987  -17.1891   22.2050 C.ar    1  UNL1        0.2445
      2 N          -9.3236  -16.0089   22.1631 N.ar    1  UNL1       -0.2078
      3 C         -10.5012  -16.0115   21.2341 C.ar    1  UNL1        0.1135
      4 C         -10.7540  -17.1943   20.3469 C.ar    1  UNL1        0.0783
      5 CL        -11.9316  -17.1969   19.4179 Cl      1  UNL1       -0.0806
      6 C          -9.8292  -18.3745   20.3887 C.ar    1  UNL1        0.0336
      7 C          -8.6514  -18.3719   21.3177 C.ar    1  UNL1        0.1190
      8 N          -7.7266  -19.5521   21.3595 N.pl3   1  UNL1       -0.2104
      9 H          -8.0829  -20.4503   21.5479 H       1  UNL1        0.1739
     10 S          -6.2588  -19.3637   21.1144 S.O2    1  UNL1        0.0737
     11 O          -5.9512  -20.1329   22.3649 O.2     1  UNL1       -0.1499
     12 O          -6.5663  -18.5946   19.8639 O.2     1  UNL1       -0.1499
     13 C          -4.7910  -19.1754   20.8693 C.ar    1  UNL1        0.1261
     14 C          -3.7932  -19.6710   21.8737 C.ar    1  UNL1        0.0211
     15 C          -2.3254  -19.4826   21.6285 C.ar    1  UNL1        0.0136
     16 C          -1.8554  -18.7988   20.3790 C.ar    1  UNL1        0.0683
     17 CL         -0.3876  -18.6105   20.1339 Cl      1  UNL1       -0.0814
     18 C          -2.8532  -18.3032   19.3745 C.ar    1  UNL1        0.0695
     19 CL         -2.3831  -17.6193   18.1250 Cl      1  UNL1       -0.0813
     20 C          -4.3210  -18.4915   19.6197 C.ar    1  UNL1        0.0324
     21 O          -7.2210  -17.1865   23.1340 O.3     1  UNL1       -0.4349
     22 C          -8.5095  -17.0080   25.3830 C.ar    1  UNL1        0.0879
     23 C          -8.6429  -16.4319   26.7615 C.ar    1  UNL1        0.0076
     24 C          -7.6213  -15.4581   27.2695 C.ar    1  UNL1        0.0003
     25 C          -6.4663  -15.0605   26.3990 C.ar    1  UNL1        0.0031
     26 C          -6.3329  -15.6366   25.0205 C.ar    1  UNL1        0.0377
     27 C          -7.3545  -16.6104   24.5125 C.ar    1  UNL1        0.1515
     28 O          -9.2632  -19.4559   24.9475 O.2     1  UNL1       -0.2700
     29 C          -9.5311  -17.9818   24.8750 C.2     1  UNL1        0.2489
     30 N         -10.8205  -17.4815   24.2946 N.am    1  UNL1       -0.2984
     31 H         -10.9964  -16.5140   24.2470 H       1  UNL1        0.1498
     32 C         -11.8422  -18.4553   23.7866 C.3     1  UNL1        0.1215
     33 C         -13.2240  -17.9824   23.4444 C.3     1  UNL1        0.1583
     34 O         -14.3124  -18.0380   24.4750 O.3     1  UNL1       -0.3802
     35 H         -14.5064  -18.9636   24.6907 H       1  UNL1        0.2105
@<TRIPOS>BOND
     1    28    29    2
     2    29    30   am
     3    30    32    1
     4    32    33    1
     5    33    34    1
     6    29    22    1
     7    22    23   ar
     8    23    24   ar
     9    24    25   ar
    10    25    26   ar
    11    26    27   ar
    12    27    21    1
    13    21     1    1
    14     1     2   ar
    15     2     3   ar
    16     3     4   ar
    17     4     5    1
    18     4     6   ar
    19     6     7   ar
    20     7     8    1
    21     8    10    1
    22    10    11    2
    23    10    12    2
    24    10    13    1
    25    13    14   ar
    26    14    15   ar
    27    15    16   ar
    28    16    17    1
    29    16    18   ar
    30    18    19    1
    31    18    20   ar
    32    27    22   ar
    33     7     1   ar
    34    20    13   ar
    35    30    31    1
    36    34    35    1
    37     8     9    1
@<TRIPOS>MOLECULE
*****
 35 37 0 0 0
SMALL
GASTEIGER

@<TRIPOS>ATOM
      1 C          -5.1008  -16.4693   23.9180 C.ar    1  UNL1        0.2445
      2 N          -4.3761  -16.7969   25.1899 N.ar    1  UNL1       -0.2078
      3 C          -4.8786  -16.2628   26.4984 C.ar    1  UNL1        0.1135
      4 C          -6.1058  -15.4011   26.5351 C.ar    1  UNL1        0.0783
      5 CL         -6.6083  -14.8669   27.8436 Cl      1  UNL1       -0.0806
      6 C          -6.8305  -15.0734   25.2633 C.ar    1  UNL1        0.0336
      7 C          -6.3280  -15.6075   23.9548 C.ar    1  UNL1        0.1190
      8 N          -7.0527  -15.2799   22.6830 N.pl3   1  UNL1       -0.2104
      9 H          -6.6209  -14.7153   22.0018 H       1  UNL1        0.1739
     10 S          -8.4353  -15.8124   22.4491 S.O2    1  UNL1        0.0737
     11 O          -8.4879  -15.0972   21.1316 O.2     1  UNL1       -0.1499
     12 O          -8.3827  -16.5277   23.7665 O.2     1  UNL1       -0.1499
     13 C          -9.8180  -16.3449   22.2151 C.ar    1  UNL1        0.1261
     14 C         -10.4971  -16.1155   20.8975 C.ar    1  UNL1        0.0211
     15 C         -11.8797  -16.6480   20.6636 C.ar    1  UNL1        0.0136
     16 C         -12.5833  -17.4100   21.7473 C.ar    1  UNL1        0.0683
     17 CL        -13.9659  -17.9425   21.5134 Cl      1  UNL1       -0.0814
     18 C         -11.9042  -17.6394   23.0650 C.ar    1  UNL1        0.0695
     19 CL        -12.6077  -18.4014   24.1487 Cl      1  UNL1       -0.0813
     20 C         -10.5215  -17.1069   23.2989 C.ar    1  UNL1        0.0324
     21 O          -4.5983  -17.0034   22.6096 O.3     1  UNL1       -0.4349
     22 C          -4.2125  -19.2342   21.3349 C.ar    1  UNL1        0.0879
     23 C          -4.7386  -20.5347   20.8040 C.ar    1  UNL1        0.0076
     24 C          -6.1766  -20.9049   21.0168 C.ar    1  UNL1        0.0003
     25 C          -7.0884  -19.9747   21.7605 C.ar    1  UNL1        0.0031
     26 C          -6.5623  -18.6742   22.2914 C.ar    1  UNL1        0.0377
     27 C          -5.1244  -18.3040   22.0786 C.ar    1  UNL1        0.1515
     28 O          -1.7020  -19.9005   21.2802 O.2     1  UNL1       -0.2700
     29 C          -2.7746  -18.8640   21.1221 C.2     1  UNL1        0.2489
     30 N          -2.4093  -17.4573   20.7511 N.am    1  UNL1       -0.2984
     31 H          -3.1134  -16.7769   20.6473 H       1  UNL1        0.1498
     32 C          -0.9714  -17.0870   20.5383 C.3     1  UNL1        0.1215
     33 C          -0.1907  -17.7204   19.4249 C.3     1  UNL1        0.1583
     34 O          -0.8128  -17.8806   18.0695 O.3     1  UNL1       -0.3802
     35 H          -1.5525  -18.5056   18.1250 H       1  UNL1        0.2105
@<TRIPOS>BOND
     1    28    29    2
     2    29    30   am
     3    30    32    1
     4    32    33    1
     5    33    34    1
     6    29    22    1
     7    22    23   ar
     8    23    24   ar
     9    24    25   ar
    10    25    26   ar
    11    26    27   ar
    12    27    21    1
    13    21     1    1
    14     1     2   ar
    15     2     3   ar
    16     3     4   ar
    17     4     5    1
    18     4     6   ar
    19     6     7   ar
    20     7     8    1
    21     8    10    1
    22    10    11    2
    23    10    12    2
    24    10    13    1
    25    13    14   ar
    26    14    15   ar
    27    15    16   ar
    28    16    17    1
    29    16    18   ar
    30    18    19    1
    31    18    20   ar
    32    27    22   ar
    33     7     1   ar
    34    20    13   ar
    35    30    31    1
    36    34    35    1
    37     8     9    1
@<TRIPOS>MOLECULE
*****
 35 37 0 0 0
SMALL
GASTEIGER

@<TRIPOS>ATOM
      1 C          -8.6572  -18.9707   20.5735 C.ar    1  UNL1        0.2445
      2 N          -9.7729  -18.7478   19.5960 N.ar    1  UNL1       -0.2078
      3 C          -9.8851  -19.6130   18.3758 C.ar    1  UNL1        0.1135
      4 C          -8.8815  -20.7011   18.1331 C.ar    1  UNL1        0.0783
      5 CL         -8.9937  -21.5663   16.9130 Cl      1  UNL1       -0.0806
      6 C          -7.7659  -20.9241   19.1106 C.ar    1  UNL1        0.0336
      7 C          -7.6537  -20.0589   20.3309 C.ar    1  UNL1        0.1190
      8 N          -6.5380  -20.2818   21.3084 N.pl3   1  UNL1       -0.2104
      9 H          -6.6950  -20.8143   22.1214 H       1  UNL1        0.1739
     10 S          -5.1832  -19.6934   21.0472 S.O2    1  UNL1        0.0737
     11 O          -5.5317  -18.5114   21.9023 O.2     1  UNL1       -0.1499
     12 O          -4.8347  -20.8754   20.1920 O.2     1  UNL1       -0.1499
     13 C          -3.8284  -19.1050   20.7859 C.ar    1  UNL1        0.1261
     14 C          -2.8453  -18.9580   21.9092 C.ar    1  UNL1        0.0211
     15 C          -1.4904  -18.3696   21.6480 C.ar    1  UNL1        0.0136
     16 C          -1.1187  -17.9282   20.2635 C.ar    1  UNL1        0.0683
     17 CL          0.2361  -17.3398   20.0023 Cl      1  UNL1       -0.0814
     18 C          -2.1019  -18.0751   19.1401 C.ar    1  UNL1        0.0695
     19 CL         -1.7302  -17.6337   17.7556 Cl      1  UNL1       -0.0813
     20 C          -3.4567  -18.6635   19.4013 C.ar    1  UNL1        0.0324
     21 O          -8.5451  -18.1055   21.7937 O.3     1  UNL1       -0.4349
     22 C          -9.0965  -17.6641   24.2939 C.ar    1  UNL1        0.0879
     23 C          -9.8310  -18.0366   25.5475 C.ar    1  UNL1        0.0076
     24 C         -10.7486  -19.2233   25.5547 C.ar    1  UNL1        0.0003
     25 C         -10.9316  -20.0373   24.3082 C.ar    1  UNL1        0.0031
     26 C         -10.1971  -19.6647   23.0546 C.ar    1  UNL1        0.0377
     27 C          -9.2796  -18.4781   23.0474 C.ar    1  UNL1        0.1515
     28 O          -8.6046  -15.1963   24.9405 O.2     1  UNL1       -0.2700
     29 C          -8.1790  -16.4774   24.2868 C.2     1  UNL1        0.2489
     30 N          -6.8358  -16.5719   23.6258 N.am    1  UNL1       -0.2984
     31 H          -6.5564  -17.4128   23.1967 H       1  UNL1        0.1498
     32 C          -5.9183  -15.3853   23.6187 C.3     1  UNL1        0.1215
     33 C          -5.1336  -15.0366   24.8486 C.3     1  UNL1        0.1583
     34 O          -5.8217  -14.4085   26.0242 O.3     1  UNL1       -0.3802
     35 H          -6.1398  -13.5256   25.7788 H       1  UNL1        0.2105
@<TRIPOS>BOND
     1    28    29    2
     2    29    30   am
     3    30    32    1
     4    32    33    1
     5    33    34    1
     6    29    22    1
     7    22    23   ar
     8    23    24   ar
     9    24    25   ar
    10    25    26   ar
    11    26    27   ar
    12    27    21    1
    13    21     1    1
    14     1     2   ar
    15     2     3   ar
    16     3     4   ar
    17     4     5    1
    18     4     6   ar
    19     6     7   ar
    20     7     8    1
    21     8    10    1
    22    10    11    2
    23    10    12    2
    24    10    13    1
    25    13    14   ar
    26    14    15   ar
    27    15    16   ar
    28    16    17    1
    29    16    18   ar
    30    18    19    1
    31    18    20   ar
    32    27    22   ar
    33     7     1   ar
    34    20    13   ar
    35    30    31    1
    36    34    35    1
    37     8     9    1
@<TRIPOS>MOLECULE
*****
 35 37 0 0 0
SMALL
GASTEIGER

@<TRIPOS>ATOM
      1 C         -10.1703  -19.2370   22.2103 C.ar    1  UNL1        0.2445
      2 N         -11.2447  -19.3998   21.1761 N.ar    1  UNL1       -0.2078
      3 C         -10.8764  -19.6908   19.7515 C.ar    1  UNL1        0.1135
      4 C          -9.4339  -19.8191   19.3609 C.ar    1  UNL1        0.0783
      5 CL         -9.0656  -20.1101   17.9362 Cl      1  UNL1       -0.0806
      6 C          -8.3595  -19.6563   20.3949 C.ar    1  UNL1        0.0336
      7 C          -8.7277  -19.3653   21.8196 C.ar    1  UNL1        0.1190
      8 N          -7.6534  -19.2025   22.8537 N.pl3   1  UNL1       -0.2104
      9 H          -7.8714  -19.2968   23.8091 H       1  UNL1        0.1739
     10 S          -6.2468  -18.8962   22.4321 S.O2    1  UNL1        0.0737
     11 O          -6.5462  -17.4280   22.5002 O.2     1  UNL1       -0.1499
     12 O          -5.9475  -20.3644   22.3639 O.2     1  UNL1       -0.1499
     13 C          -4.8403  -18.5898   22.0104 C.ar    1  UNL1        0.1261
     14 C          -3.8730  -18.0031   22.9954 C.ar    1  UNL1        0.0211
     15 C          -2.4665  -17.6968   22.5738 C.ar    1  UNL1        0.0136
     16 C          -2.0272  -17.9771   21.1672 C.ar    1  UNL1        0.0683
     17 CL         -0.6206  -17.6708   20.7456 Cl      1  UNL1       -0.0814
     18 C          -2.9945  -18.5639   20.1822 C.ar    1  UNL1        0.0695
     19 CL         -2.5552  -18.8442   18.7757 Cl      1  UNL1       -0.0813
     20 C          -4.4010  -18.8702   20.6038 C.ar    1  UNL1        0.0324
     21 O         -10.5385  -18.9460   23.6349 O.3     1  UNL1       -0.4349
     22 C          -9.7336  -16.4782   23.7446 C.ar    1  UNL1        0.0879
     23 C          -9.0499  -15.3665   24.4839 C.ar    1  UNL1        0.0076
     24 C          -8.4874  -15.6108   25.8528 C.ar    1  UNL1        0.0003
     25 C          -8.6086  -16.9668   26.4824 C.ar    1  UNL1        0.0031
     26 C          -9.2923  -18.0785   25.7431 C.ar    1  UNL1        0.0377
     27 C          -9.8548  -17.8342   24.3742 C.ar    1  UNL1        0.1515
     28 O          -9.3785  -15.9064   21.2353 O.2     1  UNL1       -0.2700
     29 C         -10.2961  -16.2339   22.3757 C.2     1  UNL1        0.2489
     30 N         -11.7763  -16.3170   22.1473 N.am    1  UNL1       -0.2984
     31 H         -12.3786  -16.5320   22.8958 H       1  UNL1        0.1498
     32 C         -12.3388  -16.0727   20.7784 C.3     1  UNL1        0.1215
     33 C         -11.4601  -16.2120   19.5706 C.3     1  UNL1        0.1583
     34 O         -10.8397  -14.9954   18.9501 O.3     1  UNL1       -0.3802
     35 H         -11.5360  -14.4305   18.5800 H       1  UNL1        0.2105
@<TRIPOS>BOND
     1    28    29    2
     2    29    30   am
     3    30    32    1
     4    32    33    1
     5    33    34    1
     6    29    22    1
     7    22    23   ar
     8    23    24   ar
     9    24    25   ar
    10    25    26   ar
    11    26    27   ar
    12    27    21    1
    13    21     1    1
    14     1     2   ar
    15     2     3   ar
    16     3     4   ar
    17     4     5    1
    18     4     6   ar
    19     6     7   ar
    20     7     8    1
    21     8    10    1
    22    10    11    2
    23    10    12    2
    24    10    13    1
    25    13    14   ar
    26    14    15   ar
    27    15    16   ar
    28    16    17    1
    29    16    18   ar
    30    18    19    1
    31    18    20   ar
    32    27    22   ar
    33     7     1   ar
    34    20    13   ar
    35    30    31    1
    36    34    35    1
    37     8     9    1
@<TRIPOS>MOLECULE
*****
 35 37 0 0 0
SMALL
GASTEIGER

@<TRIPOS>ATOM
      1 C          -7.7924  -19.9153   20.6092 C.ar    1  UNL1        0.2445
      2 N          -7.1850  -21.2541   20.3112 N.ar    1  UNL1       -0.2078
      3 C          -5.7049  -21.3760   20.1003 C.ar    1  UNL1        0.1135
      4 C          -4.8322  -20.1591   20.1875 C.ar    1  UNL1        0.0783
      5 CL         -3.3521  -20.2810   19.9766 Cl      1  UNL1       -0.0806
      6 C          -5.4395  -18.8204   20.4855 C.ar    1  UNL1        0.0336
      7 C          -6.9197  -18.6984   20.6964 C.ar    1  UNL1        0.1190
      8 N          -7.5270  -17.3597   20.9945 N.pl3   1  UNL1       -0.2104
      9 H          -7.9062  -16.8178   20.2652 H       1  UNL1        0.1739
     10 S          -7.5565  -16.8465   22.4037 S.O2    1  UNL1        0.0737
     11 O          -6.2905  -17.5935   22.7022 O.2     1  UNL1       -0.1499
     12 O          -8.8225  -16.0994   22.1051 O.2     1  UNL1       -0.1499
     13 C          -7.5860  -16.3333   23.8128 C.ar    1  UNL1        0.1261
     14 C          -8.8598  -16.3846   24.6032 C.ar    1  UNL1        0.0211
     15 C          -8.8893  -15.8714   26.0124 C.ar    1  UNL1        0.0136
     16 C          -7.6450  -15.3069   26.6312 C.ar    1  UNL1        0.0683
     17 CL         -7.6745  -14.7937   28.0403 Cl      1  UNL1       -0.0814
     18 C          -6.3711  -15.2555   25.8408 C.ar    1  UNL1        0.0695
     19 CL         -5.1268  -14.6910   26.4596 Cl      1  UNL1       -0.0813
     20 C          -6.3416  -15.7687   24.4316 C.ar    1  UNL1        0.0324
     21 O          -9.2724  -19.7934   20.8201 O.3     1  UNL1       -0.4349
     22 C         -11.0212  -18.8032   22.4667 C.ar    1  UNL1        0.0879
     23 C         -11.5732  -18.6798   23.8560 C.ar    1  UNL1        0.0076
     24 C         -10.9283  -19.4234   24.9880 C.ar    1  UNL1        0.0003
     25 C          -9.7316  -20.2902   24.7307 C.ar    1  UNL1        0.0031
     26 C          -9.1796  -20.4136   23.3414 C.ar    1  UNL1        0.0377
     27 C          -9.8245  -19.6700   22.2095 C.ar    1  UNL1        0.1515
     28 O         -13.1505  -17.8442   21.3280 O.2     1  UNL1       -0.2700
     29 C         -11.6661  -18.0597   21.3348 C.2     1  UNL1        0.2489
     30 N         -10.8265  -17.5316   20.2095 N.am    1  UNL1       -0.2984
     31 H          -9.8522  -17.6730   20.2139 H       1  UNL1        0.1498
     32 C         -11.4713  -16.7881   19.0775 C.3     1  UNL1        0.1215
     33 C         -11.5220  -15.2890   19.0972 C.3     1  UNL1        0.1583
     34 O         -10.4081  -14.4929   18.4846 O.3     1  UNL1       -0.3802
     35 H          -9.5930  -14.6344   18.9910 H       1  UNL1        0.2105
@<TRIPOS>BOND
     1    28    29    2
     2    29    30   am
     3    30    32    1
     4    32    33    1
     5    33    34    1
     6    29    22    1
     7    22    23   ar
     8    23    24   ar
     9    24    25   ar
    10    25    26   ar
    11    26    27   ar
    12    27    21    1
    13    21     1    1
    14     1     2   ar
    15     2     3   ar
    16     3     4   ar
    17     4     5    1
    18     4     6   ar
    19     6     7   ar
    20     7     8    1
    21     8    10    1
    22    10    11    2
    23    10    12    2
    24    10    13    1
    25    13    14   ar
    26    14    15   ar
    27    15    16   ar
    28    16    17    1
    29    16    18   ar
    30    18    19    1
    31    18    20   ar
    32    27    22   ar
    33     7     1   ar
    34    20    13   ar
    35    30    31    1
    36    34    35    1
    37     8     9    1
@<TRIPOS>MOLECULE
*****
 35 37 0 0 0
SMALL
GASTEIGER

@<TRIPOS>ATOM
      1 C          -6.6767  -17.9057   21.7939 C.ar    1  UNL1        0.2445
      2 N          -5.3815  -18.4273   22.3421 N.ar    1  UNL1       -0.2078
      3 C          -4.8021  -19.7045   21.8101 C.ar    1  UNL1        0.1135
      4 C          -5.5178  -20.4600   20.7298 C.ar    1  UNL1        0.0783
      5 CL         -4.9384  -21.7372   20.1978 Cl      1  UNL1       -0.0806
      6 C          -6.8129  -19.9385   20.1817 C.ar    1  UNL1        0.0336
      7 C          -7.3924  -18.6612   20.7137 C.ar    1  UNL1        0.1190
      8 N          -8.6875  -18.1396   20.1655 N.pl3   1  UNL1       -0.2104
      9 H          -8.7302  -17.8001   19.2424 H       1  UNL1        0.1739
     10 S          -9.9177  -18.1354   21.0238 S.O2    1  UNL1        0.0737
     11 O          -9.8267  -19.6263   21.1616 O.2     1  UNL1       -0.1499
     12 O         -10.0087  -16.6445   20.8860 O.2     1  UNL1       -0.1499
     13 C         -11.1479  -18.1311   21.8821 C.ar    1  UNL1        0.1261
     14 C         -12.4687  -17.7262   21.2977 C.ar    1  UNL1        0.0211
     15 C         -13.6989  -17.7220   22.1560 C.ar    1  UNL1        0.0136
     16 C         -13.6083  -18.1225   23.5986 C.ar    1  UNL1        0.0683
     17 CL        -14.8385  -18.1183   24.4569 Cl      1  UNL1       -0.0814
     18 C         -12.2874  -18.5274   24.1831 C.ar    1  UNL1        0.0695
     19 CL        -12.1968  -18.9280   25.6257 Cl      1  UNL1       -0.0813
     20 C         -11.0572  -18.5317   23.3248 C.ar    1  UNL1        0.0324
     21 O          -7.2561  -16.6285   22.3260 O.3     1  UNL1       -0.4349
     22 C          -5.7914  -15.6713   24.2465 C.ar    1  UNL1        0.0879
     23 C          -5.6172  -15.3139   25.6928 C.ar    1  UNL1        0.0076
     24 C          -6.7334  -15.5564   26.6650 C.ar    1  UNL1        0.0003
     25 C          -8.0239  -16.1563   26.1909 C.ar    1  UNL1        0.0031
     26 C          -8.1981  -16.5136   24.7446 C.ar    1  UNL1        0.0377
     27 C          -7.0818  -16.2711   23.7724 C.ar    1  UNL1        0.1515
     28 O          -4.6307  -14.1533   22.4863 O.2     1  UNL1       -0.2700
     29 C          -4.6751  -15.4288   23.2743 C.2     1  UNL1        0.2489
     30 N          -3.6033  -16.4618   23.0901 N.am    1  UNL1       -0.2984
     31 H          -3.6324  -17.2990   23.6073 H       1  UNL1        0.1498
     32 C          -2.4870  -16.2193   22.1179 C.3     1  UNL1        0.1215
     33 C          -1.8721  -17.3712   21.3795 C.3     1  UNL1        0.1583
     34 O          -1.3901  -18.5745   22.1343 O.3     1  UNL1       -0.3802
     35 H          -0.6410  -18.3242   22.6975 H       1  UNL1        0.2105
@<TRIPOS>BOND
     1    28    29    2
     2    29    30   am
     3    30    32    1
     4    32    33    1
     5    33    34    1
     6    29    22    1
     7    22    23   ar
     8    23    24   ar
     9    24    25   ar
    10    25    26   ar
    11    26    27   ar
    12    27    21    1
    13    21     1    1
    14     1     2   ar
    15     2     3   ar
    16     3     4   ar
    17     4     5    1
    18     4     6   ar
    19     6     7   ar
    20     7     8    1
    21     8    10    1
    22    10    11    2
    23    10    12    2
    24    10    13    1
    25    13    14   ar
    26    14    15   ar
    27    15    16   ar
    28    16    17    1
    29    16    18   ar
    30    18    19    1
    31    18    20   ar
    32    27    22   ar
    33     7     1   ar
    34    20    13   ar
    35    30    31    1
    36    34    35    1
    37     8     9    1
@<TRIPOS>MOLECULE
*****
 35 37 0 0 0
SMALL
GASTEIGER

@<TRIPOS>ATOM
      1 C          -4.8060  -17.3821   24.0656 C.ar    1  UNL1        0.2445
      2 N          -4.1409  -17.3323   25.4092 N.ar    1  UNL1       -0.2078
      3 C          -4.5985  -16.3393   26.4362 C.ar    1  UNL1        0.1135
      4 C          -5.7212  -15.3962   26.1196 C.ar    1  UNL1        0.0783
      5 CL         -6.1787  -14.4033   27.1465 Cl      1  UNL1       -0.0806
      6 C          -6.3862  -15.4460   24.7761 C.ar    1  UNL1        0.0336
      7 C          -5.9287  -16.4390   23.7490 C.ar    1  UNL1        0.1190
      8 N          -6.5937  -16.4888   22.4055 N.pl3   1  UNL1       -0.2104
      9 H          -6.0730  -16.3017   21.5912 H       1  UNL1        0.1739
     10 S          -8.0522  -16.8237   22.3025 S.O2    1  UNL1        0.0737
     11 O          -8.3136  -15.4902   21.6675 O.2     1  UNL1       -0.1499
     12 O          -7.7909  -18.1573   22.9376 O.2     1  UNL1       -0.1499
     13 C          -9.5108  -17.1586   22.1996 C.ar    1  UNL1        0.1261
     14 C         -10.0869  -18.2649   23.0327 C.ar    1  UNL1        0.0211
     15 C         -11.5454  -18.5998   22.9298 C.ar    1  UNL1        0.0136
     16 C         -12.4278  -17.8284   21.9937 C.ar    1  UNL1        0.0683
     17 CL        -13.8863  -18.1633   21.8908 Cl      1  UNL1       -0.0814
     18 C         -11.8517  -16.7220   21.1605 C.ar    1  UNL1        0.0695
     19 CL        -12.7341  -15.9506   20.2245 Cl      1  UNL1       -0.0813
     20 C         -10.3932  -16.3871   21.2635 C.ar    1  UNL1        0.0324
     21 O          -4.3485  -18.3750   23.0387 O.3     1  UNL1       -0.4349
     22 C          -3.5644  -18.5072   20.5652 C.ar    1  UNL1        0.0879
     23 C          -2.6262  -18.0806   19.4754 C.ar    1  UNL1        0.0076
     24 C          -1.5340  -17.0953   19.7690 C.ar    1  UNL1        0.0003
     25 C          -1.3799  -16.5366   21.1525 C.ar    1  UNL1        0.0031
     26 C          -2.3181  -16.9632   22.2423 C.ar    1  UNL1        0.0377
     27 C          -3.4103  -17.9485   21.9487 C.ar    1  UNL1        0.1515
     28 O          -4.3132  -20.9066   19.9080 O.2     1  UNL1       -0.2700
     29 C          -4.6566  -19.4925   20.2716 C.2     1  UNL1        0.2489
     30 N          -6.0923  -19.0636   20.3416 N.am    1  UNL1       -0.2984
     31 H          -6.3177  -18.1355   20.5802 H       1  UNL1        0.1498
     32 C          -7.1845  -20.0489   20.0480 C.3     1  UNL1        0.1215
     33 C          -8.3323  -19.6555   19.1660 C.3     1  UNL1        0.1583
     34 O          -9.7134  -19.5395   19.7396 O.3     1  UNL1       -0.3802
     35 H         -10.0199  -20.4147   20.0242 H       1  UNL1        0.2105
@<TRIPOS>BOND
     1    28    29    2
     2    29    30   am
     3    30    32    1
     4    32    33    1
     5    33    34    1
     6    29    22    1
     7    22    23   ar
     8    23    24   ar
     9    24    25   ar
    10    25    26   ar
    11    26    27   ar
    12    27    21    1
    13    21     1    1
    14     1     2   ar
    15     2     3   ar
    16     3     4   ar
    17     4     5    1
    18     4     6   ar
    19     6     7   ar
    20     7     8    1
    21     8    10    1
    22    10    11    2
    23    10    12    2
    24    10    13    1
    25    13    14   ar
    26    14    15   ar
    27    15    16   ar
    28    16    17    1
    29    16    18   ar
    30    18    19    1
    31    18    20   ar
    32    27    22   ar
    33     7     1   ar
    34    20    13   ar
    35    30    31    1
    36    34    35    1
    37     8     9    1
@<TRIPOS>MOLECULE
*****
 35 37 0 0 0
SMALL
GASTEIGER

@<TRIPOS>ATOM
      1 C          -8.8410  -19.4022   21.6648 C.ar    1  UNL1        0.2445
      2 N         -10.1069  -19.1319   20.9068 N.ar    1  UNL1       -0.2078
      3 C         -10.2274  -19.5553   19.4728 C.ar    1  UNL1        0.1135
      4 C          -9.0820  -20.2489   18.7968 C.ar    1  UNL1        0.0783
      5 CL         -9.2026  -20.6723   17.3629 Cl      1  UNL1       -0.0806
      6 C          -7.8162  -20.5192   19.5547 C.ar    1  UNL1        0.0336
      7 C          -7.6956  -20.0959   20.9888 C.ar    1  UNL1        0.1190
      8 N          -6.4298  -20.3662   21.7467 N.pl3   1  UNL1       -0.2104
      9 H          -6.4075  -21.0729   22.4317 H       1  UNL1        0.1739
     10 S          -5.1977  -19.5597   21.4609 S.O2    1  UNL1        0.0737
     11 O          -4.7327  -19.7704   22.8714 O.2     1  UNL1       -0.1499
     12 O          -5.6628  -19.3489   20.0505 O.2     1  UNL1       -0.1499
     13 C          -3.9657  -18.7532   21.1752 C.ar    1  UNL1        0.1261
     14 C          -3.2790  -18.0140   22.2851 C.ar    1  UNL1        0.0211
     15 C          -2.0470  -17.2075   21.9994 C.ar    1  UNL1        0.0136
     16 C          -1.5016  -17.1401   20.6037 C.ar    1  UNL1        0.0683
     17 CL         -0.2696  -16.3336   20.3180 Cl      1  UNL1       -0.0814
     18 C          -2.1884  -17.8793   19.4936 C.ar    1  UNL1        0.0695
     19 CL         -1.6431  -17.8119   18.0979 Cl      1  UNL1       -0.0813
     20 C          -3.4204  -18.6858   19.7794 C.ar    1  UNL1        0.0324
     21 O          -8.7204  -18.9788   23.0987 O.3     1  UNL1       -0.4349
     22 C          -9.3769  -16.5050   23.5452 C.ar    1  UNL1        0.0879
     23 C          -8.9837  -15.0970   23.8810 C.ar    1  UNL1        0.0076
     24 C          -7.5407  -14.7547   24.1060 C.ar    1  UNL1        0.0003
     25 C          -6.4910  -15.8204   23.9952 C.ar    1  UNL1        0.0031
     26 C          -6.8842  -17.2284   23.6594 C.ar    1  UNL1        0.0377
     27 C          -8.3272  -17.5707   23.4345 C.ar    1  UNL1        0.1515
     28 O         -11.6970  -15.9193   22.5332 O.2     1  UNL1       -0.2700
     29 C         -10.8199  -16.8473   23.3203 C.2     1  UNL1        0.2489
     30 N         -11.3858  -18.1176   23.8823 N.am    1  UNL1       -0.2984
     31 H         -10.8102  -18.7267   24.3989 H       1  UNL1        0.1498
     32 C         -12.8288  -18.4600   23.6574 C.3     1  UNL1        0.1215
     33 C         -13.8610  -18.0609   24.6700 C.3     1  UNL1        0.1583
     34 O         -13.9281  -18.7679   25.9912 O.3     1  UNL1       -0.3802
     35 H         -14.1874  -19.6920   25.8506 H       1  UNL1        0.2105
@<TRIPOS>BOND
     1    28    29    2
     2    29    30   am
     3    30    32    1
     4    32    33    1
     5    33    34    1
     6    29    22    1
     7    22    23   ar
     8    23    24   ar
     9    24    25   ar
    10    25    26   ar
    11    26    27   ar
    12    27    21    1
    13    21     1    1
    14     1     2   ar
    15     2     3   ar
    16     3     4   ar
    17     4     5    1
    18     4     6   ar
    19     6     7   ar
    20     7     8    1
    21     8    10    1
    22    10    11    2
    23    10    12    2
    24    10    13    1
    25    13    14   ar
    26    14    15   ar
    27    15    16   ar
    28    16    17    1
    29    16    18   ar
    30    18    19    1
    31    18    20   ar
    32    27    22   ar
    33     7     1   ar
    34    20    13   ar
    35    30    31    1
    36    34    35    1
    37     8     9    1
