@<TRIPOS>MOLECULE
*****
 45 46 0 0 0
SMALL
GASTEIGER

@<TRIPOS>ATOM
      1 C          -5.9574  -15.2675   24.3298 C.3     1  UNL1        0.1514
      2 C          -5.1383  -15.7454   25.4920 C.3     1  UNL1        0.0326
      3 C          -5.7793  -15.9314   26.8353 C.3     1  UNL1        0.0026
      4 C          -6.8182  -14.9599   27.3115 C.3     1  UNL1        0.0001
      5 C          -8.2646  -15.3567   27.3279 C.3     1  UNL1        0.0000
      6 C          -8.8650  -16.0523   26.1423 C.3     1  UNL1        0.0000
      7 C          -9.2309  -17.5044   26.2307 C.3     1  UNL1        0.0000
      8 C          -9.6464  -18.2496   24.9969 C.3     1  UNL1        0.0000
      9 C         -10.3042  -19.5923   25.1175 C.3     1  UNL1        0.0000
     10 C         -10.4817  -20.4524   23.9015 C.3     1  UNL1        0.0000
     11 C         -10.1469  -19.9099   22.5438 C.3     1  UNL1        0.0000
     12 C         -11.1151  -20.0757   21.4102 C.3     1  UNL1        0.0000
     13 C         -10.7580  -19.5802   20.0402 C.3     1  UNL1        0.0000
     14 C         -10.3828  -18.1422   19.8369 C.3     1  UNL1        0.0000
     15 C         -11.4249  -17.1469   19.4203 C.3     1  UNL1        0.0010
     16 C         -12.3582  -16.5666   20.4411 C.3     1  UNL1        0.0140
     17 C         -11.9382  -16.4806   21.8785 C.3     1  UNL1        0.0763
     18 C         -12.7597  -17.1481   22.9413 C.1     1  UNL1       -0.0832
     19 C         -13.5812  -17.8156   24.0040 C.1     1  UNL1        0.0088
     20 C         -14.4027  -18.4832   25.0668 C.3     1  UNL1        0.4589
     21 F         -15.2242  -19.1507   26.1296 F       1  UNL1       -0.1586
     22 F         -13.2172  -18.4788   25.9859 F       1  UNL1       -0.1586
     23 F         -15.5881  -18.4875   24.1477 F       1  UNL1       -0.1586
     24 O          -6.5598  -16.2588   23.3788 O.3     1  UNL1       -0.2926
     25 P          -7.7006  -15.8516   22.4940 P.3     1  UNL1        0.3697
     26 O          -7.4620  -14.4137   22.8480 O.2     1  UNL1       -0.2553
     27 O          -8.8413  -15.4444   21.6092 O.3     1  UNL1       -0.3218
     28 H          -8.9418  -14.4800   21.6343 H       1  UNL1        0.2198
     29 C          -7.9392  -17.2895   22.1399 C.3     1  UNL1        0.2579
     30 O          -7.2503  -17.8938   20.9524 O.3     1  UNL1       -0.3426
     31 C          -6.8687  -20.3327   20.1423 C.3     1  UNL1        0.0342
     32 C          -6.5452  -19.2112   21.0844 C.3     1  UNL1        0.1387
     33 C          -5.5166  -19.4070   22.1585 C.3     1  UNL1        0.1384
     34 N          -4.1851  -18.7240   22.0554 N.ar    1  UNL1       -0.2918
     35 C          -3.4346  -18.0805   23.1835 C.ar    1  UNL1        0.1798
     36 N          -2.1560  -17.5233   22.6313 N.ar    1  UNL1       -0.2195
     37 C          -2.1164  -17.8225   21.1619 C.ar    1  UNL1        0.1481
     38 C          -1.1004  -17.5150   20.1021 C.ar    1  UNL1        0.1480
     39 N           0.1537  -16.7730   20.4581 N.pl3   1  UNL1       -0.3413
     40 N          -1.3385  -17.9497   18.6864 N.ar    1  UNL1       -0.2078
     41 C          -2.5926  -18.6917   18.3305 C.ar    1  UNL1        0.2015
     42 N          -3.6085  -18.9992   19.3903 N.ar    1  UNL1       -0.2048
     43 C          -3.3704  -18.5645   20.8060 C.ar    1  UNL1        0.1674
     44 H           0.3099  -16.4877   21.3873 H       1  UNL1        0.1438
     45 H           0.8205  -16.5712   19.7624 H       1  UNL1        0.1438
@<TRIPOS>BOND
     1    32    31    1
     2    32    33    1
     3    33    34    1
     4    34    35   ar
     5    35    36   ar
     6    36    37   ar
     7    37    38   ar
     8    38    39    1
     9    38    40   ar
    10    40    41   ar
    11    41    42   ar
    12    42    43   ar
    13    32    30    1
    14    30    29    1
    15    29    25    1
    16    25    26    2
    17    25    27    1
    18    25    24    1
    19    24     1    1
    20     1     2    1
    21     2     3    1
    22     3     4    1
    23     4     5    1
    24     5     6    1
    25     6     7    1
    26     7     8    1
    27     8     9    1
    28     9    10    1
    29    10    11    1
    30    11    12    1
    31    12    13    1
    32    13    14    1
    33    14    15    1
    34    15    16    1
    35    16    17    1
    36    17    18    1
    37    18    19    3
    38    19    20    1
    39    20    21    1
    40    20    22    1
    41    20    23    1
    42    43    34   ar
    43    43    37   ar
    44    39    44    1
    45    39    45    1
    46    27    28    1
@<TRIPOS>MOLECULE
*****
 45 46 0 0 0
SMALL
GASTEIGER

@<TRIPOS>ATOM
      1 C          -5.8709  -15.8283   26.6803 C.3     1  UNL1        0.1514
      2 C          -6.8220  -16.4688   27.6473 C.3     1  UNL1        0.0326
      3 C          -8.3018  -16.3094   27.4607 C.3     1  UNL1        0.0026
      4 C          -8.8387  -15.1429   26.6855 C.3     1  UNL1        0.0001
      5 C          -8.7570  -15.1361   25.1878 C.3     1  UNL1        0.0000
      6 C          -9.7637  -15.8986   24.3783 C.3     1  UNL1        0.0000
      7 C          -9.5648  -17.3629   24.1204 C.3     1  UNL1        0.0000
      8 C          -9.9965  -18.3703   25.1445 C.3     1  UNL1        0.0000
      9 C          -9.7100  -19.8270   24.9309 C.3     1  UNL1        0.0000
     10 C         -10.0345  -20.4703   23.6153 C.3     1  UNL1        0.0000
     11 C         -11.0906  -19.8770   22.7306 C.3     1  UNL1        0.0000
     12 C         -11.2816  -20.3985   21.3372 C.3     1  UNL1        0.0000
     13 C         -10.3469  -19.9751   20.2431 C.3     1  UNL1        0.0000
     14 C         -10.7081  -18.8239   19.3519 C.3     1  UNL1        0.0000
     15 C         -10.7896  -17.4361   19.9152 C.3     1  UNL1        0.0010
     16 C         -12.1131  -16.8794   20.3494 C.3     1  UNL1        0.0140
     17 C         -12.2555  -16.2548   21.7057 C.3     1  UNL1        0.0763
     18 C         -12.9773  -16.9880   22.7971 C.1     1  UNL1       -0.0832
     19 C         -13.6992  -17.7213   23.8886 C.1     1  UNL1        0.0088
     20 C         -14.4210  -18.4545   24.9800 C.3     1  UNL1        0.4589
     21 F         -15.1428  -19.1878   26.0715 F       1  UNL1       -0.1586
     22 F         -13.2030  -18.3582   25.8502 F       1  UNL1       -0.1586
     23 F         -15.6390  -18.5508   24.1098 F       1  UNL1       -0.1586
     24 O          -5.7848  -16.3298   25.2693 O.3     1  UNL1       -0.2926
     25 P          -5.4266  -15.3872   24.1588 P.3     1  UNL1        0.3697
     26 O          -4.7203  -14.4995   25.1401 O.2     1  UNL1       -0.2553
     27 O          -5.0683  -14.4446   23.0483 O.3     1  UNL1       -0.3218
     28 H          -4.5605  -13.7002   23.4072 H       1  UNL1        0.2198
     29 C          -6.1328  -16.2750   23.1774 C.3     1  UNL1        0.2579
     30 O          -6.3457  -17.7251   23.4961 O.3     1  UNL1       -0.3426
     31 C          -7.6421  -18.7153   21.4739 C.3     1  UNL1        0.0342
     32 C          -6.4518  -18.7291   22.3867 C.3     1  UNL1        0.1387
     33 C          -5.3676  -19.7470   22.1900 C.3     1  UNL1        0.1384
     34 N          -4.3258  -19.5380   21.1313 N.ar    1  UNL1       -0.2918
     35 C          -4.1226  -20.3903   19.9138 C.ar    1  UNL1        0.1798
     36 N          -2.9755  -19.8191   19.1343 N.ar    1  UNL1       -0.2195
     37 C          -2.4696  -18.6137   19.8700 C.ar    1  UNL1        0.1481
     38 C          -1.3569  -17.6519   19.5755 C.ar    1  UNL1        0.1480
     39 N          -0.5224  -17.8256   18.3412 N.pl3   1  UNL1       -0.3413
     40 N          -1.0788  -16.5164   20.5152 N.ar    1  UNL1       -0.2078
     41 C          -1.9133  -16.3427   21.7495 C.ar    1  UNL1        0.2015
     42 N          -3.0260  -17.3045   22.0440 N.ar    1  UNL1       -0.2048
     43 C          -3.3042  -18.4400   21.1042 C.ar    1  UNL1        0.1674
     44 H          -0.7050  -18.5709   17.7244 H       1  UNL1        0.1438
     45 H           0.2079  -17.1943   18.1479 H       1  UNL1        0.1438
@<TRIPOS>BOND
     1    32    31    1
     2    32    33    1
     3    33    34    1
     4    34    35   ar
     5    35    36   ar
     6    36    37   ar
     7    37    38   ar
     8    38    39    1
     9    38    40   ar
    10    40    41   ar
    11    41    42   ar
    12    42    43   ar
    13    32    30    1
    14    30    29    1
    15    29    25    1
    16    25    26    2
    17    25    27    1
    18    25    24    1
    19    24     1    1
    20     1     2    1
    21     2     3    1
    22     3     4    1
    23     4     5    1
    24     5     6    1
    25     6     7    1
    26     7     8    1
    27     8     9    1
    28     9    10    1
    29    10    11    1
    30    11    12    1
    31    12    13    1
    32    13    14    1
    33    14    15    1
    34    15    16    1
    35    16    17    1
    36    17    18    1
    37    18    19    3
    38    19    20    1
    39    20    21    1
    40    20    22    1
    41    20    23    1
    42    43    34   ar
    43    43    37   ar
    44    39    44    1
    45    39    45    1
    46    27    28    1
@<TRIPOS>MOLECULE
*****
 45 46 0 0 0
SMALL
GASTEIGER

@<TRIPOS>ATOM
      1 C         -12.4621  -16.6132   22.3454 C.3     1  UNL1        0.1514
      2 C         -13.3076  -17.5284   23.1806 C.3     1  UNL1        0.0326
      3 C         -12.6579  -18.5549   24.0605 C.3     1  UNL1        0.0026
      4 C         -11.2205  -18.9257   23.8450 C.3     1  UNL1        0.0001
      5 C         -10.8665  -20.0448   22.9112 C.3     1  UNL1        0.0000
      6 C         -11.1368  -19.9096   21.4419 C.3     1  UNL1        0.0000
      7 C         -10.2015  -20.5306   20.4470 C.3     1  UNL1        0.0000
      8 C          -9.7312  -19.7379   19.2636 C.3     1  UNL1        0.0000
      9 C          -8.2755  -19.7213   18.9025 C.3     1  UNL1        0.0000
     10 C          -7.4039  -20.8926   19.2465 C.3     1  UNL1        0.0000
     11 C          -6.3710  -20.7671   20.3269 C.3     1  UNL1        0.0000
     12 C          -4.9131  -20.8513   19.9840 C.3     1  UNL1        0.0000
     13 C          -3.9226  -19.9826   20.7011 C.3     1  UNL1        0.0000
     14 C          -4.0200  -19.8030   22.1871 C.3     1  UNL1        0.0000
     15 C          -4.3603  -18.4589   22.7595 C.3     1  UNL1        0.0010
     16 C          -3.2943  -17.6305   23.4133 C.3     1  UNL1        0.0140
     17 C          -2.5157  -16.6359   22.6044 C.3     1  UNL1        0.0763
     18 C          -2.2096  -16.9166   21.1631 C.1     1  UNL1       -0.0832
     19 C          -1.9034  -17.1973   19.7217 C.1     1  UNL1        0.0088
     20 C          -1.5973  -17.4780   18.2804 C.3     1  UNL1        0.4589
     21 F          -1.2911  -17.7587   16.8391 F       1  UNL1       -0.1586
     22 F          -2.9151  -16.8810   17.8842 F       1  UNL1       -0.1586
     23 F          -0.2795  -18.0749   18.6766 F       1  UNL1       -0.1586
     24 O         -12.6162  -16.6031   20.8534 O.3     1  UNL1       -0.2926
     25 P         -11.6366  -15.8498   20.0033 P.3     1  UNL1        0.3697
     26 O         -12.6939  -15.6554   18.9572 O.2     1  UNL1       -0.2553
     27 O         -10.6569  -15.0964   19.1531 O.3     1  UNL1       -0.3218
     28 H         -11.0904  -14.8155   18.3321 H       1  UNL1        0.2198
     29 C         -10.5793  -16.0442   21.0494 C.3     1  UNL1        0.2579
     30 O          -9.5625  -17.1360   20.8943 O.3     1  UNL1       -0.3426
     31 C          -7.6752  -18.3973   22.1580 C.3     1  UNL1        0.0342
     32 C          -8.3048  -17.1112   21.7113 C.3     1  UNL1        0.1387
     33 C          -7.6766  -15.8003   22.0816 C.3     1  UNL1        0.1384
     34 N          -7.1175  -15.5990   23.4588 N.ar    1  UNL1       -0.2918
     35 C          -5.8423  -14.8853   23.7971 C.ar    1  UNL1        0.1798
     36 N          -5.6722  -14.9213   25.2870 N.ar    1  UNL1       -0.2195
     37 C          -6.8423  -15.6573   25.8695 C.ar    1  UNL1        0.1481
     38 C          -7.2097  -16.0001   27.2828 C.ar    1  UNL1        0.1480
     39 N          -6.3164  -15.5812   28.4127 N.pl3   1  UNL1       -0.3413
     40 N          -8.4704  -16.7618   27.5662 N.ar    1  UNL1       -0.2078
     41 C          -9.3637  -17.1806   26.4363 C.ar    1  UNL1        0.2015
     42 N          -8.9963  -16.8378   25.0230 N.ar    1  UNL1       -0.2048
     43 C          -7.7356  -16.0761   24.7396 C.ar    1  UNL1        0.1674
     44 H          -5.4890  -15.0813   28.2266 H       1  UNL1        0.1438
     45 H          -6.5576  -15.8063   29.3403 H       1  UNL1        0.1438
@<TRIPOS>BOND
     1    32    31    1
     2    32    33    1
     3    33    34    1
     4    34    35   ar
     5    35    36   ar
     6    36    37   ar
     7    37    38   ar
     8    38    39    1
     9    38    40   ar
    10    40    41   ar
    11    41    42   ar
    12    42    43   ar
    13    32    30    1
    14    30    29    1
    15    29    25    1
    16    25    26    2
    17    25    27    1
    18    25    24    1
    19    24     1    1
    20     1     2    1
    21     2     3    1
    22     3     4    1
    23     4     5    1
    24     5     6    1
    25     6     7    1
    26     7     8    1
    27     8     9    1
    28     9    10    1
    29    10    11    1
    30    11    12    1
    31    12    13    1
    32    13    14    1
    33    14    15    1
    34    15    16    1
    35    16    17    1
    36    17    18    1
    37    18    19    3
    38    19    20    1
    39    20    21    1
    40    20    22    1
    41    20    23    1
    42    43    34   ar
    43    43    37   ar
    44    39    44    1
    45    39    45    1
    46    27    28    1
@<TRIPOS>MOLECULE
*****
 45 46 0 0 0
SMALL
GASTEIGER

@<TRIPOS>ATOM
      1 C          -5.8777  -15.3978   26.5882 C.3     1  UNL1        0.1514
      2 C          -6.8698  -15.8772   27.6061 C.3     1  UNL1        0.0326
      3 C          -8.3327  -15.6085   27.4120 C.3     1  UNL1        0.0026
      4 C          -8.8745  -15.3669   26.0343 C.3     1  UNL1        0.0001
      5 C          -9.1412  -16.5253   25.1194 C.3     1  UNL1        0.0000
      6 C          -9.9432  -16.3235   23.8680 C.3     1  UNL1        0.0000
      7 C          -9.3855  -15.5013   22.7441 C.3     1  UNL1        0.0000
      8 C          -9.5359  -15.9684   21.3267 C.3     1  UNL1        0.0000
      9 C         -10.8260  -15.7427   20.5955 C.3     1  UNL1        0.0000
     10 C         -12.1331  -15.9004   21.3143 C.3     1  UNL1        0.0000
     11 C         -12.9936  -17.1005   21.0513 C.3     1  UNL1        0.0000
     12 C         -12.4279  -18.4798   21.2165 C.3     1  UNL1        0.0000
     13 C         -11.2692  -18.9213   20.3723 C.3     1  UNL1        0.0000
     14 C         -10.1367  -19.6843   20.9930 C.3     1  UNL1        0.0000
     15 C         -10.3459  -20.4189   22.2840 C.3     1  UNL1        0.0010
     16 C          -9.4652  -20.1288   23.4631 C.3     1  UNL1        0.0140
     17 C         -10.0749  -19.7373   24.7764 C.3     1  UNL1        0.0763
     18 C         -11.5140  -19.3191   24.8403 C.1     1  UNL1       -0.0832
     19 C         -12.9531  -18.9010   24.9042 C.1     1  UNL1        0.0088
     20 C         -14.3922  -18.4829   24.9680 C.3     1  UNL1        0.4589
     21 F         -15.8314  -18.0647   25.0319 F       1  UNL1       -0.1586
     22 F         -14.4323  -18.3921   23.4713 F       1  UNL1       -0.1586
     23 F         -14.3522  -18.5736   26.4647 F       1  UNL1       -0.1586
     24 O          -5.7679  -16.0918   25.2630 O.3     1  UNL1       -0.2926
     25 P          -5.3629  -15.3190   24.0429 P.3     1  UNL1        0.3697
     26 O          -4.4409  -14.4820   24.8791 O.2     1  UNL1       -0.2553
     27 O          -4.9580  -14.5462   22.8228 O.3     1  UNL1       -0.3218
     28 H          -4.3085  -13.8693   23.0696 H       1  UNL1        0.2198
     29 C          -6.2850  -16.1560   23.2067 C.3     1  UNL1        0.2579
     30 O          -6.3310  -17.6427   23.4002 O.3     1  UNL1       -0.3426
     31 C          -7.4675  -18.3738   21.1812 C.3     1  UNL1        0.0342
     32 C          -6.3899  -18.5527   22.2093 C.3     1  UNL1        0.1387
     33 C          -5.3712  -19.6417   22.0463 C.3     1  UNL1        0.1384
     34 N          -4.2388  -19.4705   21.0777 N.ar    1  UNL1       -0.2918
     35 C          -3.9193  -20.3765   19.9257 C.ar    1  UNL1        0.1798
     36 N          -2.7100  -19.8291   19.2270 N.ar    1  UNL1       -0.2195
     37 C          -2.2822  -18.5848   19.9472 C.ar    1  UNL1        0.1481
     38 C          -1.1543  -17.6250   19.7093 C.ar    1  UNL1        0.1480
     39 N          -0.2095  -17.8466   18.5655 N.pl3   1  UNL1       -0.3413
     40 N          -0.9713  -16.4435   20.6151 N.ar    1  UNL1       -0.2078
     41 C          -1.9161  -16.2219   21.7589 C.ar    1  UNL1        0.2015
     42 N          -3.0440  -17.1817   21.9968 N.ar    1  UNL1       -0.2048
     43 C          -3.2270  -18.3632   21.0910 C.ar    1  UNL1        0.1674
     44 H          -0.3297  -18.6221   17.9710 H       1  UNL1        0.1438
     45 H           0.5307  -17.2166   18.4094 H       1  UNL1        0.1438
@<TRIPOS>BOND
     1    32    31    1
     2    32    33    1
     3    33    34    1
     4    34    35   ar
     5    35    36   ar
     6    36    37   ar
     7    37    38   ar
     8    38    39    1
     9    38    40   ar
    10    40    41   ar
    11    41    42   ar
    12    42    43   ar
    13    32    30    1
    14    30    29    1
    15    29    25    1
    16    25    26    2
    17    25    27    1
    18    25    24    1
    19    24     1    1
    20     1     2    1
    21     2     3    1
    22     3     4    1
    23     4     5    1
    24     5     6    1
    25     6     7    1
    26     7     8    1
    27     8     9    1
    28     9    10    1
    29    10    11    1
    30    11    12    1
    31    12    13    1
    32    13    14    1
    33    14    15    1
    34    15    16    1
    35    16    17    1
    36    17    18    1
    37    18    19    3
    38    19    20    1
    39    20    21    1
    40    20    22    1
    41    20    23    1
    42    43    34   ar
    43    43    37   ar
    44    39    44    1
    45    39    45    1
    46    27    28    1
@<TRIPOS>MOLECULE
*****
 45 46 0 0 0
SMALL
GASTEIGER

@<TRIPOS>ATOM
      1 C         -12.5038  -16.5044   22.2802 C.3     1  UNL1        0.1514
      2 C         -13.2054  -17.5361   23.1128 C.3     1  UNL1        0.0326
      3 C         -12.4088  -18.5558   23.8716 C.3     1  UNL1        0.0026
      4 C         -11.0889  -19.0263   23.3364 C.3     1  UNL1        0.0001
      5 C         -11.0448  -20.0759   22.2657 C.3     1  UNL1        0.0000
      6 C         -10.9759  -19.6727   20.8225 C.3     1  UNL1        0.0000
      7 C         -10.0772  -20.4151   19.8784 C.3     1  UNL1        0.0000
      8 C          -9.1262  -19.6597   18.9981 C.3     1  UNL1        0.0000
      9 C          -7.6509  -19.7197   19.2624 C.3     1  UNL1        0.0000
     10 C          -7.0196  -21.0070   19.7033 C.3     1  UNL1        0.0000
     11 C          -5.6204  -21.0095   20.2440 C.3     1  UNL1        0.0000
     12 C          -4.9299  -19.7121   20.5439 C.3     1  UNL1        0.0000
     13 C          -4.2979  -18.9249   19.4345 C.3     1  UNL1        0.0000
     14 C          -2.8594  -19.1545   19.0770 C.3     1  UNL1        0.0000
     15 C          -2.0613  -18.0575   18.4370 C.3     1  UNL1        0.0010
     16 C          -0.6569  -17.7891   18.8905 C.3     1  UNL1        0.0140
     17 C          -0.3963  -17.3376   20.2970 C.3     1  UNL1        0.0763
     18 C          -1.5003  -17.3700   21.3119 C.1     1  UNL1       -0.0832
     19 C          -2.6043  -17.4025   22.3269 C.1     1  UNL1        0.0088
     20 C          -3.7083  -17.4349   23.3418 C.3     1  UNL1        0.4589
     21 F          -4.8123  -17.4673   24.3567 F       1  UNL1       -0.1586
     22 F          -3.6503  -18.9337   23.3570 F       1  UNL1       -0.1586
     23 F          -3.7662  -15.9361   23.3266 F       1  UNL1       -0.1586
     24 O         -12.6678  -16.5056   20.7892 O.3     1  UNL1       -0.2926
     25 P         -11.6736  -15.7886   19.9247 P.3     1  UNL1        0.3697
     26 O         -12.7151  -15.6325   18.8565 O.2     1  UNL1       -0.2553
     27 O         -10.6795  -15.0716   19.0601 O.3     1  UNL1       -0.3218
     28 H         -11.1001  -14.8219   18.2225 H       1  UNL1        0.2198
     29 C         -10.6322  -15.9448   20.9928 C.3     1  UNL1        0.2579
     30 O          -9.5666  -16.9913   20.8541 O.3     1  UNL1       -0.3426
     31 C          -7.6488  -18.1928   22.1303 C.3     1  UNL1        0.0342
     32 C          -8.3367  -16.9277   21.7105 C.3     1  UNL1        0.1387
     33 C          -7.7948  -15.5988   22.1470 C.3     1  UNL1        0.1384
     34 N          -7.2789  -15.4216   23.5444 N.ar    1  UNL1       -0.2918
     35 C          -6.0876  -14.6041   23.9474 C.ar    1  UNL1        0.1798
     36 N          -5.9363  -14.7081   25.4361 N.ar    1  UNL1       -0.2195
     37 C          -7.0341  -15.5900   25.9532 C.ar    1  UNL1        0.1481
     38 C          -7.3853  -16.0483   27.3375 C.ar    1  UNL1        0.1480
     39 N          -6.5555  -15.6074   28.5067 N.pl3   1  UNL1       -0.3413
     40 N          -8.5663  -16.9477   27.5527 N.ar    1  UNL1       -0.2078
     41 C          -9.3961  -17.3887   26.3835 C.ar    1  UNL1        0.2015
     42 N          -9.0449  -16.9303   24.9992 N.ar    1  UNL1       -0.2048
     43 C          -7.8639  -16.0309   24.7840 C.ar    1  UNL1        0.1674
     44 H          -5.7803  -15.0171   28.3655 H       1  UNL1        0.1438
     45 H          -6.7860  -15.9082   29.4153 H       1  UNL1        0.1438
@<TRIPOS>BOND
     1    32    31    1
     2    32    33    1
     3    33    34    1
     4    34    35   ar
     5    35    36   ar
     6    36    37   ar
     7    37    38   ar
     8    38    39    1
     9    38    40   ar
    10    40    41   ar
    11    41    42   ar
    12    42    43   ar
    13    32    30    1
    14    30    29    1
    15    29    25    1
    16    25    26    2
    17    25    27    1
    18    25    24    1
    19    24     1    1
    20     1     2    1
    21     2     3    1
    22     3     4    1
    23     4     5    1
    24     5     6    1
    25     6     7    1
    26     7     8    1
    27     8     9    1
    28     9    10    1
    29    10    11    1
    30    11    12    1
    31    12    13    1
    32    13    14    1
    33    14    15    1
    34    15    16    1
    35    16    17    1
    36    17    18    1
    37    18    19    3
    38    19    20    1
    39    20    21    1
    40    20    22    1
    41    20    23    1
    42    43    34   ar
    43    43    37   ar
    44    39    44    1
    45    39    45    1
    46    27    28    1
@<TRIPOS>MOLECULE
*****
 45 46 0 0 0
SMALL
GASTEIGER

@<TRIPOS>ATOM
      1 C           3.5885   -1.3704   27.0955 C.3     1  UNL1        0.1514
      2 C           3.9975   -1.1559   25.6684 C.3     1  UNL1        0.0326
      3 C           5.0112   -0.1037   25.3288 C.3     1  UNL1        0.0026
      4 C           6.3016   -0.4907   24.6692 C.3     1  UNL1        0.0001
      5 C           6.5237   -0.1836   23.2179 C.3     1  UNL1        0.0000
      6 C           5.3501    0.0152   22.3051 C.3     1  UNL1        0.0000
      7 C           4.7790   -1.1502   21.5529 C.3     1  UNL1        0.0000
      8 C           4.0841   -2.2536   22.2943 C.3     1  UNL1        0.0000
      9 C           4.7333   -3.6003   22.4162 C.3     1  UNL1        0.0000
     10 C           5.9167   -3.7835   23.3195 C.3     1  UNL1        0.0000
     11 C           7.2251   -4.2529   22.7557 C.3     1  UNL1        0.0000
     12 C           7.4632   -4.2078   21.2754 C.3     1  UNL1        0.0000
     13 C           8.5854   -3.3814   20.7210 C.3     1  UNL1        0.0000
     14 C           8.5461   -1.8867   20.8403 C.3     1  UNL1        0.0000
     15 C           8.6687   -1.0329   19.6131 C.3     1  UNL1        0.0010
     16 C           7.4428   -0.6610   18.8327 C.3     1  UNL1        0.0140
     17 C           6.8629   -1.6264   17.8420 C.3     1  UNL1        0.0763
     18 C           5.8251   -2.6172   18.2793 C.1     1  UNL1       -0.0832
     19 C           4.7872   -3.6079   18.7166 C.1     1  UNL1        0.0088
     20 C           3.7494   -4.5987   19.1540 C.3     1  UNL1        0.4589
     21 F           2.7115   -5.5894   19.5913 F       1  UNL1       -0.1586
     22 F           2.7914   -3.4763   19.4233 F       1  UNL1       -0.1586
     23 F           4.7073   -5.7210   18.8846 F       1  UNL1       -0.1586
     24 O           3.1974   -0.1996   27.9477 O.3     1  UNL1       -0.2926
     25 P           2.3182   -0.4044   29.1457 P.3     1  UNL1        0.3697
     26 O           1.1082   -0.1189   28.3065 O.2     1  UNL1       -0.2553
     27 O           1.4391   -0.6091   30.3437 O.3     1  UNL1       -0.3218
     28 H           0.5119   -0.4792   30.0903 H       1  UNL1        0.2198
     29 C           3.5283   -0.6898   29.9849 C.3     1  UNL1        0.2579
     30 O           3.3776   -1.3797   31.3082 O.3     1  UNL1       -0.3426
     31 C           4.4085   -1.5433   33.6874 C.3     1  UNL1        0.0342
     32 C           4.5716   -1.5676   32.1965 C.3     1  UNL1        0.1387
     33 C           5.9288   -1.7796   31.5938 C.3     1  UNL1        0.1384
     34 N           6.3268   -3.1397   31.1018 N.ar    1  UNL1       -0.2918
     35 C           6.5949   -4.3428   31.9565 C.ar    1  UNL1        0.1798
     36 N           6.9603   -5.4820   31.0517 N.ar    1  UNL1       -0.2195
     37 C           6.9180   -4.9829   29.6378 C.ar    1  UNL1        0.1481
     38 C           7.1854   -5.6596   28.3261 C.ar    1  UNL1        0.1480
     39 N           7.5770   -7.1073   28.2951 N.pl3   1  UNL1       -0.3413
     40 N           7.0613   -4.8887   27.0454 N.ar    1  UNL1       -0.2078
     41 C           6.6697   -3.4410   27.0764 C.ar    1  UNL1        0.2015
     42 N           6.4023   -2.7643   28.3881 N.ar    1  UNL1       -0.2048
     43 C           6.5264   -3.5353   29.6687 C.ar    1  UNL1        0.1674
     44 H           7.6584   -7.6133   29.1357 H       1  UNL1        0.1438
     45 H           7.7525   -7.5515   27.4342 H       1  UNL1        0.1438
@<TRIPOS>BOND
     1    32    31    1
     2    32    33    1
     3    33    34    1
     4    34    35   ar
     5    35    36   ar
     6    36    37   ar
     7    37    38   ar
     8    38    39    1
     9    38    40   ar
    10    40    41   ar
    11    41    42   ar
    12    42    43   ar
    13    32    30    1
    14    30    29    1
    15    29    25    1
    16    25    26    2
    17    25    27    1
    18    25    24    1
    19    24     1    1
    20     1     2    1
    21     2     3    1
    22     3     4    1
    23     4     5    1
    24     5     6    1
    25     6     7    1
    26     7     8    1
    27     8     9    1
    28     9    10    1
    29    10    11    1
    30    11    12    1
    31    12    13    1
    32    13    14    1
    33    14    15    1
    34    15    16    1
    35    16    17    1
    36    17    18    1
    37    18    19    3
    38    19    20    1
    39    20    21    1
    40    20    22    1
    41    20    23    1
    42    43    34   ar
    43    43    37   ar
    44    39    44    1
    45    39    45    1
    46    27    28    1
@<TRIPOS>MOLECULE
*****
 45 46 0 0 0
SMALL
GASTEIGER

@<TRIPOS>ATOM
      1 C           6.5590   -4.2426   28.7474 C.3     1  UNL1        0.1514
      2 C           7.2165   -4.5699   27.4396 C.3     1  UNL1        0.0326
      3 C           6.9177   -5.8705   26.7547 C.3     1  UNL1        0.0026
      4 C           7.9192   -6.9865   26.7944 C.3     1  UNL1        0.0001
      5 C           8.0604   -7.9097   25.6207 C.3     1  UNL1        0.0000
      6 C           9.0477   -7.5976   24.5354 C.3     1  UNL1        0.0000
      7 C           8.5813   -6.9716   23.2545 C.3     1  UNL1        0.0000
      8 C           8.6177   -5.4810   23.0914 C.3     1  UNL1        0.0000
      9 C           7.4805   -4.6433   23.5963 C.3     1  UNL1        0.0000
     10 C           6.6331   -3.8686   22.6310 C.3     1  UNL1        0.0000
     11 C           5.1417   -3.8492   22.7903 C.3     1  UNL1        0.0000
     12 C           4.4323   -2.5538   23.0522 C.3     1  UNL1        0.0000
     13 C           5.1798   -1.2568   22.9578 C.3     1  UNL1        0.0000
     14 C           4.4656   -0.0088   22.5308 C.3     1  UNL1        0.0000
     15 C           2.9898    0.1272   22.7622 C.3     1  UNL1        0.0010
     16 C           2.0299   -0.0917   21.6305 C.3     1  UNL1        0.0140
     17 C           2.5478   -0.3313   20.2434 C.3     1  UNL1        0.0763
     18 C           3.0783   -1.6820   19.8637 C.1     1  UNL1       -0.0832
     19 C           3.6087   -3.0327   19.4840 C.1     1  UNL1        0.0088
     20 C           4.1392   -4.3835   19.1044 C.3     1  UNL1        0.4589
     21 F           4.6696   -5.7342   18.7247 F       1  UNL1       -0.1586
     22 F           2.7464   -4.8411   18.7868 F       1  UNL1       -0.1586
     23 F           5.5319   -3.9258   19.4220 F       1  UNL1       -0.1586
     24 O           7.3864   -4.1165   29.9922 O.3     1  UNL1       -0.2926
     25 P           6.9849   -4.8503   31.2373 P.3     1  UNL1        0.3697
     26 O           6.9722   -6.1407   30.4726 O.2     1  UNL1       -0.2553
     27 O           6.5833   -5.5841   32.4823 O.3     1  UNL1       -0.3218
     28 H           6.4891   -6.5291   32.2846 H       1  UNL1        0.2198
     29 C           6.9975   -3.5599   32.0019 C.3     1  UNL1        0.2579
     30 O           5.8491   -2.6030   31.8773 O.3     1  UNL1       -0.3426
     31 C           6.4645   -0.1757   32.5697 C.3     1  UNL1        0.0342
     32 C           6.1023   -1.1714   31.5080 C.3     1  UNL1        0.1387
     33 C           5.9933   -0.7356   30.0767 C.3     1  UNL1        0.1384
     34 N           4.6654   -0.7737   29.3802 N.ar    1  UNL1       -0.2918
     35 C           4.3677   -1.4736   28.0873 C.ar    1  UNL1        0.1798
     36 N           2.9204   -1.2511   27.7623 N.ar    1  UNL1       -0.2195
     37 C           2.3235   -0.4136   28.8543 C.ar    1  UNL1        0.1481
     38 C           0.9373    0.1184   29.0674 C.ar    1  UNL1        0.1480
     39 N          -0.1411   -0.1766   28.0675 N.pl3   1  UNL1       -0.3413
     40 N           0.6297    0.9455   30.2803 N.ar    1  UNL1       -0.2078
     41 C           1.7082    1.2405   31.2802 C.ar    1  UNL1        0.2015
     42 N           3.0943    0.7085   31.0672 N.ar    1  UNL1       -0.2048
     43 C           3.4020   -0.1186   29.8542 C.ar    1  UNL1        0.1674
     44 H           0.0608   -0.7195   27.2714 H       1  UNL1        0.1438
     45 H          -1.0510    0.1726   28.2073 H       1  UNL1        0.1438
@<TRIPOS>BOND
     1    32    31    1
     2    32    33    1
     3    33    34    1
     4    34    35   ar
     5    35    36   ar
     6    36    37   ar
     7    37    38   ar
     8    38    39    1
     9    38    40   ar
    10    40    41   ar
    11    41    42   ar
    12    42    43   ar
    13    32    30    1
    14    30    29    1
    15    29    25    1
    16    25    26    2
    17    25    27    1
    18    25    24    1
    19    24     1    1
    20     1     2    1
    21     2     3    1
    22     3     4    1
    23     4     5    1
    24     5     6    1
    25     6     7    1
    26     7     8    1
    27     8     9    1
    28     9    10    1
    29    10    11    1
    30    11    12    1
    31    12    13    1
    32    13    14    1
    33    14    15    1
    34    15    16    1
    35    16    17    1
    36    17    18    1
    37    18    19    3
    38    19    20    1
    39    20    21    1
    40    20    22    1
    41    20    23    1
    42    43    34   ar
    43    43    37   ar
    44    39    44    1
    45    39    45    1
    46    27    28    1
@<TRIPOS>MOLECULE
*****
 45 46 0 0 0
SMALL
GASTEIGER

@<TRIPOS>ATOM
      1 C           6.7668   -5.1046   28.6427 C.3     1  UNL1        0.1514
      2 C           7.5791   -5.7923   27.5858 C.3     1  UNL1        0.0326
      3 C           6.8932   -6.5207   26.4682 C.3     1  UNL1        0.0026
      4 C           7.6071   -7.6213   25.7408 C.3     1  UNL1        0.0001
      5 C           8.2100   -7.3611   24.3922 C.3     1  UNL1        0.0000
      6 C           8.0459   -6.0187   23.7435 C.3     1  UNL1        0.0000
      7 C           8.7501   -5.7178   22.4536 C.3     1  UNL1        0.0000
      8 C           8.1685   -4.7198   21.4967 C.3     1  UNL1        0.0000
      9 C           8.6535   -3.3004   21.5066 C.3     1  UNL1        0.0000
     10 C           7.8749   -2.2367   20.7909 C.3     1  UNL1        0.0000
     11 C           7.6902   -2.3145   19.3043 C.3     1  UNL1        0.0000
     12 C           6.3742   -1.9372   18.6913 C.3     1  UNL1        0.0000
     13 C           5.4361   -3.0052   18.2127 C.3     1  UNL1        0.0000
     14 C           4.1137   -3.2019   18.8928 C.3     1  UNL1        0.0000
     15 C           3.8989   -4.3874   19.7864 C.3     1  UNL1        0.0010
     16 C           4.4691   -4.3940   21.1737 C.3     1  UNL1        0.0140
     17 C           4.3721   -3.1665   22.0303 C.3     1  UNL1        0.0763
     18 C           5.2480   -3.0246   23.2397 C.1     1  UNL1       -0.0832
     19 C           6.1240   -2.8827   24.4490 C.1     1  UNL1        0.0088
     20 C           7.0000   -2.7408   25.6584 C.3     1  UNL1        0.4589
     21 F           7.8760   -2.5990   26.8677 F       1  UNL1       -0.1586
     22 F           5.7826   -2.6657   26.5314 F       1  UNL1       -0.1586
     23 F           8.2174   -2.8160   24.7853 F       1  UNL1       -0.1586
     24 O           7.4497   -4.4575   29.8110 O.3     1  UNL1       -0.2926
     25 P           6.9164   -4.6605   31.1982 P.3     1  UNL1        0.3697
     26 O           6.8444   -6.1388   30.9542 O.2     1  UNL1       -0.2553
     27 O           6.3830   -4.8635   32.5854 O.3     1  UNL1       -0.3218
     28 H           6.2241   -5.8085   32.7356 H       1  UNL1        0.2198
     29 C           6.9884   -3.1823   31.4422 C.3     1  UNL1        0.2579
     30 O           6.4262   -2.6024   32.7062 O.3     1  UNL1       -0.3426
     31 C           4.3649   -1.3858   33.7166 C.3     1  UNL1        0.0342
     32 C           5.4010   -1.5096   32.6390 C.3     1  UNL1        0.1387
     33 C           5.4118   -0.5403   31.4941 C.3     1  UNL1        0.1384
     34 N           4.3157   -0.5761   30.4708 N.ar    1  UNL1       -0.2918
     35 C           4.3494   -1.3196   29.1684 C.ar    1  UNL1        0.1798
     36 N           3.0480   -1.0777   28.4629 N.ar    1  UNL1       -0.2195
     37 C           2.2100   -0.1847   29.3292 C.ar    1  UNL1        0.1481
     38 C           0.8347    0.3861   29.1484 C.ar    1  UNL1        0.1480
     39 N           0.0512    0.0762   27.9074 N.pl3   1  UNL1       -0.3413
     40 N           0.2430    1.2670   30.2085 N.ar    1  UNL1       -0.2078
     41 C           1.0266    1.5769   31.4495 C.ar    1  UNL1        0.2015
     42 N           2.4018    1.0061   31.6303 N.ar    1  UNL1       -0.2048
     43 C           2.9935    0.1252   30.5701 C.ar    1  UNL1        0.1674
     44 H           0.4396   -0.5020   27.2116 H       1  UNL1        0.1438
     45 H          -0.8514    0.4509   27.7887 H       1  UNL1        0.1438
@<TRIPOS>BOND
     1    32    31    1
     2    32    33    1
     3    33    34    1
     4    34    35   ar
     5    35    36   ar
     6    36    37   ar
     7    37    38   ar
     8    38    39    1
     9    38    40   ar
    10    40    41   ar
    11    41    42   ar
    12    42    43   ar
    13    32    30    1
    14    30    29    1
    15    29    25    1
    16    25    26    2
    17    25    27    1
    18    25    24    1
    19    24     1    1
    20     1     2    1
    21     2     3    1
    22     3     4    1
    23     4     5    1
    24     5     6    1
    25     6     7    1
    26     7     8    1
    27     8     9    1
    28     9    10    1
    29    10    11    1
    30    11    12    1
    31    12    13    1
    32    13    14    1
    33    14    15    1
    34    15    16    1
    35    16    17    1
    36    17    18    1
    37    18    19    3
    38    19    20    1
    39    20    21    1
    40    20    22    1
    41    20    23    1
    42    43    34   ar
    43    43    37   ar
    44    39    44    1
    45    39    45    1
    46    27    28    1
@<TRIPOS>MOLECULE
*****
 45 46 0 0 0
SMALL
GASTEIGER

@<TRIPOS>ATOM
      1 C           6.5070   -3.6173   26.6368 C.3     1  UNL1        0.1514
      2 C           7.0769   -3.2676   25.2941 C.3     1  UNL1        0.0326
      3 C           6.2152   -2.5984   24.2648 C.3     1  UNL1        0.0026
      4 C           6.8439   -1.7683   23.1851 C.3     1  UNL1        0.0001
      5 C           7.3358   -2.4212   21.9275 C.3     1  UNL1        0.0000
      6 C           7.4942   -1.6118   20.6746 C.3     1  UNL1        0.0000
      7 C           7.0081   -0.1933   20.6316 C.3     1  UNL1        0.0000
      8 C           6.1964    0.2863   19.4650 C.3     1  UNL1        0.0000
      9 C           5.9002   -0.6424   18.3249 C.3     1  UNL1        0.0000
     10 C           4.8348   -0.2915   17.3290 C.3     1  UNL1        0.0000
     11 C           3.3879   -0.3997   17.7093 C.3     1  UNL1        0.0000
     12 C           2.6429    0.8148   18.1783 C.3     1  UNL1        0.0000
     13 C           1.2160    0.6935   18.6245 C.3     1  UNL1        0.0000
     14 C           0.8716   -0.1516   19.8150 C.3     1  UNL1        0.0000
     15 C           1.4034    0.2096   21.1702 C.3     1  UNL1        0.0010
     16 C           2.8743    0.1139   21.4486 C.3     1  UNL1        0.0140
     17 C           3.4583   -1.1682   21.9634 C.3     1  UNL1        0.0763
     18 C           3.7783   -2.2823   21.0113 C.1     1  UNL1       -0.0832
     19 C           4.0983   -3.3964   20.0593 C.1     1  UNL1        0.0088
     20 C           4.4183   -4.5104   19.1072 C.3     1  UNL1        0.4589
     21 F           4.7383   -5.6245   18.1551 F       1  UNL1       -0.1586
     22 F           3.3683   -5.3645   19.7537 F       1  UNL1       -0.1586
     23 F           5.4683   -3.6563   18.4607 F       1  UNL1       -0.1586
     24 O           7.4212   -3.9947   27.7645 O.3     1  UNL1       -0.2926
     25 P           6.9934   -5.0294   28.7627 P.3     1  UNL1        0.3697
     26 O           6.3206   -5.8057   27.6697 O.2     1  UNL1       -0.2553
     27 O           6.5656   -6.0640   29.7609 O.3     1  UNL1       -0.3218
     28 H           6.0631   -6.7603   29.3097 H       1  UNL1        0.2198
     29 C           7.6662   -4.2531   29.8557 C.3     1  UNL1        0.2579
     30 O           7.4660   -2.7698   29.9548 O.3     1  UNL1       -0.3426
     31 C           8.0967   -2.7127   32.4745 C.3     1  UNL1        0.0342
     32 C           7.3814   -2.1126   31.3005 C.3     1  UNL1        0.1387
     33 C           6.5815   -0.8553   31.4721 C.3     1  UNL1        0.1384
     34 N           5.1321   -0.8300   31.0867 N.ar    1  UNL1       -0.2918
     35 C           3.9683   -0.9692   32.0228 C.ar    1  UNL1        0.1798
     36 N           2.7090   -0.8863   31.2121 N.ar    1  UNL1       -0.2195
     37 C           3.0944   -0.6958   29.7750 C.ar    1  UNL1        0.1481
     38 C           2.2753   -0.5496   28.5270 C.ar    1  UNL1        0.1480
     39 N           0.7777   -0.5844   28.6045 N.pl3   1  UNL1       -0.3413
     40 N           2.9537   -0.3686   27.2016 N.ar    1  UNL1       -0.2078
     41 C           4.4513   -0.3338   27.1241 C.ar    1  UNL1        0.2015
     42 N           5.2705   -0.4800   28.3721 N.ar    1  UNL1       -0.2048
     43 C           4.5920   -0.6611   29.6975 C.ar    1  UNL1        0.1674
     44 H           0.3324   -0.7032   29.4745 H       1  UNL1        0.1438
     45 H           0.2400   -0.4884   27.7854 H       1  UNL1        0.1438
@<TRIPOS>BOND
     1    32    31    1
     2    32    33    1
     3    33    34    1
     4    34    35   ar
     5    35    36   ar
     6    36    37   ar
     7    37    38   ar
     8    38    39    1
     9    38    40   ar
    10    40    41   ar
    11    41    42   ar
    12    42    43   ar
    13    32    30    1
    14    30    29    1
    15    29    25    1
    16    25    26    2
    17    25    27    1
    18    25    24    1
    19    24     1    1
    20     1     2    1
    21     2     3    1
    22     3     4    1
    23     4     5    1
    24     5     6    1
    25     6     7    1
    26     7     8    1
    27     8     9    1
    28     9    10    1
    29    10    11    1
    30    11    12    1
    31    12    13    1
    32    13    14    1
    33    14    15    1
    34    15    16    1
    35    16    17    1
    36    17    18    1
    37    18    19    3
    38    19    20    1
    39    20    21    1
    40    20    22    1
    41    20    23    1
    42    43    34   ar
    43    43    37   ar
    44    39    44    1
    45    39    45    1
    46    27    28    1
