@<TRIPOS>MOLECULE
*****
 25 27 0 0 0
SMALL
GASTEIGER

@<TRIPOS>ATOM
      1 O          -6.4756  -14.5881   24.8216 O.2     1  UNL1       -0.2262
      2 C          -6.1789  -15.6945   23.8533 C.2     1  UNL1        0.4052
      3 N          -7.1775  -16.7934   23.6410 N.am    1  UNL1       -0.2460
      4 C          -6.8808  -17.8998   22.6726 C.3     1  UNL1        0.0968
      5 C          -7.8795  -18.9986   22.4603 C.3     1  UNL1        0.0234
      6 C          -9.1750  -18.9911   23.2164 C.3     1  UNL1        0.0229
      7 C          -9.4718  -17.8847   24.1848 C.3     1  UNL1        0.0234
      8 C          -8.4730  -16.7858   24.3971 C.3     1  UNL1        0.0968
      9 O          -4.8833  -15.7021   23.0972 O.3     1  UNL1       -0.4295
     10 C          -3.8158  -16.6956   23.4482 C.3     1  UNL1        0.2367
     11 C          -2.9705  -17.3016   22.3673 C.ar    1  UNL1        0.0213
     12 C          -2.0560  -16.4335   21.5550 C.ar    1  UNL1       -0.0007
     13 C          -1.2107  -17.0396   20.4742 C.ar    1  UNL1       -0.0002
     14 C          -1.2800  -18.5137   20.2057 C.ar    1  UNL1       -0.0000
     15 C          -2.1946  -19.3818   21.0180 C.ar    1  UNL1       -0.0002
     16 C          -3.0398  -18.7758   22.0988 C.ar    1  UNL1       -0.0007
     17 C         -10.1737  -20.0899   23.0041 C.3     1  UNL1        0.0871
     18 N         -11.0976  -20.0459   21.8233 N.pl3   1  UNL1       -0.3326
     19 H         -11.4378  -20.8833   21.4330 H       1  UNL1        0.1468
     20 C         -11.5031  -18.7262   21.2370 C.ar    1  UNL1        0.0478
     21 C         -10.9066  -18.2668   19.9396 C.ar    1  UNL1        0.0350
     22 C         -11.3122  -16.9469   19.3534 C.ar    1  UNL1        0.1001
     23 N         -12.3141  -16.0865   20.0645 N.ar    1  UNL1       -0.2422
     24 C         -12.9106  -16.5459   21.3619 C.ar    1  UNL1        0.1001
     25 C         -12.5051  -17.8657   21.9482 C.ar    1  UNL1        0.0350
@<TRIPOS>BOND
     1     1     2    2
     2     2     9    1
     3     9    10    1
     4    10    11    1
     5    11    12   ar
     6    12    13   ar
     7    13    14   ar
     8    14    15   ar
     9    15    16   ar
    10     2     3   am
    11     3     4    1
    12     4     5    1
    13     5     6    1
    14     6    17    1
    15    17    18    1
    16    18    20    1
    17    20    21   ar
    18    21    22   ar
    19    22    23   ar
    20    23    24   ar
    21    24    25   ar
    22     6     7    1
    23     7     8    1
    24    16    11   ar
    25     8     3    1
    26    25    20   ar
    27    18    19    1
@<TRIPOS>MOLECULE
*****
 25 27 0 0 0
SMALL
GASTEIGER

@<TRIPOS>ATOM
      1 O          -5.5004  -14.5559   25.1522 O.2     1  UNL1       -0.2262
      2 C          -5.7687  -15.6297   24.1398 C.2     1  UNL1        0.4052
      3 N          -7.0456  -16.4144   24.1992 N.am    1  UNL1       -0.2460
      4 C          -7.3139  -17.4883   23.1868 C.3     1  UNL1        0.0968
      5 C          -8.5908  -18.2730   23.2463 C.3     1  UNL1        0.0234
      6 C          -9.5996  -17.9839   24.3182 C.3     1  UNL1        0.0229
      7 C          -9.3313  -16.9101   25.3306 C.3     1  UNL1        0.0234
      8 C          -8.0543  -16.1254   25.2711 C.3     1  UNL1        0.0968
      9 O          -4.7599  -15.9188   23.0678 O.3     1  UNL1       -0.4295
     10 C          -3.6880  -16.9414   23.3028 C.3     1  UNL1        0.2367
     11 C          -2.8053  -17.3764   22.1707 C.ar    1  UNL1        0.0213
     12 C          -2.8403  -18.7989   21.6962 C.ar    1  UNL1       -0.0007
     13 C          -1.9576  -19.2338   20.5641 C.ar    1  UNL1       -0.0002
     14 C          -1.0399  -18.2462   19.9065 C.ar    1  UNL1       -0.0000
     15 C          -1.0049  -16.8237   20.3810 C.ar    1  UNL1       -0.0002
     16 C          -1.8876  -16.3887   21.5130 C.ar    1  UNL1       -0.0007
     17 C         -10.8765  -18.7687   24.3777 C.3     1  UNL1        0.0871
     18 N         -12.0767  -18.3078   23.6050 N.pl3   1  UNL1       -0.3326
     19 H         -12.9632  -18.2965   24.0331 H       1  UNL1        0.1468
     20 C         -11.9263  -17.8643   22.1800 C.ar    1  UNL1        0.0478
     21 C         -11.3845  -18.8132   21.1524 C.ar    1  UNL1        0.0350
     22 C         -11.2341  -18.3697   19.7273 C.ar    1  UNL1        0.1001
     23 N         -11.6256  -16.9773   19.3300 N.ar    1  UNL1       -0.2422
     24 C         -12.1674  -16.0284   20.3576 C.ar    1  UNL1        0.1001
     25 C         -12.3178  -16.4719   21.7826 C.ar    1  UNL1        0.0350
@<TRIPOS>BOND
     1     1     2    2
     2     2     9    1
     3     9    10    1
     4    10    11    1
     5    11    12   ar
     6    12    13   ar
     7    13    14   ar
     8    14    15   ar
     9    15    16   ar
    10     2     3   am
    11     3     4    1
    12     4     5    1
    13     5     6    1
    14     6    17    1
    15    17    18    1
    16    18    20    1
    17    20    21   ar
    18    21    22   ar
    19    22    23   ar
    20    23    24   ar
    21    24    25   ar
    22     6     7    1
    23     7     8    1
    24    16    11   ar
    25     8     3    1
    26    25    20   ar
    27    18    19    1
@<TRIPOS>MOLECULE
*****
 25 27 0 0 0
SMALL
GASTEIGER

@<TRIPOS>ATOM
      1 O          -5.2834  -14.7523   24.9756 O.2     1  UNL1       -0.2262
      2 C          -6.3477  -15.4580   24.1887 C.2     1  UNL1        0.4052
      3 N          -6.0227  -16.7265   23.4572 N.am    1  UNL1       -0.2460
      4 C          -7.0870  -17.4322   22.6702 C.3     1  UNL1        0.0968
      5 C          -6.7620  -18.7008   21.9387 C.3     1  UNL1        0.0234
      6 C          -5.3727  -19.2637   21.9941 C.3     1  UNL1        0.0229
      7 C          -4.3084  -18.5579   22.7810 C.3     1  UNL1        0.0234
      8 C          -4.6335  -17.2893   23.5126 C.3     1  UNL1        0.0968
      9 O          -7.7371  -14.8951   24.1333 O.3     1  UNL1       -0.4295
     10 C          -8.8148  -15.4709   25.0033 C.3     1  UNL1        0.2367
     11 C          -9.6196  -16.6426   24.5240 C.ar    1  UNL1        0.0213
     12 C          -9.5520  -17.9492   25.2575 C.ar    1  UNL1       -0.0007
     13 C         -10.3568  -19.1208   24.7783 C.ar    1  UNL1       -0.0002
     14 C         -11.2291  -18.9857   23.5655 C.ar    1  UNL1       -0.0000
     15 C         -11.2967  -17.6790   22.8320 C.ar    1  UNL1       -0.0002
     16 C         -10.4919  -16.5075   23.3113 C.ar    1  UNL1       -0.0007
     17 C          -5.0477  -20.5322   21.2626 C.3     1  UNL1        0.0871
     18 N          -4.2438  -20.4833   19.9971 N.pl3   1  UNL1       -0.3326
     19 H          -4.3949  -21.1534   19.2918 H       1  UNL1        0.1468
     20 C          -3.2098  -19.4136   19.8063 C.ar    1  UNL1        0.0478
     21 C          -3.4924  -18.2500   18.9030 C.ar    1  UNL1        0.0350
     22 C          -2.4582  -17.1802   18.7121 C.ar    1  UNL1        0.1001
     23 N          -1.1416  -17.2742   19.4246 N.ar    1  UNL1       -0.2422
     24 C          -0.8591  -18.4379   20.3280 C.ar    1  UNL1        0.1001
     25 C          -1.8931  -19.5076   20.5188 C.ar    1  UNL1        0.0350
@<TRIPOS>BOND
     1     1     2    2
     2     2     9    1
     3     9    10    1
     4    10    11    1
     5    11    12   ar
     6    12    13   ar
     7    13    14   ar
     8    14    15   ar
     9    15    16   ar
    10     2     3   am
    11     3     4    1
    12     4     5    1
    13     5     6    1
    14     6    17    1
    15    17    18    1
    16    18    20    1
    17    20    21   ar
    18    21    22   ar
    19    22    23   ar
    20    23    24   ar
    21    24    25   ar
    22     6     7    1
    23     7     8    1
    24    16    11   ar
    25     8     3    1
    26    25    20   ar
    27    18    19    1
@<TRIPOS>MOLECULE
*****
 25 27 0 0 0
SMALL
GASTEIGER

@<TRIPOS>ATOM
      1 O          -5.1202  -16.0237   24.2576 O.2     1  UNL1       -0.2262
      2 C          -5.0221  -17.3626   23.5884 C.2     1  UNL1        0.4052
      3 N          -6.1289  -17.8370   22.6941 N.am    1  UNL1       -0.2460
      4 C          -6.0309  -19.1759   22.0250 C.3     1  UNL1        0.0968
      5 C          -7.1377  -19.6502   21.1307 C.3     1  UNL1        0.0234
      6 C          -8.3427  -18.7857   20.9054 C.3     1  UNL1        0.0229
      7 C          -8.4408  -17.4468   21.5746 C.3     1  UNL1        0.0234
      8 C          -7.3338  -16.9725   22.4689 C.3     1  UNL1        0.0968
      9 O          -3.8171  -18.2272   23.8137 O.3     1  UNL1       -0.4295
     10 C          -2.5083  -17.8711   23.1732 C.3     1  UNL1        0.2367
     11 C          -2.3405  -17.9995   21.6881 C.ar    1  UNL1        0.0213
     12 C          -1.4843  -17.0192   20.9426 C.ar    1  UNL1       -0.0007
     13 C          -1.3165  -17.1477   19.4576 C.ar    1  UNL1       -0.0002
     14 C          -2.0049  -18.2564   18.7181 C.ar    1  UNL1       -0.0000
     15 C          -2.8611  -19.2367   19.4637 C.ar    1  UNL1       -0.0002
     16 C          -3.0289  -19.1083   20.9487 C.ar    1  UNL1       -0.0007
     17 C          -9.4495  -19.2601   20.0111 C.3     1  UNL1        0.0871
     18 N         -10.6705  -19.8992   20.6033 N.pl3   1  UNL1       -0.3326
     19 H         -11.1295  -20.6245   20.1211 H       1  UNL1        0.1468
     20 C         -11.1922  -19.4333   21.9302 C.ar    1  UNL1        0.0478
     21 C         -10.6566  -20.0298   23.1980 C.ar    1  UNL1        0.0350
     22 C         -11.1784  -19.5639   24.5250 C.ar    1  UNL1        0.1001
     23 N         -12.2356  -18.5015   24.5841 N.ar    1  UNL1       -0.2422
     24 C         -12.7712  -17.9050   23.3163 C.ar    1  UNL1        0.1001
     25 C         -12.2495  -18.3709   21.9893 C.ar    1  UNL1        0.0350
@<TRIPOS>BOND
     1     1     2    2
     2     2     9    1
     3     9    10    1
     4    10    11    1
     5    11    12   ar
     6    12    13   ar
     7    13    14   ar
     8    14    15   ar
     9    15    16   ar
    10     2     3   am
    11     3     4    1
    12     4     5    1
    13     5     6    1
    14     6    17    1
    15    17    18    1
    16    18    20    1
    17    20    21   ar
    18    21    22   ar
    19    22    23   ar
    20    23    24   ar
    21    24    25   ar
    22     6     7    1
    23     7     8    1
    24    16    11   ar
    25     8     3    1
    26    25    20   ar
    27    18    19    1
@<TRIPOS>MOLECULE
*****
 25 27 0 0 0
SMALL
GASTEIGER

@<TRIPOS>ATOM
      1 O         -11.6255   -1.6363   19.3510 O.2     1  UNL1       -0.2262
      2 C         -12.1714   -2.4309   18.2018 C.2     1  UNL1        0.4052
      3 N         -13.4382   -3.2167   18.3680 N.am    1  UNL1       -0.2460
      4 C         -13.9841   -4.0113   17.2189 C.3     1  UNL1        0.0968
      5 C         -15.2509   -4.7971   17.3851 C.3     1  UNL1        0.0234
      6 C         -15.9719   -4.7883   18.7005 C.3     1  UNL1        0.0229
      7 C         -15.4259   -3.9937   19.8497 C.3     1  UNL1        0.0234
      8 C         -14.1591   -3.2079   19.6834 C.3     1  UNL1        0.0968
      9 O         -11.4505   -2.4396   16.8864 O.3     1  UNL1       -0.4295
     10 C         -10.2524   -3.3213   16.6937 C.3     1  UNL1        0.2367
     11 C         -10.2239   -4.6918   17.3028 C.ar    1  UNL1        0.0213
     12 C         -10.9078   -5.8340   16.6118 C.ar    1  UNL1       -0.0007
     13 C         -10.8793   -7.2044   17.2210 C.ar    1  UNL1       -0.0002
     14 C         -10.1668   -7.4326   18.5211 C.ar    1  UNL1       -0.0000
     15 C          -9.4828   -6.2904   19.2120 C.ar    1  UNL1       -0.0002
     16 C          -9.5114   -4.9200   18.6029 C.ar    1  UNL1       -0.0007
     17 C         -17.2387   -5.5742   18.8667 C.3     1  UNL1        0.0871
     18 N         -17.2641   -6.7747   19.7656 N.pl3   1  UNL1       -0.3326
     19 H         -17.6064   -6.6940   20.6852 H       1  UNL1        0.1468
     20 C         -16.7680   -8.0982   19.2635 C.ar    1  UNL1        0.0478
     21 C         -17.6430   -9.3127   19.3597 C.ar    1  UNL1        0.0350
     22 C         -17.1468  -10.6363   18.8576 C.ar    1  UNL1        0.1001
     23 N         -15.7756  -10.7453   18.2593 N.ar    1  UNL1       -0.2422
     24 C         -14.9006   -9.5308   18.1631 C.ar    1  UNL1        0.1001
     25 C         -15.3967   -8.2073   18.6652 C.ar    1  UNL1        0.0350
@<TRIPOS>BOND
     1     1     2    2
     2     2     9    1
     3     9    10    1
     4    10    11    1
     5    11    12   ar
     6    12    13   ar
     7    13    14   ar
     8    14    15   ar
     9    15    16   ar
    10     2     3   am
    11     3     4    1
    12     4     5    1
    13     5     6    1
    14     6    17    1
    15    17    18    1
    16    18    20    1
    17    20    21   ar
    18    21    22   ar
    19    22    23   ar
    20    23    24   ar
    21    24    25   ar
    22     6     7    1
    23     7     8    1
    24    16    11   ar
    25     8     3    1
    26    25    20   ar
    27    18    19    1
@<TRIPOS>MOLECULE
*****
 25 27 0 0 0
SMALL
GASTEIGER

@<TRIPOS>ATOM
      1 O           6.9323   -0.2519   17.0850 O.2     1  UNL1       -0.2262
      2 C           6.2640   -1.3880   17.8009 C.2     1  UNL1        0.4052
      3 N           6.9894   -2.1167   18.8930 N.am    1  UNL1       -0.2460
      4 C           6.3211   -3.2528   19.6090 C.3     1  UNL1        0.0968
      5 C           7.0465   -3.9815   20.7011 C.3     1  UNL1        0.0234
      6 C           8.4403   -3.5741   21.0773 C.3     1  UNL1        0.0229
      7 C           9.1086   -2.4380   20.3613 C.3     1  UNL1        0.0234
      8 C           8.3831   -1.7093   19.2692 C.3     1  UNL1        0.0968
      9 O           4.8702   -1.7954   17.4248 O.3     1  UNL1       -0.4295
     10 C           3.8009   -0.7550   17.2691 C.3     1  UNL1        0.2367
     11 C           2.8729   -0.4568   18.4093 C.ar    1  UNL1        0.0213
     12 C           3.0145   -1.1986   19.7053 C.ar    1  UNL1       -0.0007
     13 C           2.0866   -0.9003   20.8454 C.ar    1  UNL1       -0.0002
     14 C           1.0170    0.1398   20.6895 C.ar    1  UNL1       -0.0000
     15 C           0.8754    0.8816   19.3935 C.ar    1  UNL1       -0.0002
     16 C           1.8034    0.5833   18.2534 C.ar    1  UNL1       -0.0007
     17 C           9.1657   -4.3028   22.1694 C.3     1  UNL1        0.0871
     18 N           8.7720   -5.7059   22.5248 N.pl3   1  UNL1       -0.3326
     19 H           8.9157   -6.4359   21.8800 H       1  UNL1        0.1468
     20 C           8.1593   -5.9969   23.8627 C.ar    1  UNL1        0.0478
     21 C           7.5158   -4.8934   24.6489 C.ar    1  UNL1        0.0350
     22 C           6.9030   -5.1844   25.9868 C.ar    1  UNL1        0.1001
     23 N           6.9338   -6.5789   26.5384 N.ar    1  UNL1       -0.2422
     24 C           7.5773   -7.6824   25.7522 C.ar    1  UNL1        0.1001
     25 C           8.1900   -7.3915   24.4144 C.ar    1  UNL1        0.0350
@<TRIPOS>BOND
     1     1     2    2
     2     2     9    1
     3     9    10    1
     4    10    11    1
     5    11    12   ar
     6    12    13   ar
     7    13    14   ar
     8    14    15   ar
     9    15    16   ar
    10     2     3   am
    11     3     4    1
    12     4     5    1
    13     5     6    1
    14     6    17    1
    15    17    18    1
    16    18    20    1
    17    20    21   ar
    18    21    22   ar
    19    22    23   ar
    20    23    24   ar
    21    24    25   ar
    22     6     7    1
    23     7     8    1
    24    16    11   ar
    25     8     3    1
    26    25    20   ar
    27    18    19    1
@<TRIPOS>MOLECULE
*****
 25 27 0 0 0
SMALL
GASTEIGER

@<TRIPOS>ATOM
      1 O           6.8907   -2.2634   17.4638 O.2     1  UNL1       -0.2262
      2 C           5.7710   -2.4452   18.4452 C.2     1  UNL1        0.4052
      3 N           6.0586   -2.9598   19.8245 N.am    1  UNL1       -0.2460
      4 C           4.9388   -3.1416   20.8058 C.3     1  UNL1        0.0968
      5 C           5.2265   -3.6562   22.1851 C.3     1  UNL1        0.0234
      6 C           6.6339   -3.9892   22.5830 C.3     1  UNL1        0.0229
      7 C           7.7537   -3.8075   21.6016 C.3     1  UNL1        0.0234
      8 C           7.4660   -3.2928   20.2223 C.3     1  UNL1        0.0968
      9 O           4.3635   -2.1122   18.0473 O.3     1  UNL1       -0.4295
     10 C           3.9428   -0.6793   17.9073 C.3     1  UNL1        0.2367
     11 C           2.7423   -0.1740   18.6513 C.ar    1  UNL1        0.0213
     12 C           2.1636    1.1690   18.3176 C.ar    1  UNL1       -0.0007
     13 C           0.9631    1.6743   19.0616 C.ar    1  UNL1       -0.0002
     14 C           0.3414    0.8366   20.1394 C.ar    1  UNL1       -0.0000
     15 C           0.9201   -0.5064   20.4731 C.ar    1  UNL1       -0.0002
     16 C           2.1205   -1.0117   19.7291 C.ar    1  UNL1       -0.0007
     17 C           6.9216   -4.5038   23.9622 C.3     1  UNL1        0.0871
     18 N           7.8049   -5.7020   24.1466 N.pl3   1  UNL1       -0.3326
     19 H           8.2907   -6.0785   23.3774 H       1  UNL1        0.1468
     20 C           7.9482   -6.3267   25.5028 C.ar    1  UNL1        0.0478
     21 C           7.9971   -7.8196   25.6395 C.ar    1  UNL1        0.0350
     22 C           8.1404   -8.4442   26.9958 C.ar    1  UNL1        0.1001
     23 N           8.2348   -7.5759   28.2152 N.ar    1  UNL1       -0.2422
     24 C           8.1859   -6.0830   28.0785 C.ar    1  UNL1        0.1001
     25 C           8.0426   -5.4583   26.7223 C.ar    1  UNL1        0.0350
@<TRIPOS>BOND
     1     1     2    2
     2     2     9    1
     3     9    10    1
     4    10    11    1
     5    11    12   ar
     6    12    13   ar
     7    13    14   ar
     8    14    15   ar
     9    15    16   ar
    10     2     3   am
    11     3     4    1
    12     4     5    1
    13     5     6    1
    14     6    17    1
    15    17    18    1
    16    18    20    1
    17    20    21   ar
    18    21    22   ar
    19    22    23   ar
    20    23    24   ar
    21    24    25   ar
    22     6     7    1
    23     7     8    1
    24    16    11   ar
    25     8     3    1
    26    25    20   ar
    27    18    19    1
@<TRIPOS>MOLECULE
*****
 25 27 0 0 0
SMALL
GASTEIGER

@<TRIPOS>ATOM
      1 O           8.8876   -2.7617   21.7610 O.2     1  UNL1       -0.2262
      2 C           7.8118   -3.6092   21.1491 C.2     1  UNL1        0.4052
      3 N           6.7965   -2.9884   20.2360 N.am    1  UNL1       -0.2460
      4 C           5.7206   -3.8358   19.6241 C.3     1  UNL1        0.0968
      5 C           4.7053   -3.2151   18.7111 C.3     1  UNL1        0.0234
      6 C           4.7657   -1.7468   18.4099 C.3     1  UNL1        0.0229
      7 C           5.8416   -0.8994   19.0218 C.3     1  UNL1        0.0234
      8 C           6.8570   -1.5202   19.9349 C.3     1  UNL1        0.0968
      9 O           7.7513   -5.0774   21.4503 O.3     1  UNL1       -0.4295
     10 C           8.6629   -5.6691   22.4841 C.3     1  UNL1        0.2367
     11 C           8.1273   -6.0302   23.8379 C.ar    1  UNL1        0.0213
     12 C           7.4307   -4.9944   24.6696 C.ar    1  UNL1       -0.0007
     13 C           6.8951   -5.3556   26.0233 C.ar    1  UNL1       -0.0002
     14 C           7.0562   -6.7525   26.5454 C.ar    1  UNL1       -0.0000
     15 C           7.7528   -7.7883   25.7138 C.ar    1  UNL1       -0.0002
     16 C           8.2884   -7.4272   24.3600 C.ar    1  UNL1       -0.0007
     17 C           3.7504   -1.1261   17.4968 C.3     1  UNL1        0.0871
     18 N           3.2889    0.2812   17.7347 N.pl3   1  UNL1       -0.3326
     19 H           3.7436    1.0307   17.2868 H       1  UNL1        0.1468
     20 C           2.1345    0.5465   18.6550 C.ar    1  UNL1        0.0478
     21 C           1.3941    1.8484   18.5735 C.ar    1  UNL1        0.0350
     22 C           0.2397    2.1137   19.4939 C.ar    1  UNL1        0.1001
     23 N          -0.1743    1.0769   20.4958 N.ar    1  UNL1       -0.2422
     24 C           0.5661   -0.2250   20.5773 C.ar    1  UNL1        0.1001
     25 C           1.7205   -0.4903   19.6570 C.ar    1  UNL1        0.0350
@<TRIPOS>BOND
     1     1     2    2
     2     2     9    1
     3     9    10    1
     4    10    11    1
     5    11    12   ar
     6    12    13   ar
     7    13    14   ar
     8    14    15   ar
     9    15    16   ar
    10     2     3   am
    11     3     4    1
    12     4     5    1
    13     5     6    1
    14     6    17    1
    15    17    18    1
    16    18    20    1
    17    20    21   ar
    18    21    22   ar
    19    22    23   ar
    20    23    24   ar
    21    24    25   ar
    22     6     7    1
    23     7     8    1
    24    16    11   ar
    25     8     3    1
    26    25    20   ar
    27    18    19    1
@<TRIPOS>MOLECULE
*****
 25 27 0 0 0
SMALL
GASTEIGER

@<TRIPOS>ATOM
      1 O         -13.6905    1.0864   18.8884 O.2     1  UNL1       -0.2262
      2 C         -13.5601   -0.0885   17.9651 C.2     1  UNL1        0.4052
      3 N         -14.4560   -1.2794   18.1355 N.am    1  UNL1       -0.2460
      4 C         -14.3256   -2.4543   17.2121 C.3     1  UNL1        0.0968
      5 C         -15.2215   -3.6452   17.3826 C.3     1  UNL1        0.0234
      6 C         -16.2479   -3.6613   18.4764 C.3     1  UNL1        0.0229
      7 C         -16.3783   -2.4864   19.3998 C.3     1  UNL1        0.0234
      8 C         -15.4823   -1.2954   19.2293 C.3     1  UNL1        0.0968
      9 O         -12.5338   -0.0725   16.8712 O.3     1  UNL1       -0.4295
     10 C         -11.0916   -0.3318   17.1920 C.3     1  UNL1        0.2367
     11 C         -10.5837   -1.7407   17.2766 C.ar    1  UNL1        0.0213
     12 C          -9.8199   -2.3328   16.1294 C.ar    1  UNL1       -0.0007
     13 C          -9.3120   -3.7416   16.2140 C.ar    1  UNL1       -0.0002
     14 C          -9.5679   -4.5584   17.4458 C.ar    1  UNL1       -0.0000
     15 C         -10.3317   -3.9664   18.5930 C.ar    1  UNL1       -0.0002
     16 C         -10.8396   -2.5576   18.5084 C.ar    1  UNL1       -0.0007
     17 C         -17.1438   -4.8522   18.6469 C.3     1  UNL1        0.0871
     18 N         -16.8488   -5.8663   19.7120 N.pl3   1  UNL1       -0.3326
     19 H         -16.9805   -5.6367   20.6603 H       1  UNL1        0.1468
     20 C         -16.3532   -7.2302   19.3324 C.ar    1  UNL1        0.0478
     21 C         -14.9874   -7.3921   18.7336 C.ar    1  UNL1        0.0350
     22 C         -14.4918   -8.7560   18.3539 C.ar    1  UNL1        0.1001
     23 N         -15.3620   -9.9580   18.5731 N.ar    1  UNL1       -0.2422
     24 C         -16.7277   -9.7961   19.1719 C.ar    1  UNL1        0.1001
     25 C         -17.2233   -8.4323   19.5516 C.ar    1  UNL1        0.0350
@<TRIPOS>BOND
     1     1     2    2
     2     2     9    1
     3     9    10    1
     4    10    11    1
     5    11    12   ar
     6    12    13   ar
     7    13    14   ar
     8    14    15   ar
     9    15    16   ar
    10     2     3   am
    11     3     4    1
    12     4     5    1
    13     5     6    1
    14     6    17    1
    15    17    18    1
    16    18    20    1
    17    20    21   ar
    18    21    22   ar
    19    22    23   ar
    20    23    24   ar
    21    24    25   ar
    22     6     7    1
    23     7     8    1
    24    16    11   ar
    25     8     3    1
    26    25    20   ar
    27    18    19    1
