@<TRIPOS>MOLECULE
*****
 21 24 0 0 0
SMALL
GASTEIGER

@<TRIPOS>ATOM
      1 O          -5.9908  -14.8219   25.1161 O.2     1  UNL1       -0.2864
      2 C          -6.6262  -15.9019   24.2916 C.ar    1  UNL1        0.2016
      3 C          -8.1189  -16.0486   24.2696 C.ar    1  UNL1        0.0796
      4 C          -8.7542  -17.1287   23.4451 C.ar    1  UNL1        0.1484
      5 O          -7.8970  -18.0620   22.6426 O.2     1  UNL1       -0.4533
      6 C          -6.4043  -17.9153   22.6647 C.ar    1  UNL1        0.1482
      7 C          -5.7689  -16.8353   23.4891 C.ar    1  UNL1        0.0735
      8 C          -4.2763  -16.6886   23.5112 C.ar    1  UNL1        0.0062
      9 C          -3.4190  -17.6219   22.7087 C.ar    1  UNL1        0.0003
     10 C          -4.0544  -18.7020   21.8842 C.ar    1  UNL1        0.0029
     11 C          -3.1971  -19.6353   21.0818 C.ar    1  UNL1        0.0001
     12 C          -3.8325  -20.7154   20.2573 C.ar    1  UNL1        0.0000
     13 C          -5.3252  -20.8621   20.2353 C.ar    1  UNL1        0.0001
     14 C          -6.1824  -19.9287   21.0377 C.ar    1  UNL1        0.0030
     15 C          -5.5470  -18.8487   21.8622 C.ar    1  UNL1        0.0347
     16 C         -10.2469  -17.2754   23.4230 C.ar    1  UNL1        0.0347
     17 C         -11.0793  -16.3492   22.5869 C.ar    1  UNL1        0.0030
     18 C         -12.5719  -16.4959   22.5648 C.ar    1  UNL1        0.0001
     19 C         -13.2322  -17.5688   23.3790 C.ar    1  UNL1        0.0000
     20 C         -12.3998  -18.4951   24.2152 C.ar    1  UNL1        0.0001
     21 C         -10.9071  -18.3484   24.2372 C.ar    1  UNL1        0.0030
@<TRIPOS>BOND
     1     1     2    2
     2     2     3   ar
     3     3     4   ar
     4     4    16    1
     5    16    17   ar
     6    17    18   ar
     7    18    19   ar
     8    19    20   ar
     9    20    21   ar
    10     4     5   ar
    11     5     6   ar
    12     6     7   ar
    13     7     8   ar
    14     8     9   ar
    15     9    10   ar
    16    10    11   ar
    17    11    12   ar
    18    12    13   ar
    19    13    14   ar
    20    14    15   ar
    21     7     2   ar
    22    15    10   ar
    23    21    16   ar
    24    15     6   ar
@<TRIPOS>MOLECULE
*****
 21 24 0 0 0
SMALL
GASTEIGER

@<TRIPOS>ATOM
      1 O         -12.4197  -16.0649   22.2100 O.2     1  UNL1       -0.2864
      2 C         -11.0326  -16.5932   22.4259 C.ar    1  UNL1        0.2016
      3 C         -10.2171  -16.1070   23.5872 C.ar    1  UNL1        0.0796
      4 C          -8.8299  -16.6354   23.8030 C.ar    1  UNL1        0.1484
      5 O          -8.2582  -17.6499   22.8576 O.2     1  UNL1       -0.4533
      6 C          -9.0737  -18.1361   21.6963 C.ar    1  UNL1        0.1482
      7 C         -10.4608  -17.6078   21.4804 C.ar    1  UNL1        0.0735
      8 C         -11.2763  -18.0940   20.3192 C.ar    1  UNL1        0.0062
      9 C         -10.7046  -19.1086   19.3737 C.ar    1  UNL1        0.0003
     10 C          -9.3174  -19.6369   19.5896 C.ar    1  UNL1        0.0029
     11 C          -8.7457  -20.6515   18.6442 C.ar    1  UNL1        0.0001
     12 C          -7.3585  -21.1798   18.8601 C.ar    1  UNL1        0.0000
     13 C          -6.5431  -20.6936   20.0213 C.ar    1  UNL1        0.0001
     14 C          -7.1148  -19.6790   20.9668 C.ar    1  UNL1        0.0030
     15 C          -8.5019  -19.1507   20.7509 C.ar    1  UNL1        0.0347
     16 C          -8.0144  -16.1492   24.9643 C.ar    1  UNL1        0.0347
     17 C          -8.5914  -16.1740   26.3486 C.ar    1  UNL1        0.0030
     18 C          -7.7760  -15.6877   27.5099 C.ar    1  UNL1        0.0001
     19 C          -6.3835  -15.1767   27.2869 C.ar    1  UNL1        0.0000
     20 C          -5.8064  -15.1519   25.9025 C.ar    1  UNL1        0.0001
     21 C          -6.6219  -15.6381   24.7412 C.ar    1  UNL1        0.0030
@<TRIPOS>BOND
     1     1     2    2
     2     2     3   ar
     3     3     4   ar
     4     4    16    1
     5    16    17   ar
     6    17    18   ar
     7    18    19   ar
     8    19    20   ar
     9    20    21   ar
    10     4     5   ar
    11     5     6   ar
    12     6     7   ar
    13     7     8   ar
    14     8     9   ar
    15     9    10   ar
    16    10    11   ar
    17    11    12   ar
    18    12    13   ar
    19    13    14   ar
    20    14    15   ar
    21     7     2   ar
    22    15    10   ar
    23    21    16   ar
    24    15     6   ar
@<TRIPOS>MOLECULE
*****
 21 24 0 0 0
SMALL
GASTEIGER

@<TRIPOS>ATOM
      1 O          -5.4590  -14.6460   25.7338 O.2     1  UNL1       -0.2864
      2 C          -5.6888  -15.6552   24.6482 C.ar    1  UNL1        0.2016
      3 C          -4.5213  -16.2540   23.9214 C.ar    1  UNL1        0.0796
      4 C          -4.7511  -17.2632   22.8357 C.ar    1  UNL1        0.1484
      5 O          -6.1485  -17.6736   22.4768 O.2     1  UNL1       -0.4533
      6 C          -7.3161  -17.0749   23.2037 C.ar    1  UNL1        0.1482
      7 C          -7.0863  -16.0657   24.2893 C.ar    1  UNL1        0.0735
      8 C          -8.2538  -15.4669   25.0161 C.ar    1  UNL1        0.0062
      9 C          -9.6512  -15.8773   24.6573 C.ar    1  UNL1        0.0003
     10 C          -9.8811  -16.8866   23.5716 C.ar    1  UNL1        0.0029
     11 C         -11.2785  -17.2970   23.2128 C.ar    1  UNL1        0.0001
     12 C         -11.5083  -18.3062   22.1271 C.ar    1  UNL1        0.0000
     13 C         -10.3408  -18.9049   21.4003 C.ar    1  UNL1        0.0001
     14 C          -8.9434  -18.4945   21.7591 C.ar    1  UNL1        0.0030
     15 C          -8.7136  -17.4853   22.8448 C.ar    1  UNL1        0.0347
     16 C          -3.5836  -17.8620   22.1088 C.ar    1  UNL1        0.0347
     17 C          -3.5516  -19.3346   21.8255 C.ar    1  UNL1        0.0030
     18 C          -2.3841  -19.9334   21.0987 C.ar    1  UNL1        0.0001
     19 C          -1.2484  -19.0595   20.6552 C.ar    1  UNL1        0.0000
     20 C          -1.2804  -17.5868   20.9385 C.ar    1  UNL1        0.0001
     21 C          -2.4479  -16.9880   21.6654 C.ar    1  UNL1        0.0030
@<TRIPOS>BOND
     1     1     2    2
     2     2     3   ar
     3     3     4   ar
     4     4    16    1
     5    16    17   ar
     6    17    18   ar
     7    18    19   ar
     8    19    20   ar
     9    20    21   ar
    10     4     5   ar
    11     5     6   ar
    12     6     7   ar
    13     7     8   ar
    14     8     9   ar
    15     9    10   ar
    16    10    11   ar
    17    11    12   ar
    18    12    13   ar
    19    13    14   ar
    20    14    15   ar
    21     7     2   ar
    22    15    10   ar
    23    21    16   ar
    24    15     6   ar
@<TRIPOS>MOLECULE
*****
 21 24 0 0 0
SMALL
GASTEIGER

@<TRIPOS>ATOM
      1 O          -8.3160  -21.1604   18.4065 O.2     1  UNL1       -0.2864
      2 C          -8.1825  -20.2273   19.5732 C.ar    1  UNL1        0.2016
      3 C          -9.4023  -19.5819   20.1609 C.ar    1  UNL1        0.0796
      4 C          -9.2687  -18.6487   21.3277 C.ar    1  UNL1        0.1484
      5 O          -7.9153  -18.3609   21.9067 O.2     1  UNL1       -0.4533
      6 C          -6.6954  -19.0063   21.3190 C.ar    1  UNL1        0.1482
      7 C          -6.8290  -19.9394   20.1523 C.ar    1  UNL1        0.0735
      8 C          -5.6091  -20.5848   19.5646 C.ar    1  UNL1        0.0062
      9 C          -4.2556  -20.2970   20.1436 C.ar    1  UNL1        0.0003
     10 C          -4.1220  -19.3638   21.3104 C.ar    1  UNL1        0.0029
     11 C          -2.7686  -19.0760   21.8894 C.ar    1  UNL1        0.0001
     12 C          -2.6350  -18.1428   23.0561 C.ar    1  UNL1        0.0000
     13 C          -3.8549  -17.4974   23.6438 C.ar    1  UNL1        0.0001
     14 C          -5.2083  -17.7852   23.0648 C.ar    1  UNL1        0.0030
     15 C          -5.3419  -18.7184   21.8981 C.ar    1  UNL1        0.0347
     16 C         -10.4886  -18.0033   21.9154 C.ar    1  UNL1        0.0347
     17 C         -11.4176  -18.8032   22.7797 C.ar    1  UNL1        0.0030
     18 C         -12.6375  -18.1578   23.3674 C.ar    1  UNL1        0.0001
     19 C         -12.9283  -16.7125   23.0908 C.ar    1  UNL1        0.0000
     20 C         -11.9993  -15.9126   22.2265 C.ar    1  UNL1        0.0001
     21 C         -10.7794  -16.5579   21.6388 C.ar    1  UNL1        0.0030
@<TRIPOS>BOND
     1     1     2    2
     2     2     3   ar
     3     3     4   ar
     4     4    16    1
     5    16    17   ar
     6    17    18   ar
     7    18    19   ar
     8    19    20   ar
     9    20    21   ar
    10     4     5   ar
    11     5     6   ar
    12     6     7   ar
    13     7     8   ar
    14     8     9   ar
    15     9    10   ar
    16    10    11   ar
    17    11    12   ar
    18    12    13   ar
    19    13    14   ar
    20    14    15   ar
    21     7     2   ar
    22    15    10   ar
    23    21    16   ar
    24    15     6   ar
@<TRIPOS>MOLECULE
*****
 21 24 0 0 0
SMALL
GASTEIGER

@<TRIPOS>ATOM
      1 O          -8.1115  -21.3515   18.2822 O.2     1  UNL1       -0.2864
      2 C          -7.8226  -20.3453   19.3564 C.ar    1  UNL1        0.2016
      3 C          -6.4162  -20.1453   19.8381 C.ar    1  UNL1        0.0796
      4 C          -6.1272  -19.1390   20.9123 C.ar    1  UNL1        0.1484
      5 O          -7.2447  -18.3328   21.5049 O.2     1  UNL1       -0.4533
      6 C          -8.6511  -18.5328   21.0233 C.ar    1  UNL1        0.1482
      7 C          -8.9401  -19.5390   19.9491 C.ar    1  UNL1        0.0735
      8 C         -10.3465  -19.7390   19.4675 C.ar    1  UNL1        0.0062
      9 C         -11.4640  -18.9328   20.0601 C.ar    1  UNL1        0.0003
     10 C         -11.1751  -17.9265   21.1343 C.ar    1  UNL1        0.0029
     11 C         -12.2926  -17.1203   21.7269 C.ar    1  UNL1        0.0001
     12 C         -12.0036  -16.1140   22.8011 C.ar    1  UNL1        0.0000
     13 C         -10.5972  -15.9140   23.2828 C.ar    1  UNL1        0.0001
     14 C          -9.4797  -16.7203   22.6902 C.ar    1  UNL1        0.0030
     15 C          -9.7687  -17.7265   21.6160 C.ar    1  UNL1        0.0347
     16 C          -4.7208  -18.9390   21.3940 C.ar    1  UNL1        0.0347
     17 C          -4.4619  -18.1644   22.6521 C.ar    1  UNL1        0.0030
     18 C          -3.0555  -17.9643   23.1337 C.ar    1  UNL1        0.0001
     19 C          -1.9080  -18.5390   22.3572 C.ar    1  UNL1        0.0000
     20 C          -2.1668  -19.3136   21.0990 C.ar    1  UNL1        0.0001
     21 C          -3.5733  -19.5136   20.6174 C.ar    1  UNL1        0.0030
@<TRIPOS>BOND
     1     1     2    2
     2     2     3   ar
     3     3     4   ar
     4     4    16    1
     5    16    17   ar
     6    17    18   ar
     7    18    19   ar
     8    19    20   ar
     9    20    21   ar
    10     4     5   ar
    11     5     6   ar
    12     6     7   ar
    13     7     8   ar
    14     8     9   ar
    15     9    10   ar
    16    10    11   ar
    17    11    12   ar
    18    12    13   ar
    19    13    14   ar
    20    14    15   ar
    21     7     2   ar
    22    15    10   ar
    23    21    16   ar
    24    15     6   ar
@<TRIPOS>MOLECULE
*****
 21 24 0 0 0
SMALL
GASTEIGER

@<TRIPOS>ATOM
      1 O         -15.8727   -1.9274   19.7379 O.2     1  UNL1       -0.2864
      2 C         -15.4524   -3.3616   19.6104 C.ar    1  UNL1        0.2016
      3 C         -16.4774   -4.4537   19.6927 C.ar    1  UNL1        0.0796
      4 C         -16.0571   -5.8880   19.5651 C.ar    1  UNL1        0.1484
      5 O         -14.6118   -6.2301   19.3553 O.2     1  UNL1       -0.4533
      6 C         -13.5868   -5.1381   19.2731 C.ar    1  UNL1        0.1482
      7 C         -14.0070   -3.7038   19.4006 C.ar    1  UNL1        0.0735
      8 C         -12.9820   -2.6118   19.3183 C.ar    1  UNL1        0.0062
      9 C         -11.5368   -2.9539   19.1085 C.ar    1  UNL1        0.0003
     10 C         -11.1164   -4.3882   18.9810 C.ar    1  UNL1        0.0029
     11 C          -9.6712   -4.7304   18.7712 C.ar    1  UNL1        0.0001
     12 C          -9.2509   -6.1646   18.6437 C.ar    1  UNL1        0.0000
     13 C         -10.2759   -7.2567   18.7259 C.ar    1  UNL1        0.0001
     14 C         -11.7212   -6.9145   18.9357 C.ar    1  UNL1        0.0030
     15 C         -12.1414   -5.4803   19.0632 C.ar    1  UNL1        0.0347
     16 C         -17.0821   -6.9800   19.6474 C.ar    1  UNL1        0.0347
     17 C         -16.6495   -8.4163   19.6468 C.ar    1  UNL1        0.0030
     18 C         -17.6745   -9.5083   19.7290 C.ar    1  UNL1        0.0001
     19 C         -19.1321   -9.1641   19.8119 C.ar    1  UNL1        0.0000
     20 C         -19.5647   -7.7278   19.8124 C.ar    1  UNL1        0.0001
     21 C         -18.5397   -6.6358   19.7302 C.ar    1  UNL1        0.0030
@<TRIPOS>BOND
     1     1     2    2
     2     2     3   ar
     3     3     4   ar
     4     4    16    1
     5    16    17   ar
     6    17    18   ar
     7    18    19   ar
     8    19    20   ar
     9    20    21   ar
    10     4     5   ar
    11     5     6   ar
    12     6     7   ar
    13     7     8   ar
    14     8     9   ar
    15     9    10   ar
    16    10    11   ar
    17    11    12   ar
    18    12    13   ar
    19    13    14   ar
    20    14    15   ar
    21     7     2   ar
    22    15    10   ar
    23    21    16   ar
    24    15     6   ar
@<TRIPOS>MOLECULE
*****
 21 24 0 0 0
SMALL
GASTEIGER

@<TRIPOS>ATOM
      1 O          -8.0458  -20.9139   19.2807 O.2     1  UNL1       -0.2864
      2 C          -7.2380  -19.9380   20.0838 C.ar    1  UNL1        0.2016
      3 C          -5.7658  -19.7975   19.8332 C.ar    1  UNL1        0.0796
      4 C          -4.9580  -18.8215   20.6363 C.ar    1  UNL1        0.1484
      5 O          -5.6225  -17.9860   21.6900 O.2     1  UNL1       -0.4533
      6 C          -7.0947  -18.1264   21.9407 C.ar    1  UNL1        0.1482
      7 C          -7.9025  -19.1024   21.1376 C.ar    1  UNL1        0.0735
      8 C          -9.3747  -19.2428   21.3883 C.ar    1  UNL1        0.0062
      9 C         -10.0391  -18.4073   22.4420 C.ar    1  UNL1        0.0003
     10 C          -9.2314  -17.4313   23.2451 C.ar    1  UNL1        0.0029
     11 C          -9.8958  -16.5958   24.2988 C.ar    1  UNL1        0.0001
     12 C          -9.0880  -15.6198   25.1019 C.ar    1  UNL1        0.0000
     13 C          -7.6158  -15.4794   24.8513 C.ar    1  UNL1        0.0001
     14 C          -6.9514  -16.3149   23.7976 C.ar    1  UNL1        0.0030
     15 C          -7.7591  -17.2909   22.9945 C.ar    1  UNL1        0.0347
     16 C          -3.4858  -18.6811   20.3857 C.ar    1  UNL1        0.0347
     17 C          -2.9975  -18.0893   19.0968 C.ar    1  UNL1        0.0030
     18 C          -1.5253  -17.9489   18.8461 C.ar    1  UNL1        0.0001
     19 C          -0.5413  -18.4002   19.8844 C.ar    1  UNL1        0.0000
     20 C          -1.0296  -18.9920   21.1734 C.ar    1  UNL1        0.0001
     21 C          -2.5018  -19.1325   21.4240 C.ar    1  UNL1        0.0030
@<TRIPOS>BOND
     1     1     2    2
     2     2     3   ar
     3     3     4   ar
     4     4    16    1
     5    16    17   ar
     6    17    18   ar
     7    18    19   ar
     8    19    20   ar
     9    20    21   ar
    10     4     5   ar
    11     5     6   ar
    12     6     7   ar
    13     7     8   ar
    14     8     9   ar
    15     9    10   ar
    16    10    11   ar
    17    11    12   ar
    18    12    13   ar
    19    13    14   ar
    20    14    15   ar
    21     7     2   ar
    22    15    10   ar
    23    21    16   ar
    24    15     6   ar
@<TRIPOS>MOLECULE
*****
 21 24 0 0 0
SMALL
GASTEIGER

@<TRIPOS>ATOM
      1 O         -15.2226  -10.4835   18.1937 O.2     1  UNL1       -0.2864
      2 C         -15.1161   -9.0141   18.4756 C.ar    1  UNL1        0.2016
      3 C         -13.7708   -8.3510   18.5017 C.ar    1  UNL1        0.0796
      4 C         -13.6644   -6.8815   18.7836 C.ar    1  UNL1        0.1484
      5 O         -14.9031   -6.0752   19.0392 O.2     1  UNL1       -0.4533
      6 C         -16.2483   -6.7383   19.0131 C.ar    1  UNL1        0.1482
      7 C         -16.3548   -8.2077   18.7313 C.ar    1  UNL1        0.0735
      8 C         -17.7000   -8.8708   18.7051 C.ar    1  UNL1        0.0062
      9 C         -18.9387   -8.0645   18.9608 C.ar    1  UNL1        0.0003
     10 C         -18.8323   -6.5950   19.2426 C.ar    1  UNL1        0.0029
     11 C         -20.0710   -5.7887   19.4983 C.ar    1  UNL1        0.0001
     12 C         -19.9645   -4.3193   19.7801 C.ar    1  UNL1        0.0000
     13 C         -18.6193   -3.6562   19.8063 C.ar    1  UNL1        0.0001
     14 C         -17.3806   -4.4625   19.5506 C.ar    1  UNL1        0.0030
     15 C         -17.4871   -5.9319   19.2688 C.ar    1  UNL1        0.0347
     16 C         -12.3191   -6.2184   18.8097 C.ar    1  UNL1        0.0347
     17 C         -11.0719   -7.0502   18.7598 C.ar    1  UNL1        0.0030
     18 C          -9.7267   -6.3871   18.7860 C.ar    1  UNL1        0.0001
     19 C          -9.6287   -4.8922   18.8620 C.ar    1  UNL1        0.0000
     20 C         -10.8760   -4.0604   18.9119 C.ar    1  UNL1        0.0001
     21 C         -12.2212   -4.7235   18.8858 C.ar    1  UNL1        0.0030
@<TRIPOS>BOND
     1     1     2    2
     2     2     3   ar
     3     3     4   ar
     4     4    16    1
     5    16    17   ar
     6    17    18   ar
     7    18    19   ar
     8    19    20   ar
     9    20    21   ar
    10     4     5   ar
    11     5     6   ar
    12     6     7   ar
    13     7     8   ar
    14     8     9   ar
    15     9    10   ar
    16    10    11   ar
    17    11    12   ar
    18    12    13   ar
    19    13    14   ar
    20    14    15   ar
    21     7     2   ar
    22    15    10   ar
    23    21    16   ar
    24    15     6   ar
