@<TRIPOS>MOLECULE
*****
 25 28 0 0 0
SMALL
GASTEIGER

@<TRIPOS>ATOM
      1 N         -13.4487   -4.4499   18.7627 N.ar    1  UNL1       -0.3256
      2 C         -14.4320   -5.5781   18.6609 C.ar    1  UNL1        0.0367
      3 C         -13.6603   -6.8639   18.6279 C.ar    1  UNL1        0.0109
      4 C         -12.2001   -6.5305   18.7094 C.ar    1  UNL1        0.0167
      5 C         -10.9726   -7.3926   18.7185 C.ar    1  UNL1        0.0308
      6 C          -9.6145   -6.7627   18.8109 C.ar    1  UNL1        0.1402
      7 F          -8.3869   -7.6248   18.8200 F       1  UNL1       -0.2042
      8 C          -9.4837   -5.2708   18.8941 C.ar    1  UNL1        0.0311
      9 C         -10.7111   -4.4086   18.8850 C.ar    1  UNL1        0.0195
     10 C         -12.0693   -5.0385   18.7926 C.ar    1  UNL1        0.0598
     11 C         -14.3869   -8.1724   18.5280 C.3     1  UNL1        0.1216
     12 N         -15.8853   -8.1950   18.4611 N.am    1  UNL1       -0.2711
     13 C         -16.6119   -9.5035   18.3612 C.2     1  UNL1        0.2553
     14 O         -15.8402  -10.7893   18.3283 O.2     1  UNL1       -0.2693
     15 C         -16.6570   -6.9091   18.4940 C.3     1  UNL1        0.1003
     16 C         -15.9303   -5.6007   18.5939 C.3     1  UNL1        0.0650
     17 C         -18.1102   -9.5260   18.2942 C.ar    1  UNL1        0.0830
     18 C         -19.0467   -9.4136   19.4607 C.ar    1  UNL1        0.0116
     19 C         -20.4504   -9.4830   18.9365 C.ar    1  UNL1        0.0076
     20 C         -20.3815   -9.6382   17.4462 C.ar    1  UNL1        0.0356
     21 S         -18.9353   -9.6648   17.0492 S.2     1  UNL1       -0.0819
     22 C         -13.7857   -2.9895   18.8237 C.3     1  UNL1        0.1474
     23 O         -15.5590   -1.3916   19.8493 O.co2   1  UNL1       -0.5472
     24 C         -14.4930   -2.4325   20.0234 C.2     1  UNL1        0.0732
     25 O         -14.1345   -2.9164   21.3972 O.co2   1  UNL1       -0.5472
@<TRIPOS>UNITY_ATOM_ATTR
23 1
charge -1
@<TRIPOS>BOND
     1    23    24   ar
     2    24    25   ar
     3    24    22    1
     4    22     1    1
     5     1     2   ar
     6     2     3   ar
     7     3     4   ar
     8     4     5   ar
     9     5     6   ar
    10     6     7    1
    11     6     8   ar
    12     8     9   ar
    13     9    10   ar
    14     3    11    1
    15    11    12    1
    16    12    13   am
    17    13    14    2
    18    13    17    1
    19    17    18   ar
    20    18    19   ar
    21    19    20   ar
    22    20    21   ar
    23    12    15    1
    24    15    16    1
    25    10     1   ar
    26    21    17   ar
    27    16     2    1
    28    10     4   ar
@<TRIPOS>MOLECULE
*****
 25 28 0 0 0
SMALL
GASTEIGER

@<TRIPOS>ATOM
      1 N          -5.1587  -17.6239   23.0203 N.ar    1  UNL1       -0.3256
      2 C          -6.6338  -17.8952   22.9955 C.ar    1  UNL1        0.0367
      3 C          -6.8963  -18.9344   21.9461 C.ar    1  UNL1        0.0109
      4 C          -5.5835  -19.3053   21.3224 C.ar    1  UNL1        0.0167
      5 C          -5.2272  -20.2759   20.2357 C.ar    1  UNL1        0.0308
      6 C          -3.7971  -20.4366   19.8129 C.ar    1  UNL1        0.1402
      7 F          -3.4407  -21.4072   18.7262 F       1  UNL1       -0.2042
      8 C          -2.7232  -19.6266   20.4768 C.ar    1  UNL1        0.0311
      9 C          -3.0795  -18.6560   21.5635 C.ar    1  UNL1        0.0195
     10 C          -4.5096  -18.4954   21.9863 C.ar    1  UNL1        0.0598
     11 C          -8.2968  -19.4087   21.6941 C.3     1  UNL1        0.1216
     12 N          -9.4349  -18.8437   22.4915 N.am    1  UNL1       -0.2711
     13 C         -10.8355  -19.3181   22.2394 C.2     1  UNL1        0.2553
     14 O         -11.0980  -20.3572   21.1900 O.2     1  UNL1       -0.2693
     15 C          -9.1724  -17.8046   23.5408 C.3     1  UNL1        0.1003
     16 C          -7.7718  -17.3303   23.7929 C.3     1  UNL1        0.0650
     17 C         -11.9734  -18.7531   23.0368 C.ar    1  UNL1        0.0830
     18 C         -12.3024  -19.0864   24.4619 C.ar    1  UNL1        0.0116
     19 C         -13.5145  -18.2950   24.8550 C.ar    1  UNL1        0.0076
     20 C         -13.9346  -17.4726   23.6730 C.ar    1  UNL1        0.0356
     21 S         -12.9822  -17.7557   22.5493 S.2     1  UNL1       -0.0819
     22 C          -4.4561  -16.6517   23.9210 C.3     1  UNL1        0.1474
     23 O          -4.6506  -14.3839   22.6685 O.co2   1  UNL1       -0.5472
     24 C          -4.8450  -15.2031   23.9099 C.2     1  UNL1        0.0732
     25 O          -5.4281  -14.5736   25.1402 O.co2   1  UNL1       -0.5472
@<TRIPOS>UNITY_ATOM_ATTR
23 1
charge -1
@<TRIPOS>BOND
     1    23    24   ar
     2    24    25   ar
     3    24    22    1
     4    22     1    1
     5     1     2   ar
     6     2     3   ar
     7     3     4   ar
     8     4     5   ar
     9     5     6   ar
    10     6     7    1
    11     6     8   ar
    12     8     9   ar
    13     9    10   ar
    14     3    11    1
    15    11    12    1
    16    12    13   am
    17    13    14    2
    18    13    17    1
    19    17    18   ar
    20    18    19   ar
    21    19    20   ar
    22    20    21   ar
    23    12    15    1
    24    15    16    1
    25    10     1   ar
    26    21    17   ar
    27    16     2    1
    28    10     4   ar
@<TRIPOS>MOLECULE
*****
 25 28 0 0 0
SMALL
GASTEIGER

@<TRIPOS>ATOM
      1 N          -5.1547  -16.5864   23.6273 N.ar    1  UNL1       -0.3256
      2 C          -6.5552  -17.0409   23.3406 C.ar    1  UNL1        0.0367
      3 C          -6.4779  -18.2551   22.4632 C.ar    1  UNL1        0.0109
      4 C          -5.0297  -18.5510   22.2076 C.ar    1  UNL1        0.0167
      5 C          -4.3501  -19.6262   21.4128 C.ar    1  UNL1        0.0308
      6 C          -2.8527  -19.6702   21.3373 C.ar    1  UNL1        0.1402
      7 F          -2.1729  -20.7454   20.5424 F       1  UNL1       -0.2042
      8 C          -2.0349  -18.6388   22.0568 C.ar    1  UNL1        0.0311
      9 C          -2.7145  -17.5636   22.8517 C.ar    1  UNL1        0.0195
     10 C          -4.2120  -17.5197   22.9271 C.ar    1  UNL1        0.0598
     11 C          -7.7362  -18.9344   22.0103 C.3     1  UNL1        0.1216
     12 N          -9.0718  -18.3996   22.4349 N.am    1  UNL1       -0.2711
     13 C         -10.3302  -19.0790   21.9819 C.2     1  UNL1        0.2553
     14 O         -10.2529  -20.2931   21.1045 O.2     1  UNL1       -0.2693
     15 C          -9.1491  -17.1854   23.3123 C.3     1  UNL1        0.1003
     16 C          -7.8907  -16.5061   23.7651 C.3     1  UNL1        0.0650
     17 C         -11.6657  -18.5441   22.4065 C.ar    1  UNL1        0.0830
     18 C         -12.6653  -17.8632   21.5191 C.ar    1  UNL1        0.0116
     19 C         -13.8535  -17.4945   22.3571 C.ar    1  UNL1        0.0076
     20 C         -13.5883  -17.9473   23.7623 C.ar    1  UNL1        0.0356
     21 S         -12.2362  -18.5960   23.7928 S.2     1  UNL1       -0.0819
     22 C          -4.7654  -15.4059   24.4668 C.3     1  UNL1        0.1474
     23 O          -4.9262  -16.5483   26.7947 O.co2   1  UNL1       -0.5472
     24 C          -5.1531  -15.3548   25.9149 C.2     1  UNL1        0.0732
     25 O          -5.7678  -14.1102   26.4833 O.co2   1  UNL1       -0.5472
@<TRIPOS>UNITY_ATOM_ATTR
23 1
charge -1
@<TRIPOS>BOND
     1    23    24   ar
     2    24    25   ar
     3    24    22    1
     4    22     1    1
     5     1     2   ar
     6     2     3   ar
     7     3     4   ar
     8     4     5   ar
     9     5     6   ar
    10     6     7    1
    11     6     8   ar
    12     8     9   ar
    13     9    10   ar
    14     3    11    1
    15    11    12    1
    16    12    13   am
    17    13    14    2
    18    13    17    1
    19    17    18   ar
    20    18    19   ar
    21    19    20   ar
    22    20    21   ar
    23    12    15    1
    24    15    16    1
    25    10     1   ar
    26    21    17   ar
    27    16     2    1
    28    10     4   ar
@<TRIPOS>MOLECULE
*****
 25 28 0 0 0
SMALL
GASTEIGER

@<TRIPOS>ATOM
      1 N           3.5903   -2.2536   20.1973 N.ar    1  UNL1       -0.3256
      2 C           4.3768   -2.6269   21.4188 C.ar    1  UNL1        0.0367
      3 C           3.8962   -1.7765   22.5572 C.ar    1  UNL1        0.0109
      4 C           2.8127   -0.8777   22.0393 C.ar    1  UNL1        0.0167
      5 C           1.9739    0.1711   22.7073 C.ar    1  UNL1        0.0308
      6 C           0.9459    0.9250   21.9169 C.ar    1  UNL1        0.1402
      7 F           0.1070    1.9739   22.5849 F       1  UNL1       -0.2042
      8 C           0.7569    0.6301   20.4583 C.ar    1  UNL1        0.0311
      9 C           1.5957   -0.4187   19.7903 C.ar    1  UNL1        0.0195
     10 C           2.6236   -1.1726   20.5808 C.ar    1  UNL1        0.0598
     11 C           4.5073   -1.9305   23.9184 C.3     1  UNL1        0.1216
     12 N           5.5990   -2.9348   24.1412 N.am    1  UNL1       -0.2711
     13 C           6.2101   -3.0888   25.5025 C.2     1  UNL1        0.2553
     14 O           5.7295   -2.2384   26.6408 O.2     1  UNL1       -0.2693
     15 C           6.0795   -3.7852   23.0028 C.3     1  UNL1        0.1003
     16 C           5.4684   -3.6312   21.6416 C.3     1  UNL1        0.0650
     17 C           7.3017   -4.0931   25.7251 C.ar    1  UNL1        0.0830
     18 C           7.1112   -5.5505   26.0252 C.ar    1  UNL1        0.0116
     19 C           8.4672   -6.1745   26.1724 C.ar    1  UNL1        0.0076
     20 C           9.4958   -5.1030   25.9633 C.ar    1  UNL1        0.0356
     21 S           8.7755   -3.8166   25.6869 S.2     1  UNL1       -0.0819
     22 C           3.7435   -2.8557   18.8320 C.3     1  UNL1        0.1474
     23 O           6.1207   -2.6628   17.8017 O.co2   1  UNL1       -0.5472
     24 C           4.6830   -2.2364   17.8403 C.2     1  UNL1        0.0732
     25 O           4.1851   -1.1906   16.8872 O.co2   1  UNL1       -0.5472
@<TRIPOS>UNITY_ATOM_ATTR
23 1
charge -1
@<TRIPOS>BOND
     1    23    24   ar
     2    24    25   ar
     3    24    22    1
     4    22     1    1
     5     1     2   ar
     6     2     3   ar
     7     3     4   ar
     8     4     5   ar
     9     5     6   ar
    10     6     7    1
    11     6     8   ar
    12     8     9   ar
    13     9    10   ar
    14     3    11    1
    15    11    12    1
    16    12    13   am
    17    13    14    2
    18    13    17    1
    19    17    18   ar
    20    18    19   ar
    21    19    20   ar
    22    20    21   ar
    23    12    15    1
    24    15    16    1
    25    10     1   ar
    26    21    17   ar
    27    16     2    1
    28    10     4   ar
@<TRIPOS>MOLECULE
*****
 25 28 0 0 0
SMALL
GASTEIGER

@<TRIPOS>ATOM
      1 N          -7.7296  -16.7383   24.0688 N.ar    1  UNL1       -0.3256
      2 C          -6.5683  -17.1897   23.2336 C.ar    1  UNL1        0.0367
      3 C          -7.0078  -18.3796   22.4331 C.ar    1  UNL1        0.0109
      4 C          -8.4408  -18.6636   22.7735 C.ar    1  UNL1        0.0167
      5 C          -9.3971  -19.7149   22.2936 C.ar    1  UNL1        0.0308
      6 C         -10.7994  -19.7517   22.8246 C.ar    1  UNL1        0.1402
      7 F         -11.7558  -20.8030   22.3447 F       1  UNL1       -0.2042
      8 C         -11.2455  -18.7374   23.8356 C.ar    1  UNL1        0.0311
      9 C         -10.2893  -17.6861   24.3155 C.ar    1  UNL1        0.0195
     10 C          -8.8869  -17.6492   23.7845 C.ar    1  UNL1        0.0598
     11 C          -6.0465  -19.0507   21.4976 C.3     1  UNL1        0.1216
     12 N          -4.6455  -18.5319   21.3626 N.am    1  UNL1       -0.2711
     13 C          -3.6841  -19.2032   20.4270 C.2     1  UNL1        0.2553
     14 O          -4.1236  -20.3931   19.6264 O.2     1  UNL1       -0.2693
     15 C          -4.2059  -17.3420   22.1631 C.3     1  UNL1        0.1003
     16 C          -5.1673  -16.6709   23.0986 C.3     1  UNL1        0.0650
     17 C          -2.2831  -18.6843   20.2920 C.ar    1  UNL1        0.0830
     18 C          -1.2002  -18.7912   21.3244 C.ar    1  UNL1        0.0116
     19 C           0.0331  -18.1405   20.7716 C.ar    1  UNL1        0.0076
     20 C          -0.2877  -17.6315   19.3975 C.ar    1  UNL1        0.0356
     21 S          -1.7192  -17.9676   19.1011 S.2     1  UNL1       -0.0819
     22 C          -7.7331  -15.5794   25.0212 C.3     1  UNL1        0.1474
     23 O          -5.4409  -14.7560   25.9256 O.co2   1  UNL1       -0.5472
     24 C          -6.7203  -15.5132   26.1256 C.2     1  UNL1        0.0732
     25 O          -6.9867  -16.2040   27.4301 O.co2   1  UNL1       -0.5472
@<TRIPOS>UNITY_ATOM_ATTR
23 1
charge -1
@<TRIPOS>BOND
     1    23    24   ar
     2    24    25   ar
     3    24    22    1
     4    22     1    1
     5     1     2   ar
     6     2     3   ar
     7     3     4   ar
     8     4     5   ar
     9     5     6   ar
    10     6     7    1
    11     6     8   ar
    12     8     9   ar
    13     9    10   ar
    14     3    11    1
    15    11    12    1
    16    12    13   am
    17    13    14    2
    18    13    17    1
    19    17    18   ar
    20    18    19   ar
    21    19    20   ar
    22    20    21   ar
    23    12    15    1
    24    15    16    1
    25    10     1   ar
    26    21    17   ar
    27    16     2    1
    28    10     4   ar
@<TRIPOS>MOLECULE
*****
 25 28 0 0 0
SMALL
GASTEIGER

@<TRIPOS>ATOM
      1 N           3.1698   -1.8483   20.3687 N.ar    1  UNL1       -0.3256
      2 C           2.1885   -0.7160   20.4398 C.ar    1  UNL1        0.0367
      3 C           2.1808   -0.1972   21.8472 C.ar    1  UNL1        0.0109
      4 C           3.1572   -1.0088   22.6459 C.ar    1  UNL1        0.0167
      5 C           3.5687   -0.9504   24.0871 C.ar    1  UNL1        0.0308
      6 C           4.5915   -1.9126   24.6145 C.ar    1  UNL1        0.1402
      7 F           5.0030   -1.8542   26.0559 F       1  UNL1       -0.2042
      8 C           5.2028   -2.9330   23.7007 C.ar    1  UNL1        0.0311
      9 C           4.7913   -2.9913   22.2595 C.ar    1  UNL1        0.0195
     10 C           3.7685   -2.0292   21.7321 C.ar    1  UNL1        0.0598
     11 C           1.2855    0.9472   22.2197 C.3     1  UNL1        0.1216
     12 N           0.3981    1.5729   21.1847 N.am    1  UNL1       -0.2711
     13 C          -0.4972    2.7174   21.5573 C.2     1  UNL1        0.2553
     14 O          -0.5050    3.2362   22.9647 O.2     1  UNL1       -0.2693
     15 C           0.4058    1.0540   19.7774 C.3     1  UNL1        0.1003
     16 C           1.3011   -0.0904   19.4049 C.3     1  UNL1        0.0650
     17 C          -1.3846    3.3429   20.5223 C.ar    1  UNL1        0.0830
     18 C          -0.9298    4.1487   19.3416 C.ar    1  UNL1        0.0116
     19 C          -2.1467    4.5764   18.5759 C.ar    1  UNL1        0.0076
     20 C          -3.3535    4.0349   19.2833 C.ar    1  UNL1        0.0356
     21 S          -2.8825    3.2726   20.4862 S.2     1  UNL1       -0.0819
     22 C           3.4953   -2.6576   19.1484 C.3     1  UNL1        0.1474
     23 O           5.7027   -2.5705   17.7810 O.co2   1  UNL1       -0.5472
     24 C           4.3187   -2.0571   18.0478 C.2     1  UNL1        0.0732
     25 O           3.7583   -0.9433   17.2140 O.co2   1  UNL1       -0.5472
@<TRIPOS>UNITY_ATOM_ATTR
23 1
charge -1
@<TRIPOS>BOND
     1    23    24   ar
     2    24    25   ar
     3    24    22    1
     4    22     1    1
     5     1     2   ar
     6     2     3   ar
     7     3     4   ar
     8     4     5   ar
     9     5     6   ar
    10     6     7    1
    11     6     8   ar
    12     8     9   ar
    13     9    10   ar
    14     3    11    1
    15    11    12    1
    16    12    13   am
    17    13    14    2
    18    13    17    1
    19    17    18   ar
    20    18    19   ar
    21    19    20   ar
    22    20    21   ar
    23    12    15    1
    24    15    16    1
    25    10     1   ar
    26    21    17   ar
    27    16     2    1
    28    10     4   ar
@<TRIPOS>MOLECULE
*****
 25 28 0 0 0
SMALL
GASTEIGER

@<TRIPOS>ATOM
      1 N           1.0071    5.2410   34.9071 N.ar    1  UNL1       -0.3256
      2 C           0.9888    4.3522   33.6989 C.ar    1  UNL1        0.0367
      3 C           1.7749    3.1160   34.0210 C.ar    1  UNL1        0.0109
      4 C           2.2789    3.2407   35.4283 C.ar    1  UNL1        0.0167
      5 C           3.1087    2.3280   36.2818 C.ar    1  UNL1        0.0308
      6 C           3.4639    2.7287   37.6829 C.ar    1  UNL1        0.1402
      7 F           4.2937    1.8160   38.5365 F       1  UNL1       -0.2042
      8 C           2.9894    4.0420   38.2305 C.ar    1  UNL1        0.0311
      9 C           2.1597    4.9547   37.3770 C.ar    1  UNL1        0.0195
     10 C           1.8044    4.5540   35.9759 C.ar    1  UNL1        0.0598
     11 C           1.9301    2.0364   32.9913 C.3     1  UNL1        0.1216
     12 N           1.2992    2.1931   31.6394 N.am    1  UNL1       -0.2711
     13 C           1.4545    1.1134   30.6096 C.2     1  UNL1        0.2553
     14 O           2.2405   -0.1228   30.9317 O.2     1  UNL1       -0.2693
     15 C           0.5132    3.4294   31.3173 C.3     1  UNL1        0.1003
     16 C           0.3580    4.5089   32.3470 C.3     1  UNL1        0.0650
     17 C           0.8236    1.2702   29.2578 C.ar    1  UNL1        0.0830
     18 C          -0.5616    0.8395   28.8760 C.ar    1  UNL1        0.0116
     19 C          -0.7742    1.1883   27.4327 C.ar    1  UNL1        0.0076
     20 C           0.4796    1.8346   26.9225 C.ar    1  UNL1        0.0356
     21 S           1.4671    1.8852   28.0504 S.2     1  UNL1       -0.0819
     22 C           0.3444    6.5814   35.0257 C.3     1  UNL1        0.1474
     23 O          -0.7903    7.0103   37.3232 O.co2   1  UNL1       -0.5472
     24 C          -0.8976    6.7335   35.8528 C.2     1  UNL1        0.0732
     25 O          -2.2470    6.6089   35.2097 O.co2   1  UNL1       -0.5472
@<TRIPOS>UNITY_ATOM_ATTR
23 1
charge -1
@<TRIPOS>BOND
     1    23    24   ar
     2    24    25   ar
     3    24    22    1
     4    22     1    1
     5     1     2   ar
     6     2     3   ar
     7     3     4   ar
     8     4     5   ar
     9     5     6   ar
    10     6     7    1
    11     6     8   ar
    12     8     9   ar
    13     9    10   ar
    14     3    11    1
    15    11    12    1
    16    12    13   am
    17    13    14    2
    18    13    17    1
    19    17    18   ar
    20    18    19   ar
    21    19    20   ar
    22    20    21   ar
    23    12    15    1
    24    15    16    1
    25    10     1   ar
    26    21    17   ar
    27    16     2    1
    28    10     4   ar
@<TRIPOS>MOLECULE
*****
 25 28 0 0 0
SMALL
GASTEIGER

@<TRIPOS>ATOM
      1 N           4.6233   -2.8922   20.8985 N.ar    1  UNL1       -0.3256
      2 C           5.1504   -3.0265   22.2964 C.ar    1  UNL1        0.0367
      3 C           4.4199   -2.0445   23.1636 C.ar    1  UNL1        0.0109
      4 C           3.4413   -1.3033   22.3016 C.ar    1  UNL1        0.0167
      5 C           2.4519   -0.2190   22.6106 C.ar    1  UNL1        0.0308
      6 C           1.5883    0.3414   21.5197 C.ar    1  UNL1        0.1402
      7 F           0.5989    1.4258   21.8287 F       1  UNL1       -0.2042
      8 C           1.7140   -0.1825   20.1198 C.ar    1  UNL1        0.0311
      9 C           2.7033   -1.2668   19.8108 C.ar    1  UNL1        0.0195
     10 C           3.5669   -1.8272   20.9017 C.ar    1  UNL1        0.0598
     11 C           4.7402   -1.9520   24.6260 C.3     1  UNL1        0.1216
     12 N           5.7910   -2.8416   25.2213 N.am    1  UNL1       -0.2711
     13 C           6.1113   -2.7492   26.6839 C.2     1  UNL1        0.2553
     14 O           5.3808   -1.7672   27.5510 O.2     1  UNL1       -0.2693
     15 C           6.5216   -3.8237   24.3542 C.3     1  UNL1        0.1003
     16 C           6.2012   -3.9161   22.8917 C.3     1  UNL1        0.0650
     17 C           7.1622   -3.6388   27.2791 C.ar    1  UNL1        0.0830
     18 C           8.6391   -3.3767   27.2852 C.ar    1  UNL1        0.0116
     19 C           9.3104   -4.5225   27.9826 C.ar    1  UNL1        0.0076
     20 C           8.2483   -5.4929   28.4075 C.ar    1  UNL1        0.0356
     21 S           6.9207   -4.9467   27.9727 S.2     1  UNL1       -0.0819
     22 C           5.0734   -3.6839   19.7066 C.3     1  UNL1        0.1474
     23 O           4.8925   -6.1738   18.9872 O.co2   1  UNL1       -0.5472
     24 C           4.2496   -4.8384   19.2185 C.2     1  UNL1        0.0732
     25 O           2.7828   -4.6577   18.9616 O.co2   1  UNL1       -0.5472
@<TRIPOS>UNITY_ATOM_ATTR
23 1
charge -1
@<TRIPOS>BOND
     1    23    24   ar
     2    24    25   ar
     3    24    22    1
     4    22     1    1
     5     1     2   ar
     6     2     3   ar
     7     3     4   ar
     8     4     5   ar
     9     5     6   ar
    10     6     7    1
    11     6     8   ar
    12     8     9   ar
    13     9    10   ar
    14     3    11    1
    15    11    12    1
    16    12    13   am
    17    13    14    2
    18    13    17    1
    19    17    18   ar
    20    18    19   ar
    21    19    20   ar
    22    20    21   ar
    23    12    15    1
    24    15    16    1
    25    10     1   ar
    26    21    17   ar
    27    16     2    1
    28    10     4   ar
@<TRIPOS>MOLECULE
*****
 25 28 0 0 0
SMALL
GASTEIGER

@<TRIPOS>ATOM
      1 N           3.7535   -0.2520   31.9542 N.ar    1  UNL1       -0.3256
      2 C           3.5640    0.7060   33.0927 C.ar    1  UNL1        0.0367
      3 C           2.3924    1.5848   32.7688 C.ar    1  UNL1        0.0109
      4 C           1.8578    1.1699   31.4301 C.ar    1  UNL1        0.0167
      5 C           0.7137    1.6792   30.6045 C.ar    1  UNL1        0.0308
      6 C           0.4109    1.0532   29.2755 C.ar    1  UNL1        0.1402
      7 F          -0.7333    1.5625   28.4498 F       1  UNL1       -0.2042
      8 C           1.2521   -0.0820   28.7721 C.ar    1  UNL1        0.0311
      9 C           2.3962   -0.5913   29.5976 C.ar    1  UNL1        0.0195
     10 C           2.6991    0.0347   30.9267 C.ar    1  UNL1        0.0598
     11 C           1.9637    2.6493   33.7347 C.3     1  UNL1        0.1216
     12 N           2.7066    2.8350   35.0245 N.am    1  UNL1       -0.2711
     13 C           2.2779    3.8996   35.9905 C.2     1  UNL1        0.2553
     14 O           1.1062    4.7785   35.6665 O.2     1  UNL1       -0.2693
     15 C           3.8782    1.9562   35.3485 C.3     1  UNL1        0.1003
     16 C           4.3069    0.8917   34.3826 C.3     1  UNL1        0.0650
     17 C           3.0208    4.0852   37.2803 C.ar    1  UNL1        0.0830
     18 C           2.7549    3.3557   38.5637 C.ar    1  UNL1        0.0116
     19 C           3.7298    3.8525   39.5897 C.ar    1  UNL1        0.0076
     20 C           4.5982    4.8890   38.9405 C.ar    1  UNL1        0.0356
     21 S           4.1600    5.0328   37.5131 S.2     1  UNL1       -0.0819
     22 C           4.8118   -1.3110   31.8598 C.3     1  UNL1        0.1474
     23 O           3.6980   -2.5995   33.8217 O.co2   1  UNL1       -0.5472
     24 C           4.7929   -2.4765   32.8037 C.2     1  UNL1        0.0732
     25 O           5.8688   -3.5190   32.7298 O.co2   1  UNL1       -0.5472
@<TRIPOS>UNITY_ATOM_ATTR
23 1
charge -1
@<TRIPOS>BOND
     1    23    24   ar
     2    24    25   ar
     3    24    22    1
     4    22     1    1
     5     1     2   ar
     6     2     3   ar
     7     3     4   ar
     8     4     5   ar
     9     5     6   ar
    10     6     7    1
    11     6     8   ar
    12     8     9   ar
    13     9    10   ar
    14     3    11    1
    15    11    12    1
    16    12    13   am
    17    13    14    2
    18    13    17    1
    19    17    18   ar
    20    18    19   ar
    21    19    20   ar
    22    20    21   ar
    23    12    15    1
    24    15    16    1
    25    10     1   ar
    26    21    17   ar
    27    16     2    1
    28    10     4   ar
