@<TRIPOS>MOLECULE
*****
 33 35 0 0 0
SMALL
GASTEIGER

@<TRIPOS>ATOM
      1 C          -7.5528  -15.6554   25.1950 C.ar    1  UNL1       -0.0024
      2 C          -7.5302  -15.5901   26.6934 C.ar    1  UNL1       -0.0026
      3 C          -8.4052  -16.5057   27.4973 C.ar    1  UNL1       -0.0001
      4 C          -9.3028  -17.4864   26.8028 C.ar    1  UNL1        0.0045
      5 C          -9.3254  -17.5517   25.3043 C.ar    1  UNL1        0.0531
      6 C          -8.4504  -16.6362   24.5005 C.ar    1  UNL1        0.0019
      7 C         -10.2230  -18.5325   24.6098 C.2     1  UNL1        0.2458
      8 O         -11.6584  -18.6605   25.0258 O.2     1  UNL1       -0.2701
      9 N          -9.6851  -19.3853   23.4991 N.am    1  UNL1       -0.3005
     10 H          -8.7430  -19.3012   23.2260 H       1  UNL1        0.1497
     11 C         -10.5827  -20.3660   22.8045 C.3     1  UNL1        0.0944
     12 C         -11.0239  -20.1104   21.3939 C.3     1  UNL1        0.0477
     13 C         -11.4614  -18.7359   20.9823 C.ar    1  UNL1       -0.0174
     14 C         -12.5028  -18.0097   21.7811 C.ar    1  UNL1        0.0165
     15 C         -12.9404  -16.6353   21.3695 C.ar    1  UNL1        0.0986
     16 N         -12.3365  -15.9870   20.1591 N.ar    1  UNL1       -0.2423
     17 C         -11.2951  -16.7132   19.3603 C.ar    1  UNL1        0.0986
     18 C         -10.8576  -18.0876   19.7719 C.ar    1  UNL1        0.0165
     19 C          -6.6778  -14.7399   24.3911 C.3     1  UNL1        0.1166
     20 C          -4.6715  -16.2861   23.8129 C.2     1  UNL1        0.2462
     21 O          -4.5722  -16.6954   25.2525 O.2     1  UNL1       -0.2701
     22 N          -5.7243  -15.3083   23.3822 N.am    1  UNL1       -0.2969
     23 H          -5.7895  -15.0396   22.4373 H       1  UNL1        0.1501
     24 C          -1.8111  -17.9912   20.7863 C.ar    1  UNL1        0.1724
     25 C          -1.7080  -16.5493   21.1864 C.ar    1  UNL1        0.0402
     26 C          -2.6615  -15.9809   22.1953 C.ar    1  UNL1        0.0078
     27 C          -3.7180  -16.8544   22.8040 C.ar    1  UNL1        0.0566
     28 C          -3.8211  -18.2964   22.4039 C.ar    1  UNL1        0.0446
     29 C          -2.8677  -18.8648   21.3950 C.ar    1  UNL1        0.1725
     30 C           0.5346  -18.0120   19.6695 C.3     1  UNL1        0.2526
     31 O          -0.8577  -18.5596   19.7774 O.3     1  UNL1       -0.4684
     32 O          -2.9708  -20.3068   20.9948 O.3     1  UNL1       -0.4684
     33 C          -3.9980  -20.7343   19.9888 C.3     1  UNL1        0.2526
@<TRIPOS>BOND
     1    30    31    1
     2    31    24    1
     3    24    25   ar
     4    25    26   ar
     5    26    27   ar
     6    27    20    1
     7    20    21    2
     8    20    22   am
     9    22    19    1
    10    19     1    1
    11     1     2   ar
    12     2     3   ar
    13     3     4   ar
    14     4     5   ar
    15     5     7    1
    16     7     8    2
    17     7     9   am
    18     9    11    1
    19    11    12    1
    20    12    13    1
    21    13    14   ar
    22    14    15   ar
    23    15    16   ar
    24    16    17   ar
    25    17    18   ar
    26     5     6   ar
    27    27    28   ar
    28    28    29   ar
    29    29    32    1
    30    32    33    1
    31    29    24   ar
    32     6     1   ar
    33    18    13   ar
    34    22    23    1
    35     9    10    1
@<TRIPOS>MOLECULE
*****
 33 35 0 0 0
SMALL
GASTEIGER

@<TRIPOS>ATOM
      1 C          -7.3895  -15.5189   25.3304 C.ar    1  UNL1       -0.0024
      2 C          -7.3897  -15.4151   26.8268 C.ar    1  UNL1       -0.0026
      3 C          -8.2708  -16.3156   27.6410 C.ar    1  UNL1       -0.0001
      4 C          -9.1517  -17.3198   26.9588 C.ar    1  UNL1        0.0045
      5 C          -9.1515  -17.4236   25.4623 C.ar    1  UNL1        0.0531
      6 C          -8.2705  -16.5232   24.6482 C.ar    1  UNL1        0.0019
      7 C         -10.0325  -18.4279   24.7801 C.2     1  UNL1        0.2458
      8 O         -10.1002  -19.8362   25.2918 O.2     1  UNL1       -0.2701
      9 N         -10.8457  -18.0237   23.5862 N.am    1  UNL1       -0.3005
     10 H         -10.8012  -17.0993   23.2503 H       1  UNL1        0.1497
     11 C         -11.7266  -19.0279   22.9039 C.3     1  UNL1        0.0944
     12 C         -11.1208  -20.0861   22.0303 C.3     1  UNL1        0.0477
     13 C          -9.8922  -19.7814   21.2255 C.ar    1  UNL1       -0.0174
     14 C          -8.5831  -19.5409   21.9171 C.ar    1  UNL1        0.0165
     15 C          -7.3545  -19.2363   21.1123 C.ar    1  UNL1        0.0986
     16 N          -7.4350  -19.1720   19.6159 N.ar    1  UNL1       -0.2423
     17 C          -8.7441  -19.4125   18.9242 C.ar    1  UNL1        0.0986
     18 C          -9.9727  -19.7172   19.7291 C.ar    1  UNL1        0.0165
     19 C          -6.5084  -14.6185   24.5162 C.3     1  UNL1        0.1166
     20 C          -4.6105  -16.2701   23.8684 C.2     1  UNL1        0.2462
     21 O          -4.5490  -16.7555   25.2863 O.2     1  UNL1       -0.2701
     22 N          -5.5902  -15.2016   23.4833 N.am    1  UNL1       -0.2969
     23 H          -5.6305  -14.8829   22.5527 H       1  UNL1        0.1501
     24 C          -1.8556  -18.0194   20.7699 C.ar    1  UNL1        0.1724
     25 C          -1.7245  -16.5775   21.1616 C.ar    1  UNL1        0.0402
     26 C          -2.6428  -15.9943   22.1945 C.ar    1  UNL1        0.0078
     27 C          -3.6922  -16.8532   22.8356 C.ar    1  UNL1        0.0566
     28 C          -3.8233  -18.2952   22.4439 C.ar    1  UNL1        0.0446
     29 C          -2.9050  -18.8783   21.4110 C.ar    1  UNL1        0.1725
     30 C           0.4592  -18.0748   19.5915 C.3     1  UNL1        0.2526
     31 O          -0.9373  -18.6025   19.7371 O.3     1  UNL1       -0.4684
     32 O          -3.0362  -20.3203   21.0193 O.3     1  UNL1       -0.4684
     33 C          -4.0604  -20.7314   20.0036 C.3     1  UNL1        0.2526
@<TRIPOS>BOND
     1    30    31    1
     2    31    24    1
     3    24    25   ar
     4    25    26   ar
     5    26    27   ar
     6    27    20    1
     7    20    21    2
     8    20    22   am
     9    22    19    1
    10    19     1    1
    11     1     2   ar
    12     2     3   ar
    13     3     4   ar
    14     4     5   ar
    15     5     7    1
    16     7     8    2
    17     7     9   am
    18     9    11    1
    19    11    12    1
    20    12    13    1
    21    13    14   ar
    22    14    15   ar
    23    15    16   ar
    24    16    17   ar
    25    17    18   ar
    26     5     6   ar
    27    27    28   ar
    28    28    29   ar
    29    29    32    1
    30    32    33    1
    31    29    24   ar
    32     6     1   ar
    33    18    13   ar
    34    22    23    1
    35     9    10    1
@<TRIPOS>MOLECULE
*****
 33 35 0 0 0
SMALL
GASTEIGER

@<TRIPOS>ATOM
      1 C          -9.4517  -19.2938   20.3810 C.ar    1  UNL1       -0.0024
      2 C         -10.8526  -19.0061   19.9286 C.ar    1  UNL1       -0.0026
      3 C         -11.9261  -18.7325   20.9399 C.ar    1  UNL1       -0.0001
      4 C         -11.5987  -18.7466   22.4037 C.ar    1  UNL1        0.0045
      5 C         -10.1977  -19.0343   22.8561 C.ar    1  UNL1        0.0531
      6 C          -9.1243  -19.3079   21.8448 C.ar    1  UNL1        0.0019
      7 C          -9.8703  -19.0484   24.3199 C.2     1  UNL1        0.2458
      8 O          -9.5928  -20.3489   25.0138 O.2     1  UNL1       -0.2701
      9 N          -9.8204  -17.7619   25.0897 N.am    1  UNL1       -0.3005
     10 H         -10.0026  -16.9083   24.6342 H       1  UNL1        0.1497
     11 C          -9.4930  -17.7760   26.5534 C.3     1  UNL1        0.0944
     12 C          -8.6440  -16.6888   27.1425 C.3     1  UNL1        0.0477
     13 C          -7.5770  -16.0379   26.3132 C.ar    1  UNL1       -0.0174
     14 C          -6.2098  -15.8168   26.8892 C.ar    1  UNL1        0.0165
     15 C          -5.1428  -15.1659   26.0598 C.ar    1  UNL1        0.0986
     16 N          -5.4430  -14.7360   24.6545 N.ar    1  UNL1       -0.2423
     17 C          -6.8102  -14.9571   24.0785 C.ar    1  UNL1        0.0986
     18 C          -7.8772  -15.6080   24.9078 C.ar    1  UNL1        0.0165
     19 C          -8.3782  -19.5674   19.3697 C.3     1  UNL1        0.1166
     20 C          -5.9267  -19.9027   20.1621 C.2     1  UNL1        0.2462
     21 O          -6.2415  -21.3208   20.5358 O.2     1  UNL1       -0.2701
     22 N          -6.9951  -19.0260   19.5790 N.am    1  UNL1       -0.2969
     23 H          -6.7885  -18.0952   19.3337 H       1  UNL1        0.1501
     24 C          -1.7774  -18.2784   20.7901 C.ar    1  UNL1        0.1724
     25 C          -2.1879  -18.7851   19.4393 C.ar    1  UNL1        0.0402
     26 C          -3.5711  -19.3265   19.2300 C.ar    1  UNL1        0.0078
     27 C          -4.5436  -19.3612   20.3714 C.ar    1  UNL1        0.0566
     28 C          -4.1330  -18.8545   21.7222 C.ar    1  UNL1        0.0446
     29 C          -2.7499  -18.3130   21.9315 C.ar    1  UNL1        0.1725
     30 C           0.5943  -17.7483   19.8713 C.3     1  UNL1        0.2526
     31 O          -0.3942  -17.7369   20.9994 O.3     1  UNL1       -0.4684
     32 O          -2.3394  -17.8063   23.2823 O.3     1  UNL1       -0.4684
     33 C          -3.3380  -17.7577   24.4005 C.3     1  UNL1        0.2526
@<TRIPOS>BOND
     1    30    31    1
     2    31    24    1
     3    24    25   ar
     4    25    26   ar
     5    26    27   ar
     6    27    20    1
     7    20    21    2
     8    20    22   am
     9    22    19    1
    10    19     1    1
    11     1     2   ar
    12     2     3   ar
    13     3     4   ar
    14     4     5   ar
    15     5     7    1
    16     7     8    2
    17     7     9   am
    18     9    11    1
    19    11    12    1
    20    12    13    1
    21    13    14   ar
    22    14    15   ar
    23    15    16   ar
    24    16    17   ar
    25    17    18   ar
    26     5     6   ar
    27    27    28   ar
    28    28    29   ar
    29    29    32    1
    30    32    33    1
    31    29    24   ar
    32     6     1   ar
    33    18    13   ar
    34    22    23    1
    35     9    10    1
@<TRIPOS>MOLECULE
*****
 33 35 0 0 0
SMALL
GASTEIGER

@<TRIPOS>ATOM
      1 C          -9.5495  -19.2399   20.4140 C.ar    1  UNL1       -0.0024
      2 C         -10.9336  -18.8711   19.9689 C.ar    1  UNL1       -0.0026
      3 C         -11.9765  -18.5091   20.9845 C.ar    1  UNL1       -0.0001
      4 C         -11.6353  -18.5159   22.4451 C.ar    1  UNL1        0.0045
      5 C         -10.2511  -18.8847   22.8902 C.ar    1  UNL1        0.0531
      6 C          -9.2082  -19.2467   21.8746 C.ar    1  UNL1        0.0019
      7 C          -9.9098  -18.8915   24.3508 C.2     1  UNL1        0.2458
      8 O          -9.7539  -20.1938   25.0786 O.2     1  UNL1       -0.2701
      9 N          -9.7244  -17.5958   25.0837 N.am    1  UNL1       -0.3005
     10 H          -9.8268  -16.7411   24.6061 H       1  UNL1        0.1497
     11 C          -9.3832  -17.6026   26.5444 C.3     1  UNL1        0.0944
     12 C          -8.4542  -16.5655   27.1024 C.3     1  UNL1        0.0477
     13 C          -7.3940  -15.9612   26.2302 C.ar    1  UNL1       -0.0174
     14 C          -7.6705  -15.7116   24.7772 C.ar    1  UNL1        0.0165
     15 C          -6.6103  -15.1072   23.9050 C.ar    1  UNL1        0.0986
     16 N          -5.2736  -14.7525   24.4858 N.ar    1  UNL1       -0.2423
     17 C          -4.9971  -15.0021   25.9387 C.ar    1  UNL1        0.0986
     18 C          -6.0573  -15.6065   26.8109 C.ar    1  UNL1        0.0165
     19 C          -8.5066  -19.6019   19.3984 C.3     1  UNL1        0.1166
     20 C          -6.0981  -20.0558   20.2607 C.2     1  UNL1        0.2462
     21 O          -6.5268  -21.4090   20.7455 O.2     1  UNL1       -0.2701
     22 N          -7.0880  -19.1523   19.5871 N.am    1  UNL1       -0.2969
     23 H          -6.8067  -18.2641   19.2689 H       1  UNL1        0.1501
     24 C          -1.8426  -18.7069   20.8268 C.ar    1  UNL1        0.1724
     25 C          -2.6606  -19.1258   22.0122 C.ar    1  UNL1        0.0402
     26 C          -4.0791  -19.5755   21.8235 C.ar    1  UNL1        0.0078
     27 C          -4.6796  -19.6062   20.4494 C.ar    1  UNL1        0.0566
     28 C          -3.8616  -19.1873   19.2639 C.ar    1  UNL1        0.0446
     29 C          -2.4431  -18.7376   19.4526 C.ar    1  UNL1        0.1725
     30 C           0.1079  -17.1006   20.2224 C.3     1  UNL1        0.2526
     31 O          -0.4240  -18.2573   21.0155 O.3     1  UNL1       -0.4684
     32 O          -1.6251  -18.3187   18.2671 O.3     1  UNL1       -0.4684
     33 C          -2.1218  -17.2330   17.3591 C.3     1  UNL1        0.2526
@<TRIPOS>BOND
     1    30    31    1
     2    31    24    1
     3    24    25   ar
     4    25    26   ar
     5    26    27   ar
     6    27    20    1
     7    20    21    2
     8    20    22   am
     9    22    19    1
    10    19     1    1
    11     1     2   ar
    12     2     3   ar
    13     3     4   ar
    14     4     5   ar
    15     5     7    1
    16     7     8    2
    17     7     9   am
    18     9    11    1
    19    11    12    1
    20    12    13    1
    21    13    14   ar
    22    14    15   ar
    23    15    16   ar
    24    16    17   ar
    25    17    18   ar
    26     5     6   ar
    27    27    28   ar
    28    28    29   ar
    29    29    32    1
    30    32    33    1
    31    29    24   ar
    32     6     1   ar
    33    18    13   ar
    34    22    23    1
    35     9    10    1
@<TRIPOS>MOLECULE
*****
 33 35 0 0 0
SMALL
GASTEIGER

@<TRIPOS>ATOM
      1 C          -6.6374  -15.6873   25.6847 C.ar    1  UNL1       -0.0024
      2 C          -6.8637  -15.8235   27.1612 C.ar    1  UNL1       -0.0026
      3 C          -8.1437  -16.4156   27.6724 C.ar    1  UNL1       -0.0001
      4 C          -9.1973  -16.8715   26.7069 C.ar    1  UNL1        0.0045
      5 C          -8.9709  -16.7353   25.2303 C.ar    1  UNL1        0.0531
      6 C          -7.6910  -16.1432   24.7192 C.ar    1  UNL1        0.0019
      7 C         -10.0245  -17.1912   24.2649 C.2     1  UNL1        0.2458
      8 O         -10.8411  -18.4125   24.5675 O.2     1  UNL1       -0.2701
      9 N         -10.2615  -16.4258   22.9968 N.am    1  UNL1       -0.3005
     10 H          -9.7255  -15.6242   22.7981 H       1  UNL1        0.1497
     11 C         -11.3151  -16.8817   22.0313 C.3     1  UNL1        0.0944
     12 C         -11.3249  -18.3013   21.5472 C.3     1  UNL1        0.0477
     13 C         -10.1137  -18.8714   20.8704 C.ar    1  UNL1       -0.0174
     14 C          -8.8105  -18.9523   21.6087 C.ar    1  UNL1        0.0165
     15 C          -7.5992  -19.5223   20.9320 C.ar    1  UNL1        0.0986
     16 N          -7.6912  -20.0114   19.5170 N.ar    1  UNL1       -0.2423
     17 C          -8.9944  -19.9305   18.7787 C.ar    1  UNL1        0.0986
     18 C         -10.2056  -19.3604   19.4554 C.ar    1  UNL1        0.0165
     19 C          -5.3575  -15.0952   25.1735 C.3     1  UNL1        0.1166
     20 C          -4.0836  -16.8829   23.7837 C.2     1  UNL1        0.2462
     21 O          -3.9540  -17.7414   25.0069 O.2     1  UNL1       -0.2701
     22 N          -4.7854  -15.5598   23.8670 N.am    1  UNL1       -0.2969
     23 H          -4.8704  -14.9963   23.0642 H       1  UNL1        0.1501
     24 C          -2.3673  -18.2767   19.8643 C.ar    1  UNL1        0.1724
     25 C          -3.6412  -18.8768   20.3810 C.ar    1  UNL1        0.0402
     26 C          -4.2133  -18.4122   21.6875 C.ar    1  UNL1        0.0078
     27 C          -3.5115  -17.3475   22.4773 C.ar    1  UNL1        0.0566
     28 C          -2.2376  -16.7474   21.9606 C.ar    1  UNL1        0.0446
     29 C          -1.6655  -17.2120   20.6541 C.ar    1  UNL1        0.1725
     30 C          -1.7267  -17.8000   17.3920 C.3     1  UNL1        0.2526
     31 O          -1.7952  -18.7413   18.5579 O.3     1  UNL1       -0.4684
     32 O          -0.3915  -16.6118   20.1375 O.3     1  UNL1       -0.4684
     33 C           0.8737  -17.4175   20.1438 C.3     1  UNL1        0.2526
@<TRIPOS>BOND
     1    30    31    1
     2    31    24    1
     3    24    25   ar
     4    25    26   ar
     5    26    27   ar
     6    27    20    1
     7    20    21    2
     8    20    22   am
     9    22    19    1
    10    19     1    1
    11     1     2   ar
    12     2     3   ar
    13     3     4   ar
    14     4     5   ar
    15     5     7    1
    16     7     8    2
    17     7     9   am
    18     9    11    1
    19    11    12    1
    20    12    13    1
    21    13    14   ar
    22    14    15   ar
    23    15    16   ar
    24    16    17   ar
    25    17    18   ar
    26     5     6   ar
    27    27    28   ar
    28    28    29   ar
    29    29    32    1
    30    32    33    1
    31    29    24   ar
    32     6     1   ar
    33    18    13   ar
    34    22    23    1
    35     9    10    1
@<TRIPOS>MOLECULE
*****
 33 35 0 0 0
SMALL
GASTEIGER

@<TRIPOS>ATOM
      1 C           8.2299   -8.2644   27.5430 C.ar    1  UNL1       -0.0024
      2 C           8.7732   -7.3481   28.5990 C.ar    1  UNL1       -0.0026
      3 C           8.9200   -5.8822   28.3169 C.ar    1  UNL1       -0.0001
      4 C           8.5236   -5.3326   26.9787 C.ar    1  UNL1        0.0045
      5 C           7.9804   -6.2490   25.9226 C.ar    1  UNL1        0.0531
      6 C           7.8335   -7.7149   26.2048 C.ar    1  UNL1        0.0019
      7 C           7.5840   -5.6994   24.5844 C.2     1  UNL1        0.2458
      8 O           8.1543   -6.2936   23.3308 O.2     1  UNL1       -0.2701
      9 N           6.6171   -4.5556   24.4998 N.am    1  UNL1       -0.3005
     10 H           6.2428   -4.1657   25.3226 H       1  UNL1        0.1497
     11 C           6.2207   -4.0061   23.1616 C.3     1  UNL1        0.0944
     12 C           4.9344   -3.2490   23.0129 C.3     1  UNL1        0.0477
     13 C           4.4325   -2.8841   21.6473 C.ar    1  UNL1       -0.0174
     14 C           4.3887   -3.9195   20.5629 C.ar    1  UNL1        0.0165
     15 C           3.8868   -3.5546   19.1973 C.ar    1  UNL1        0.0986
     16 N           3.4286   -2.1542   18.9161 N.ar    1  UNL1       -0.2423
     17 C           3.4724   -1.1188   20.0004 C.ar    1  UNL1        0.0986
     18 C           3.9744   -1.4837   21.3660 C.ar    1  UNL1        0.0165
     19 C           8.0831   -9.7304   27.8252 C.3     1  UNL1        0.1166
     20 C           6.5771  -11.8344   28.0598 C.2     1  UNL1        0.2462
     21 O           7.7567  -12.6247   28.5433 O.2     1  UNL1       -0.2701
     22 N           6.7403  -10.3872   27.7007 N.am    1  UNL1       -0.2969
     23 H           5.9660   -9.8685   27.3834 H       1  UNL1        0.1501
     24 C           2.5487  -13.8049   27.6866 C.ar    1  UNL1        0.1724
     25 C           3.6508  -14.1649   26.7348 C.ar    1  UNL1        0.0402
     26 C           4.9936  -13.5080   26.8592 C.ar    1  UNL1        0.0078
     27 C           5.2343  -12.4912   27.9354 C.ar    1  UNL1        0.0566
     28 C           4.1323  -12.1313   28.8871 C.ar    1  UNL1        0.0446
     29 C           2.7895  -12.7881   28.7627 C.ar    1  UNL1        0.1725
     30 C           0.9665  -15.8037   28.1882 C.3     1  UNL1        0.2526
     31 O           1.2060  -14.4618   27.5621 O.3     1  UNL1       -0.4684
     32 O           1.6874  -12.4281   29.7145 O.3     1  UNL1       -0.4684
     33 C           1.2581  -13.4048   30.7689 C.3     1  UNL1        0.2526
@<TRIPOS>BOND
     1    30    31    1
     2    31    24    1
     3    24    25   ar
     4    25    26   ar
     5    26    27   ar
     6    27    20    1
     7    20    21    2
     8    20    22   am
     9    22    19    1
    10    19     1    1
    11     1     2   ar
    12     2     3   ar
    13     3     4   ar
    14     4     5   ar
    15     5     7    1
    16     7     8    2
    17     7     9   am
    18     9    11    1
    19    11    12    1
    20    12    13    1
    21    13    14   ar
    22    14    15   ar
    23    15    16   ar
    24    16    17   ar
    25    17    18   ar
    26     5     6   ar
    27    27    28   ar
    28    28    29   ar
    29    29    32    1
    30    32    33    1
    31    29    24   ar
    32     6     1   ar
    33    18    13   ar
    34    22    23    1
    35     9    10    1
@<TRIPOS>MOLECULE
*****
 33 35 0 0 0
SMALL
GASTEIGER

@<TRIPOS>ATOM
      1 C          -8.7300  -16.3153   24.7966 C.ar    1  UNL1       -0.0024
      2 C          -8.8150  -15.7394   26.1790 C.ar    1  UNL1       -0.0026
      3 C          -7.5823  -15.2048   26.8459 C.ar    1  UNL1       -0.0001
      4 C          -6.2646  -15.2462   26.1303 C.ar    1  UNL1        0.0045
      5 C          -6.1797  -15.8221   24.7478 C.ar    1  UNL1        0.0531
      6 C          -7.4124  -16.3567   24.0810 C.ar    1  UNL1        0.0019
      7 C          -4.8620  -15.8635   24.0323 C.2     1  UNL1        0.2458
      8 O          -4.4183  -14.6905   23.2094 O.2     1  UNL1       -0.2701
      9 N          -3.9881  -17.0779   24.1396 N.am    1  UNL1       -0.3005
     10 H          -4.2794  -17.8478   24.6796 H       1  UNL1        0.1497
     11 C          -2.6704  -17.1193   23.4240 C.3     1  UNL1        0.0944
     12 C          -2.2595  -18.3552   22.6799 C.3     1  UNL1        0.0477
     13 C          -2.0439  -18.3006   21.1964 C.ar    1  UNL1       -0.0174
     14 C          -3.1466  -18.7036   20.2629 C.ar    1  UNL1        0.0165
     15 C          -2.9309  -18.6490   18.7795 C.ar    1  UNL1        0.0986
     16 N          -1.6125  -18.1914   18.2296 N.ar    1  UNL1       -0.2423
     17 C          -0.5098  -17.7883   19.1632 C.ar    1  UNL1        0.0986
     18 C          -0.7255  -17.8429   20.6466 C.ar    1  UNL1        0.0165
     19 C          -9.9628  -16.8499   24.1297 C.3     1  UNL1        0.1166
     20 C          -9.5103  -17.5035   21.6563 C.2     1  UNL1        0.2462
     21 O          -9.2954  -16.0591   21.3139 O.2     1  UNL1       -0.2701
     22 N          -9.8440  -17.8990   23.0642 N.am    1  UNL1       -0.2969
     23 H          -9.9851  -18.8470   23.2889 H       1  UNL1        0.1501
     24 C          -9.1539  -20.6507   18.4597 C.ar    1  UNL1        0.1724
     25 C         -10.4146  -19.8475   18.5841 C.ar    1  UNL1        0.0402
     26 C         -10.5333  -18.7984   19.6496 C.ar    1  UNL1        0.0078
     27 C          -9.3915  -18.5526   20.5907 C.ar    1  UNL1        0.0566
     28 C          -8.1309  -19.3559   20.4663 C.ar    1  UNL1        0.0446
     29 C          -8.0121  -20.4049   19.4008 C.ar    1  UNL1        0.1725
     30 C          -9.4391  -21.3858   15.9841 C.3     1  UNL1        0.2526
     31 O          -9.0352  -21.6998   17.3941 O.3     1  UNL1       -0.4684
     32 O          -6.7514  -21.2082   19.2764 O.3     1  UNL1       -0.4684
     33 C          -5.7505  -21.2110   20.3936 C.3     1  UNL1        0.2526
@<TRIPOS>BOND
     1    30    31    1
     2    31    24    1
     3    24    25   ar
     4    25    26   ar
     5    26    27   ar
     6    27    20    1
     7    20    21    2
     8    20    22   am
     9    22    19    1
    10    19     1    1
    11     1     2   ar
    12     2     3   ar
    13     3     4   ar
    14     4     5   ar
    15     5     7    1
    16     7     8    2
    17     7     9   am
    18     9    11    1
    19    11    12    1
    20    12    13    1
    21    13    14   ar
    22    14    15   ar
    23    15    16   ar
    24    16    17   ar
    25    17    18   ar
    26     5     6   ar
    27    27    28   ar
    28    28    29   ar
    29    29    32    1
    30    32    33    1
    31    29    24   ar
    32     6     1   ar
    33    18    13   ar
    34    22    23    1
    35     9    10    1
@<TRIPOS>MOLECULE
*****
 33 35 0 0 0
SMALL
GASTEIGER

@<TRIPOS>ATOM
      1 C           8.8715   -6.0552   28.3553 C.ar    1  UNL1       -0.0024
      2 C           8.6960   -5.5057   26.9707 C.ar    1  UNL1       -0.0026
      3 C           8.3928   -6.4308   25.8295 C.ar    1  UNL1       -0.0001
      4 C           8.2652   -7.9054   26.0729 C.ar    1  UNL1        0.0045
      5 C           8.4408   -8.4549   27.4576 C.ar    1  UNL1        0.0531
      6 C           8.7439   -7.5298   28.5988 C.ar    1  UNL1        0.0019
      7 C           8.3132   -9.9295   27.7010 C.2     1  UNL1        0.2458
      8 O           9.5351  -10.7994   27.6932 O.2     1  UNL1       -0.2701
      9 N           6.9636  -10.5341   27.9523 N.am    1  UNL1       -0.3005
     10 H           6.1616   -9.9632   27.9574 H       1  UNL1        0.1497
     11 C           6.8360  -12.0087   28.1957 C.3     1  UNL1        0.0944
     12 C           5.7812  -12.5265   29.1281 C.3     1  UNL1        0.0477
     13 C           4.4226  -12.8815   28.6006 C.ar    1  UNL1       -0.0174
     14 C           4.2921  -13.6245   27.3041 C.ar    1  UNL1        0.0165
     15 C           2.9335  -13.9795   26.7766 C.ar    1  UNL1        0.0986
     16 N           1.7055  -13.5915   27.5456 N.ar    1  UNL1       -0.2423
     17 C           1.8360  -12.8484   28.8420 C.ar    1  UNL1        0.0986
     18 C           3.1946  -12.4935   29.3695 C.ar    1  UNL1        0.0165
     19 C           9.1746   -5.1301   29.4966 C.3     1  UNL1        0.1166
     20 C           7.1576   -4.1580   30.8144 C.2     1  UNL1        0.2462
     21 O           6.9875   -5.4698   31.5216 O.2     1  UNL1       -0.2701
     22 N           8.2512   -3.9881   29.8019 N.am    1  UNL1       -0.2969
     23 H           8.3629   -3.1271   29.3378 H       1  UNL1        0.1501
     24 C           4.3874   -0.7321   31.7305 C.ar    1  UNL1        0.1724
     25 C           5.0399   -0.8294   30.3834 C.ar    1  UNL1        0.0402
     26 C           5.9633   -1.9714   30.0780 C.ar    1  UNL1        0.0078
     27 C           6.2342   -3.0160   31.1198 C.ar    1  UNL1        0.0566
     28 C           5.5817   -2.9187   32.4669 C.ar    1  UNL1        0.0446
     29 C           4.6583   -1.7768   32.7722 C.ar    1  UNL1        0.1725
     30 C           2.2723    0.6652   31.1614 C.3     1  UNL1        0.2526
     31 O           3.4639    0.4098   32.0358 O.3     1  UNL1       -0.4684
     32 O           4.0057   -1.6795   34.1194 O.3     1  UNL1       -0.4684
     33 C           4.5639   -0.7522   35.1579 C.3     1  UNL1        0.2526
@<TRIPOS>BOND
     1    30    31    1
     2    31    24    1
     3    24    25   ar
     4    25    26   ar
     5    26    27   ar
     6    27    20    1
     7    20    21    2
     8    20    22   am
     9    22    19    1
    10    19     1    1
    11     1     2   ar
    12     2     3   ar
    13     3     4   ar
    14     4     5   ar
    15     5     7    1
    16     7     8    2
    17     7     9   am
    18     9    11    1
    19    11    12    1
    20    12    13    1
    21    13    14   ar
    22    14    15   ar
    23    15    16   ar
    24    16    17   ar
    25    17    18   ar
    26     5     6   ar
    27    27    28   ar
    28    28    29   ar
    29    29    32    1
    30    32    33    1
    31    29    24   ar
    32     6     1   ar
    33    18    13   ar
    34    22    23    1
    35     9    10    1
@<TRIPOS>MOLECULE
*****
 33 35 0 0 0
SMALL
GASTEIGER

@<TRIPOS>ATOM
      1 C         -10.0061  -18.9303   20.8355 C.ar    1  UNL1       -0.0024
      2 C         -10.7356  -19.6489   19.7395 C.ar    1  UNL1       -0.0026
      3 C          -9.9654  -20.3389   18.6528 C.ar    1  UNL1       -0.0001
      4 C          -8.4657  -20.3101   18.6622 C.ar    1  UNL1        0.0045
      5 C          -7.7362  -19.5914   19.7583 C.ar    1  UNL1        0.0531
      6 C          -8.5064  -18.9015   20.8449 C.ar    1  UNL1        0.0019
      7 C          -6.2365  -19.5626   19.7677 C.2     1  UNL1        0.2458
      8 O          -5.5086  -18.2937   19.4359 O.2     1  UNL1       -0.2701
      9 N          -5.4647  -20.8028   20.1088 N.am    1  UNL1       -0.3005
     10 H          -5.9424  -21.6356   20.3266 H       1  UNL1        0.1497
     11 C          -3.9650  -20.7740   20.1182 C.3     1  UNL1        0.0944
     12 C          -3.2333  -20.1908   21.2906 C.3     1  UNL1        0.0477
     13 C          -2.4995  -18.8907   21.1455 C.ar    1  UNL1       -0.0174
     14 C          -1.4397  -18.7409   20.0946 C.ar    1  UNL1        0.0165
     15 C          -0.7058  -17.4408   19.9494 C.ar    1  UNL1        0.0986
     16 N          -1.0317  -16.2904   20.8552 N.ar    1  UNL1       -0.2423
     17 C          -2.0915  -16.4402   21.9061 C.ar    1  UNL1        0.0986
     18 C          -2.8254  -17.7403   22.0512 C.ar    1  UNL1        0.0165
     19 C         -10.7762  -18.2403   21.9222 C.3     1  UNL1        0.1166
     20 C          -9.4571  -17.9900   24.1464 C.2     1  UNL1        0.2462
     21 O          -9.5718  -19.4672   24.3806 O.2     1  UNL1       -0.2701
     22 N         -10.0593  -17.3766   22.9172 N.am    1  UNL1       -0.2969
     23 H          -9.9840  -16.4071   22.7635 H       1  UNL1        0.1501
     24 C          -7.3063  -15.3989   27.1314 C.ar    1  UNL1        0.1724
     25 C          -8.4841  -16.2212   27.5632 C.ar    1  UNL1        0.0402
     26 C          -9.2010  -17.0849   26.5682 C.ar    1  UNL1        0.0078
     27 C          -8.7401  -17.1263   25.1414 C.ar    1  UNL1        0.0566
     28 C          -7.5623  -16.3041   24.7096 C.ar    1  UNL1        0.0446
     29 C          -6.8453  -15.4404   25.7046 C.ar    1  UNL1        0.1725
     30 C          -7.2769  -13.3385   28.7137 C.3     1  UNL1        0.2526
     31 O          -6.5893  -14.5352   28.1264 O.3     1  UNL1       -0.4684
     32 O          -5.6674  -14.6181   25.2727 O.3     1  UNL1       -0.4684
     33 C          -4.8562  -15.0370   24.0827 C.3     1  UNL1        0.2526
@<TRIPOS>BOND
     1    30    31    1
     2    31    24    1
     3    24    25   ar
     4    25    26   ar
     5    26    27   ar
     6    27    20    1
     7    20    21    2
     8    20    22   am
     9    22    19    1
    10    19     1    1
    11     1     2   ar
    12     2     3   ar
    13     3     4   ar
    14     4     5   ar
    15     5     7    1
    16     7     8    2
    17     7     9   am
    18     9    11    1
    19    11    12    1
    20    12    13    1
    21    13    14   ar
    22    14    15   ar
    23    15    16   ar
    24    16    17   ar
    25    17    18   ar
    26     5     6   ar
    27    27    28   ar
    28    28    29   ar
    29    29    32    1
    30    32    33    1
    31    29    24   ar
    32     6     1   ar
    33    18    13   ar
    34    22    23    1
    35     9    10    1
