@<TRIPOS>MOLECULE
*****
 27 29 0 0 0
SMALL
GASTEIGER

@<TRIPOS>ATOM
      1 N          -6.2601  -18.2496   21.8364 N.am    1  UNL1       -0.2681
      2 C          -7.0768  -19.4026   22.3397 C.2     1  UNL1        0.3078
      3 O          -6.4844  -20.7801   22.3807 O.2     1  UNL1       -0.2522
      4 N          -8.4861  -19.1783   22.8021 N.am    1  UNL1       -0.2591
      5 C          -9.3028  -20.3314   23.3054 C.3     1  UNL1        0.1121
      6 C         -10.7120  -20.1070   23.7678 C.3     1  UNL1        0.0904
      7 N         -11.3045  -18.7296   23.7268 N.3     1  UNL1       -0.2946
      8 C         -10.4878  -17.5765   23.2235 C.3     1  UNL1        0.0925
      9 C          -9.0785  -17.8009   22.7611 C.3     1  UNL1        0.1361
     10 H          -6.6490  -17.3455   21.8095 H       1  UNL1        0.1564
     11 H         -11.5816  -18.4997   24.6811 H       1  UNL1        0.1233
     12 C          -2.0325  -18.9226   20.4492 C.ar    1  UNL1        0.1388
     13 C          -2.3014  -18.5270   21.8709 C.ar    1  UNL1        0.0382
     14 C          -3.7106  -18.3027   22.3333 C.ar    1  UNL1        0.0178
     15 C          -4.8509  -18.4739   21.3740 C.ar    1  UNL1        0.0518
     16 C          -4.5820  -18.8695   19.9523 C.ar    1  UNL1        0.0178
     17 C          -3.1728  -19.0938   19.4899 C.ar    1  UNL1        0.0382
     18 C           0.3084  -17.9821   19.8280 C.3     1  UNL1        0.2525
     19 O          -0.6233  -19.1469   19.9869 O.3     1  UNL1       -0.4714
     20 C          -8.2618  -16.6478   22.2578 C.3     1  UNL1        0.2265
     21 O          -8.1828  -15.3799   23.0554 O.3     1  UNL1       -0.4721
     22 C          -7.6534  -15.4083   24.4586 C.ar    1  UNL1        0.1577
     23 C          -8.6038  -15.4634   25.6178 C.ar    1  UNL1        0.0401
     24 C          -8.0744  -15.4918   27.0210 C.ar    1  UNL1        0.0238
     25 C          -6.5946  -15.4651   27.2649 C.ar    1  UNL1        0.0991
     26 N          -5.6442  -15.4100   26.1058 N.ar    1  UNL1       -0.2391
     27 C          -6.1736  -15.3816   24.7025 C.ar    1  UNL1        0.1356
@<TRIPOS>BOND
     1    18    19    1
     2    19    12    1
     3    12    13   ar
     4    13    14   ar
     5    14    15   ar
     6    15     1    1
     7     1     2   am
     8     2     3    2
     9     2     4   am
    10     4     5    1
    11     5     6    1
    12     6     7    1
    13     7     8    1
    14     8     9    1
    15     9    20    1
    16    20    21    1
    17    21    22    1
    18    22    23   ar
    19    23    24   ar
    20    24    25   ar
    21    25    26   ar
    22    26    27   ar
    23    15    16   ar
    24    16    17   ar
    25    17    12   ar
    26     9     4    1
    27    27    22   ar
    28     1    10    1
    29     7    11    1
@<TRIPOS>MOLECULE
*****
 27 29 0 0 0
SMALL
GASTEIGER

@<TRIPOS>ATOM
      1 N          -6.4922  -18.3819   22.2430 N.am    1  UNL1       -0.2681
      2 C          -5.7698  -18.8434   21.0121 C.2     1  UNL1        0.3078
      3 O          -6.5428  -19.3980   19.8524 O.2     1  UNL1       -0.2522
      4 N          -4.2744  -18.7502   20.9409 N.am    1  UNL1       -0.2591
      5 C          -3.5520  -19.2118   19.7099 C.3     1  UNL1        0.1121
      6 C          -2.0566  -19.1186   19.6387 C.3     1  UNL1        0.0904
      7 N          -1.2836  -18.5640   20.7984 N.3     1  UNL1       -0.2946
      8 C          -2.0060  -18.1025   22.0293 C.3     1  UNL1        0.0925
      9 C          -3.5014  -18.1956   22.1005 C.3     1  UNL1        0.1361
     10 H          -5.9849  -18.0178   23.0041 H       1  UNL1        0.1564
     11 H          -0.7596  -17.7627   20.4467 H       1  UNL1        0.1233
     12 C         -10.9784  -18.6612   22.4568 C.ar    1  UNL1        0.1388
     13 C         -10.1320  -19.7984   22.9470 C.ar    1  UNL1        0.0382
     14 C          -8.6366  -19.7053   22.8757 C.ar    1  UNL1        0.0178
     15 C          -7.9876  -18.4750   22.3143 C.ar    1  UNL1        0.0518
     16 C          -8.8341  -17.3378   21.8241 C.ar    1  UNL1        0.0178
     17 C         -10.3295  -17.4310   21.8953 C.ar    1  UNL1        0.0382
     18 C         -13.2286  -17.9425   23.5385 C.3     1  UNL1        0.2525
     19 O         -12.4739  -18.7544   22.5280 O.3     1  UNL1       -0.4714
     20 C          -4.2238  -17.7341   23.3314 C.3     1  UNL1        0.2265
     21 O          -4.6332  -16.2973   23.4664 O.3     1  UNL1       -0.4721
     22 C          -5.6525  -15.9013   24.4931 C.ar    1  UNL1        0.1577
     23 C          -5.3094  -15.9598   25.9522 C.ar    1  UNL1        0.0401
     24 C          -6.3287  -15.5638   26.9788 C.ar    1  UNL1        0.0238
     25 C          -7.6912  -15.1091   26.5465 C.ar    1  UNL1        0.0991
     26 N          -8.0343  -15.0505   25.0875 N.ar    1  UNL1       -0.2391
     27 C          -7.0150  -15.4466   24.0607 C.ar    1  UNL1        0.1356
@<TRIPOS>BOND
     1    18    19    1
     2    19    12    1
     3    12    13   ar
     4    13    14   ar
     5    14    15   ar
     6    15     1    1
     7     1     2   am
     8     2     3    2
     9     2     4   am
    10     4     5    1
    11     5     6    1
    12     6     7    1
    13     7     8    1
    14     8     9    1
    15     9    20    1
    16    20    21    1
    17    21    22    1
    18    22    23   ar
    19    23    24   ar
    20    24    25   ar
    21    25    26   ar
    22    26    27   ar
    23    15    16   ar
    24    16    17   ar
    25    17    12   ar
    26     9     4    1
    27    27    22   ar
    28     1    10    1
    29     7    11    1
@<TRIPOS>MOLECULE
*****
 27 29 0 0 0
SMALL
GASTEIGER

@<TRIPOS>ATOM
      1 N          -7.4855  -18.5772   22.4015 N.am    1  UNL1       -0.2681
      2 C          -8.5204  -18.5268   21.3169 C.2     1  UNL1        0.3078
      3 O          -8.1187  -18.7345   19.8866 O.2     1  UNL1       -0.2522
      4 N          -9.9571  -18.2688   21.6625 N.am    1  UNL1       -0.2591
      5 C         -10.9920  -18.2185   20.5779 C.3     1  UNL1        0.1121
      6 C         -12.4287  -17.9604   20.9235 C.3     1  UNL1        0.0904
      7 N         -12.8304  -17.7528   22.3537 N.3     1  UNL1       -0.2946
      8 C         -11.7955  -17.8031   23.4383 C.3     1  UNL1        0.0925
      9 C         -10.3588  -18.0612   23.0927 C.3     1  UNL1        0.1361
     10 H          -7.7492  -18.4409   23.3402 H       1  UNL1        0.1564
     11 H         -13.5215  -18.4703   22.5726 H       1  UNL1        0.1233
     12 C          -3.1755  -19.3513   21.3646 C.ar    1  UNL1        0.1388
     13 C          -3.5231  -18.3582   22.4337 C.ar    1  UNL1        0.0382
     14 C          -4.9597  -18.1001   22.7793 C.ar    1  UNL1        0.0178
     15 C          -6.0488  -18.8352   22.0558 C.ar    1  UNL1        0.0518
     16 C          -5.7013  -19.8284   20.9868 C.ar    1  UNL1        0.0178
     17 C          -4.2647  -20.0864   20.6412 C.ar    1  UNL1        0.0382
     18 C          -0.9925  -18.6445   20.1461 C.3     1  UNL1        0.2525
     19 O          -1.7389  -19.6093   21.0190 O.3     1  UNL1       -0.4714
     20 C          -9.3239  -18.1115   24.1772 C.3     1  UNL1        0.2265
     21 O          -9.3320  -17.0839   25.2700 O.3     1  UNL1       -0.4721
     22 C          -8.0832  -16.3154   25.5861 C.ar    1  UNL1        0.1577
     23 C          -7.6700  -16.1099   27.0134 C.ar    1  UNL1        0.0401
     24 C          -6.4213  -15.3414   27.3295 C.ar    1  UNL1        0.0238
     25 C          -5.5856  -14.7784   26.2184 C.ar    1  UNL1        0.0991
     26 N          -5.9987  -14.9838   24.7911 N.ar    1  UNL1       -0.2391
     27 C          -7.2475  -15.7524   24.4749 C.ar    1  UNL1        0.1356
@<TRIPOS>BOND
     1    18    19    1
     2    19    12    1
     3    12    13   ar
     4    13    14   ar
     5    14    15   ar
     6    15     1    1
     7     1     2   am
     8     2     3    2
     9     2     4   am
    10     4     5    1
    11     5     6    1
    12     6     7    1
    13     7     8    1
    14     8     9    1
    15     9    20    1
    16    20    21    1
    17    21    22    1
    18    22    23   ar
    19    23    24   ar
    20    24    25   ar
    21    25    26   ar
    22    26    27   ar
    23    15    16   ar
    24    16    17   ar
    25    17    12   ar
    26     9     4    1
    27    27    22   ar
    28     1    10    1
    29     7    11    1
@<TRIPOS>MOLECULE
*****
 27 29 0 0 0
SMALL
GASTEIGER

@<TRIPOS>ATOM
      1 N          -5.2190  -16.7198   23.2622 N.am    1  UNL1       -0.2681
      2 C          -5.1655  -16.4987   24.7448 C.2     1  UNL1        0.3078
      3 O          -3.9060  -16.7975   25.5028 O.2     1  UNL1       -0.2522
      4 N          -6.3715  -15.9787   25.4695 N.am    1  UNL1       -0.2591
      5 C          -6.3180  -15.7575   26.9522 C.3     1  UNL1        0.1121
      6 C          -7.5240  -15.2376   27.6770 C.3     1  UNL1        0.0904
      7 N          -8.7835  -14.9387   26.9190 N.3     1  UNL1       -0.2946
      8 C          -8.8369  -15.1599   25.4364 C.3     1  UNL1        0.0925
      9 C          -7.6310  -15.6799   24.7117 C.3     1  UNL1        0.1361
     10 H          -6.0456  -16.5237   22.7647 H       1  UNL1        0.1564
     11 H          -8.9959  -13.9538   27.0776 H       1  UNL1        0.1233
     12 C          -1.6011  -18.2797   21.0880 C.ar    1  UNL1        0.1388
     13 C          -1.6989  -16.8231   21.4325 C.ar    1  UNL1        0.0382
     14 C          -2.9049  -16.3032   22.1572 C.ar    1  UNL1        0.0178
     15 C          -4.0130  -17.2398   22.5374 C.ar    1  UNL1        0.0518
     16 C          -3.9152  -18.6964   22.1930 C.ar    1  UNL1        0.0178
     17 C          -2.7093  -19.2164   21.4682 C.ar    1  UNL1        0.0382
     18 C           0.6203  -17.8422   19.8137 C.3     1  UNL1        0.2525
     19 O          -0.3951  -18.7997   20.3632 O.3     1  UNL1       -0.4714
     20 C          -7.6845  -15.9010   23.2290 C.3     1  UNL1        0.2265
     21 O          -8.2633  -17.1716   22.6806 O.3     1  UNL1       -0.4721
     22 C          -9.7495  -17.3203   22.5427 C.ar    1  UNL1        0.1577
     23 C         -10.5421  -17.9772   23.6338 C.ar    1  UNL1        0.0401
     24 C         -12.0282  -18.1259   23.4959 C.ar    1  UNL1        0.0238
     25 C         -12.7220  -17.6179   22.2668 C.ar    1  UNL1        0.0991
     26 N         -11.9295  -16.9611   21.1757 N.ar    1  UNL1       -0.2391
     27 C         -10.4433  -16.8123   21.3136 C.ar    1  UNL1        0.1356
@<TRIPOS>BOND
     1    18    19    1
     2    19    12    1
     3    12    13   ar
     4    13    14   ar
     5    14    15   ar
     6    15     1    1
     7     1     2   am
     8     2     3    2
     9     2     4   am
    10     4     5    1
    11     5     6    1
    12     6     7    1
    13     7     8    1
    14     8     9    1
    15     9    20    1
    16    20    21    1
    17    21    22    1
    18    22    23   ar
    19    23    24   ar
    20    24    25   ar
    21    25    26   ar
    22    26    27   ar
    23    15    16   ar
    24    16    17   ar
    25    17    12   ar
    26     9     4    1
    27    27    22   ar
    28     1    10    1
    29     7    11    1
@<TRIPOS>MOLECULE
*****
 27 29 0 0 0
SMALL
GASTEIGER

@<TRIPOS>ATOM
      1 N         -14.1695   -5.4409   18.2443 N.am    1  UNL1       -0.2681
      2 C         -15.2806   -5.9908   19.0886 C.2     1  UNL1        0.3078
      3 O         -16.0491   -5.0821   20.0017 O.2     1  UNL1       -0.2522
      4 N         -15.6234   -7.4495   19.0198 N.am    1  UNL1       -0.2591
      5 C         -16.7347   -7.9994   19.8641 C.3     1  UNL1        0.1121
      6 C         -17.0774   -9.4581   19.7954 C.3     1  UNL1        0.0904
      7 N         -16.3090  -10.3669   18.8823 N.3     1  UNL1       -0.2946
      8 C         -15.1978   -9.8170   18.0380 C.3     1  UNL1        0.0925
      9 C         -14.8550   -8.3583   18.1068 C.3     1  UNL1        0.1361
     10 H         -13.6651   -6.0374   17.6450 H       1  UNL1        0.1564
     11 H         -16.9861  -10.7832   18.2431 H       1  UNL1        0.1233
     12 C         -13.1411   -1.0649   18.4506 C.ar    1  UNL1        0.1388
     13 C         -14.2743   -1.5290   17.5844 C.ar    1  UNL1        0.0382
     14 C         -14.6171   -2.9876   17.5156 C.ar    1  UNL1        0.0178
     15 C         -13.8267   -3.9822   18.3131 C.ar    1  UNL1        0.0518
     16 C         -12.6935   -3.5181   19.1793 C.ar    1  UNL1        0.0178
     17 C         -12.3507   -2.0594   19.2481 C.ar    1  UNL1        0.0382
     18 C         -12.4006    1.1303   17.2747 C.3     1  UNL1        0.2525
     19 O         -12.7983    0.3938   18.5194 O.3     1  UNL1       -0.4714
     20 C         -13.7439   -7.8084   17.2625 C.3     1  UNL1        0.2265
     21 O         -12.3162   -8.0178   17.6725 O.3     1  UNL1       -0.4721
     22 C         -11.3492   -6.8718   17.6347 C.ar    1  UNL1        0.1577
     23 C         -10.5395   -6.5333   18.8512 C.ar    1  UNL1        0.0401
     24 C          -9.5725   -5.3873   18.8135 C.ar    1  UNL1        0.0238
     25 C          -9.4151   -4.5798   17.5592 C.ar    1  UNL1        0.0991
     26 N         -10.2247   -4.9182   16.3427 N.ar    1  UNL1       -0.2391
     27 C         -11.1918   -6.0643   16.3805 C.ar    1  UNL1        0.1356
@<TRIPOS>BOND
     1    18    19    1
     2    19    12    1
     3    12    13   ar
     4    13    14   ar
     5    14    15   ar
     6    15     1    1
     7     1     2   am
     8     2     3    2
     9     2     4   am
    10     4     5    1
    11     5     6    1
    12     6     7    1
    13     7     8    1
    14     8     9    1
    15     9    20    1
    16    20    21    1
    17    21    22    1
    18    22    23   ar
    19    23    24   ar
    20    24    25   ar
    21    25    26   ar
    22    26    27   ar
    23    15    16   ar
    24    16    17   ar
    25    17    12   ar
    26     9     4    1
    27    27    22   ar
    28     1    10    1
    29     7    11    1
@<TRIPOS>MOLECULE
*****
 27 29 0 0 0
SMALL
GASTEIGER

@<TRIPOS>ATOM
      1 N          -8.0341  -18.1489   22.4710 N.am    1  UNL1       -0.2681
      2 C          -6.7132  -17.5609   22.8703 C.2     1  UNL1        0.3078
      3 O          -5.4798  -17.8811   22.0790 O.2     1  UNL1       -0.2522
      4 N          -6.6257  -16.6526   24.0608 N.am    1  UNL1       -0.2591
      5 C          -5.3048  -16.0645   24.4600 C.3     1  UNL1        0.1121
      6 C          -5.2173  -15.1562   25.6505 C.3     1  UNL1        0.0904
      7 N          -6.4507  -14.8359   26.4418 N.3     1  UNL1       -0.2946
      8 C          -7.7716  -15.4240   26.0426 C.3     1  UNL1        0.0925
      9 C          -7.8591  -16.3323   24.8520 C.3     1  UNL1        0.1361
     10 H          -8.8437  -17.9387   22.9904 H       1  UNL1        0.1564
     11 H          -6.5606  -13.8221   26.4184 H       1  UNL1        0.1233
     12 C          -8.2966  -20.8739   18.8995 C.ar    1  UNL1        0.1388
     13 C          -9.4364  -19.9556   19.2277 C.ar    1  UNL1        0.0382
     14 C          -9.3489  -19.0473   20.4182 C.ar    1  UNL1        0.0178
     15 C          -8.1216  -19.0572   21.2805 C.ar    1  UNL1        0.0518
     16 C          -6.9819  -19.9755   20.9523 C.ar    1  UNL1        0.0178
     17 C          -7.0694  -20.8838   19.7618 C.ar    1  UNL1        0.0382
     18 C          -9.3255  -21.4592   16.5868 C.3     1  UNL1        0.2525
     19 O          -8.3841  -21.7822   17.7090 O.3     1  UNL1       -0.4714
     20 C          -9.1800  -16.9203   24.4528 C.3     1  UNL1        0.2265
     21 O         -10.2701  -16.0313   23.9320 O.3     1  UNL1       -0.4721
     22 C         -10.8695  -16.2917   22.5819 C.ar    1  UNL1        0.1577
     23 C         -12.0369  -17.2240   22.4467 C.ar    1  UNL1        0.0401
     24 C         -12.6363  -17.4844   21.0966 C.ar    1  UNL1        0.0238
     25 C         -12.0683  -16.8127   19.8816 C.ar    1  UNL1        0.0991
     26 N         -10.9010  -15.8805   20.0167 N.ar    1  UNL1       -0.2391
     27 C         -10.3016  -15.6200   21.3669 C.ar    1  UNL1        0.1356
@<TRIPOS>BOND
     1    18    19    1
     2    19    12    1
     3    12    13   ar
     4    13    14   ar
     5    14    15   ar
     6    15     1    1
     7     1     2   am
     8     2     3    2
     9     2     4   am
    10     4     5    1
    11     5     6    1
    12     6     7    1
    13     7     8    1
    14     8     9    1
    15     9    20    1
    16    20    21    1
    17    21    22    1
    18    22    23   ar
    19    23    24   ar
    20    24    25   ar
    21    25    26   ar
    22    26    27   ar
    23    15    16   ar
    24    16    17   ar
    25    17    12   ar
    26     9     4    1
    27    27    22   ar
    28     1    10    1
    29     7    11    1
@<TRIPOS>MOLECULE
*****
 27 29 0 0 0
SMALL
GASTEIGER

@<TRIPOS>ATOM
      1 N          -5.2283  -16.9347   23.1609 N.am    1  UNL1       -0.2681
      2 C          -5.0958  -16.5115   24.5939 C.2     1  UNL1        0.3078
      3 O          -3.7615  -16.5796   25.2758 O.2     1  UNL1       -0.2522
      4 N          -6.2977  -16.0203   25.3450 N.am    1  UNL1       -0.2591
      5 C          -6.1652  -15.5971   26.7780 C.3     1  UNL1        0.1121
      6 C          -7.3671  -15.1058   27.5291 C.3     1  UNL1        0.0904
      7 N          -8.7014  -15.0377   26.8472 N.3     1  UNL1       -0.2946
      8 C          -8.8339  -15.4609   25.4143 C.3     1  UNL1        0.0925
      9 C          -7.6320  -15.9522   24.6632 C.3     1  UNL1        0.1361
     10 H          -6.1040  -16.8900   22.7134 H       1  UNL1        0.1564
     11 H          -9.0083  -14.0662   26.8969 H       1  UNL1        0.1233
     12 C          -1.6227  -18.4085   20.9076 C.ar    1  UNL1        0.1388
     13 C          -1.7338  -16.9598   21.2800 C.ar    1  UNL1        0.0382
     14 C          -2.9357  -16.4685   22.0311 C.ar    1  UNL1        0.0178
     15 C          -4.0264  -17.4260   22.4098 C.ar    1  UNL1        0.0518
     16 C          -3.9153  -18.8747   22.0374 C.ar    1  UNL1        0.0178
     17 C          -2.7134  -19.3660   21.2863 C.ar    1  UNL1        0.0382
     18 C           0.6921  -17.9522   19.8197 C.3     1  UNL1        0.2525
     19 O          -0.4208  -18.8998   20.1565 O.3     1  UNL1       -0.4714
     20 C          -7.7645  -16.3753   23.2302 C.3     1  UNL1        0.2265
     21 O          -7.8726  -17.8311   22.8850 O.3     1  UNL1       -0.4721
     22 C          -8.7520  -18.2699   21.7519 C.ar    1  UNL1        0.1577
     23 C          -8.1839  -19.1015   20.6402 C.ar    1  UNL1        0.0401
     24 C          -9.0633  -19.5403   19.5070 C.ar    1  UNL1        0.0238
     25 C         -10.5108  -19.1475   19.4855 C.ar    1  UNL1        0.0991
     26 N         -11.0789  -18.3159   20.5971 N.ar    1  UNL1       -0.2391
     27 C         -10.1995  -17.8771   21.7303 C.ar    1  UNL1        0.1356
@<TRIPOS>BOND
     1    18    19    1
     2    19    12    1
     3    12    13   ar
     4    13    14   ar
     5    14    15   ar
     6    15     1    1
     7     1     2   am
     8     2     3    2
     9     2     4   am
    10     4     5    1
    11     5     6    1
    12     6     7    1
    13     7     8    1
    14     8     9    1
    15     9    20    1
    16    20    21    1
    17    21    22    1
    18    22    23   ar
    19    23    24   ar
    20    24    25   ar
    21    25    26   ar
    22    26    27   ar
    23    15    16   ar
    24    16    17   ar
    25    17    12   ar
    26     9     4    1
    27    27    22   ar
    28     1    10    1
    29     7    11    1
@<TRIPOS>MOLECULE
*****
 27 29 0 0 0
SMALL
GASTEIGER

@<TRIPOS>ATOM
      1 N         -13.7962   -3.0114   19.0689 N.am    1  UNL1       -0.2681
      2 C         -12.3062   -3.1839   19.0720 C.2     1  UNL1        0.3078
      3 O         -11.4120   -1.9807   19.1276 O.2     1  UNL1       -0.2522
      4 N         -11.7103   -4.5594   19.0195 N.am    1  UNL1       -0.2591
      5 C         -10.2202   -4.7318   19.0226 C.3     1  UNL1        0.1121
      6 C          -9.6243   -6.1074   18.9701 C.3     1  UNL1        0.0904
      7 N         -10.5185   -7.3105   18.9146 N.3     1  UNL1       -0.2946
      8 C         -12.0085   -7.1380   18.9115 C.3     1  UNL1        0.0925
      9 C         -12.6044   -5.7625   18.9640 C.3     1  UNL1        0.1361
     10 H         -14.3831   -3.8010   19.0324 H       1  UNL1        0.1564
     11 H         -10.2902   -7.8847   19.7261 H       1  UNL1        0.1233
     12 C         -15.5840    1.1153   19.2263 C.ar    1  UNL1        0.1388
     13 C         -14.4220    0.8354   18.3200 C.ar    1  UNL1        0.0382
     14 C         -13.8261   -0.5402   18.2675 C.ar    1  UNL1        0.0178
     15 C         -14.3921   -1.6358   19.1214 C.ar    1  UNL1        0.0518
     16 C         -15.5541   -1.3559   20.0277 C.ar    1  UNL1        0.0178
     17 C         -16.1500    0.0196   20.0802 C.ar    1  UNL1        0.0382
     18 C         -15.8132    3.4250   20.3936 C.3     1  UNL1        0.2525
     19 O         -16.1799    2.4908   19.2788 O.3     1  UNL1       -0.4714
     20 C         -14.0944   -5.5900   18.9609 C.3     1  UNL1        0.2265
     21 O         -14.9421   -6.4067   18.0310 O.3     1  UNL1       -0.4721
     22 C         -15.6787   -7.6071   18.5470 C.ar    1  UNL1        0.1577
     23 C         -16.8601   -7.4294   19.4541 C.ar    1  UNL1        0.0401
     24 C         -17.5968   -8.6298   19.9701 C.ar    1  UNL1        0.0238
     25 C         -17.1522  -10.0080   19.5790 C.ar    1  UNL1        0.0991
     26 N         -15.9709  -10.1857   18.6719 N.ar    1  UNL1       -0.2391
     27 C         -15.2341   -8.9853   18.1558 C.ar    1  UNL1        0.1356
@<TRIPOS>BOND
     1    18    19    1
     2    19    12    1
     3    12    13   ar
     4    13    14   ar
     5    14    15   ar
     6    15     1    1
     7     1     2   am
     8     2     3    2
     9     2     4   am
    10     4     5    1
    11     5     6    1
    12     6     7    1
    13     7     8    1
    14     8     9    1
    15     9    20    1
    16    20    21    1
    17    21    22    1
    18    22    23   ar
    19    23    24   ar
    20    24    25   ar
    21    25    26   ar
    22    26    27   ar
    23    15    16   ar
    24    16    17   ar
    25    17    12   ar
    26     9     4    1
    27    27    22   ar
    28     1    10    1
    29     7    11    1
