@<TRIPOS>MOLECULE
*****
 29 32 0 0 0
SMALL
GASTEIGER

@<TRIPOS>ATOM
      1 C          -6.5548  -16.4689   23.4284 C.3     1  UNL1        0.1351
      2 N          -7.3249  -17.4151   22.5557 N.ar    1  UNL1       -0.2760
      3 C          -8.8143  -17.2826   22.4373 C.ar    1  UNL1        0.2966
      4 O          -9.5337  -16.2038   23.1915 O.2     1  UNL1       -0.2636
      5 C          -9.5845  -18.2288   21.5646 C.ar    1  UNL1        0.2013
      6 C          -8.8652  -19.3076   20.8104 C.ar    1  UNL1        0.0470
      7 C          -7.3757  -19.4402   20.9288 C.ar    1  UNL1        0.0567
      8 C          -6.6565  -20.5189   20.1746 C.ar    1  UNL1        0.1049
      9 N          -5.1671  -20.6514   20.2930 N.ar    1  UNL1       -0.2122
     10 C          -4.3969  -19.7052   21.1657 C.ar    1  UNL1        0.2182
     11 N          -5.1162  -18.6265   21.9199 N.ar    1  UNL1       -0.1963
     12 C          -6.6056  -18.4939   21.8015 C.ar    1  UNL1        0.1506
     13 N          -2.9074  -19.8378   21.2841 N.pl3   1  UNL1       -0.3044
     14 H          -2.5094  -20.6980   21.5502 H       1  UNL1        0.1496
     15 C          -2.0245  -18.6597   20.9970 C.3     1  UNL1        0.0768
     16 C          -0.8943  -18.7900   20.0194 C.3     1  UNL1        0.0517
     17 C          -0.0113  -17.6119   19.7324 C.3     1  UNL1        0.1439
     18 O          -0.2584  -16.3035   20.4230 O.3     1  UNL1       -0.3537
     19 C          -1.3886  -16.1732   21.4006 C.3     1  UNL1        0.1439
     20 C          -2.2716  -17.3512   21.6877 C.3     1  UNL1        0.0517
     21 O         -11.0740  -18.0962   21.4462 O.3     1  UNL1       -0.4464
     22 C         -11.9392  -18.2454   22.6623 C.ar    1  UNL1        0.1729
     23 C         -13.3020  -17.6194   22.6946 C.ar    1  UNL1        0.0421
     24 C         -14.1672  -17.7686   23.9107 C.ar    1  UNL1        0.0329
     25 C         -13.6698  -18.5439   25.0947 C.ar    1  UNL1        0.1426
     26 F         -14.5351  -18.6931   26.3108 F       1  UNL1       -0.2041
     27 C         -12.3070  -19.1699   25.0624 C.ar    1  UNL1        0.0624
     28 C         -11.4418  -19.0207   23.8462 C.ar    1  UNL1        0.1766
     29 F         -10.0790  -19.6467   23.8139 F       1  UNL1       -0.2009
@<TRIPOS>BOND
     1     1     2    1
     2     2     3   ar
     3     3     4    2
     4     3     5   ar
     5     5    21    1
     6    21    22    1
     7    22    23   ar
     8    23    24   ar
     9    24    25   ar
    10    25    26    1
    11    25    27   ar
    12    27    28   ar
    13    28    29    1
    14     5     6   ar
    15     6     7   ar
    16     7     8   ar
    17     8     9   ar
    18     9    10   ar
    19    10    13    1
    20    13    15    1
    21    15    16    1
    22    16    17    1
    23    17    18    1
    24    18    19    1
    25    19    20    1
    26    10    11   ar
    27    11    12   ar
    28    12     2   ar
    29    28    22   ar
    30    12     7   ar
    31    20    15    1
    32    13    14    1
@<TRIPOS>MOLECULE
*****
 29 32 0 0 0
SMALL
GASTEIGER

@<TRIPOS>ATOM
      1 C          -6.9359  -20.0698   20.5747 C.3     1  UNL1        0.1351
      2 N          -7.6118  -18.9394   21.2926 N.ar    1  UNL1       -0.2760
      3 C          -9.0975  -18.7637   21.1841 C.ar    1  UNL1        0.2966
      4 O          -9.9073  -19.7184   20.3577 O.2     1  UNL1       -0.2636
      5 C          -9.7734  -17.6333   21.9020 C.ar    1  UNL1        0.2013
      6 C          -8.9636  -16.6786   22.7283 C.ar    1  UNL1        0.0470
      7 C          -7.4778  -16.8543   22.8368 C.ar    1  UNL1        0.0567
      8 C          -6.6681  -15.8997   23.6631 C.ar    1  UNL1        0.1049
      9 N          -5.1824  -16.0754   23.7716 N.ar    1  UNL1       -0.2122
     10 C          -4.5065  -17.2058   23.0537 C.ar    1  UNL1        0.2182
     11 N          -5.3162  -18.1605   22.2274 N.ar    1  UNL1       -0.1963
     12 C          -6.8019  -17.9847   22.1189 C.ar    1  UNL1        0.1506
     13 N          -3.0207  -17.3816   23.1622 N.pl3   1  UNL1       -0.3044
     14 H          -2.5813  -17.3257   24.0415 H       1  UNL1        0.1496
     15 C          -2.2044  -17.6423   21.9311 C.3     1  UNL1        0.0768
     16 C          -2.1239  -19.0288   21.3644 C.3     1  UNL1        0.0517
     17 C          -1.3076  -19.2895   20.1332 C.3     1  UNL1        0.1439
     18 O          -0.5718  -18.1638   19.4688 O.3     1  UNL1       -0.3537
     19 C          -0.6524  -16.7773   20.0356 C.3     1  UNL1        0.1439
     20 C          -1.4686  -16.5166   21.2667 C.3     1  UNL1        0.0517
     21 O         -11.2591  -17.4575   21.7935 O.3     1  UNL1       -0.4464
     22 C         -12.1444  -17.8282   22.9462 C.ar    1  UNL1        0.1729
     23 C         -13.6016  -17.4736   22.9171 C.ar    1  UNL1        0.0421
     24 C         -14.4868  -17.8443   24.0699 C.ar    1  UNL1        0.0329
     25 C         -13.9148  -18.5696   25.2518 C.ar    1  UNL1        0.1426
     26 F         -14.8001  -18.9403   26.4046 F       1  UNL1       -0.2041
     27 C         -12.4576  -18.9242   25.2809 C.ar    1  UNL1        0.0624
     28 C         -11.5724  -18.5535   24.1281 C.ar    1  UNL1        0.1766
     29 F         -10.1152  -18.9081   24.1571 F       1  UNL1       -0.2009
@<TRIPOS>BOND
     1     1     2    1
     2     2     3   ar
     3     3     4    2
     4     3     5   ar
     5     5    21    1
     6    21    22    1
     7    22    23   ar
     8    23    24   ar
     9    24    25   ar
    10    25    26    1
    11    25    27   ar
    12    27    28   ar
    13    28    29    1
    14     5     6   ar
    15     6     7   ar
    16     7     8   ar
    17     8     9   ar
    18     9    10   ar
    19    10    13    1
    20    13    15    1
    21    15    16    1
    22    16    17    1
    23    17    18    1
    24    18    19    1
    25    19    20    1
    26    10    11   ar
    27    11    12   ar
    28    12     2   ar
    29    28    22   ar
    30    12     7   ar
    31    20    15    1
    32    13    14    1
@<TRIPOS>MOLECULE
*****
 29 32 0 0 0
SMALL
GASTEIGER

@<TRIPOS>ATOM
      1 C          -4.7686  -15.6303   23.8522 C.3     1  UNL1        0.1351
      2 N          -5.9894  -16.4376   23.5238 N.ar    1  UNL1       -0.2760
      3 C          -7.3466  -15.9433   23.9283 C.ar    1  UNL1        0.2966
      4 O          -7.4831  -14.6417   24.6612 O.2     1  UNL1       -0.2636
      5 C          -8.5675  -16.7507   23.5999 C.ar    1  UNL1        0.2013
      6 C          -8.4311  -18.0523   22.8670 C.ar    1  UNL1        0.0470
      7 C          -7.0738  -18.5466   22.4624 C.ar    1  UNL1        0.0567
      8 C          -6.9375  -19.8482   21.7295 C.ar    1  UNL1        0.1049
      9 N          -5.5803  -20.3425   21.3250 N.ar    1  UNL1       -0.2122
     10 C          -4.3595  -19.5351   21.6534 C.ar    1  UNL1        0.2182
     11 N          -4.4958  -18.2336   22.3863 N.ar    1  UNL1       -0.1963
     12 C          -5.8530  -17.7393   22.7908 C.ar    1  UNL1        0.1506
     13 N          -3.0022  -20.0295   21.2488 N.pl3   1  UNL1       -0.3044
     14 H          -2.6863  -20.9090   21.5583 H       1  UNL1        0.1496
     15 C          -2.1265  -19.1838   20.3726 C.3     1  UNL1        0.0768
     16 C          -2.6323  -18.7067   19.0435 C.3     1  UNL1        0.0517
     17 C          -1.7565  -17.8609   18.1673 C.3     1  UNL1        0.1439
     18 O          -0.3748  -17.4923   18.6202 O.3     1  UNL1       -0.3537
     19 C           0.1310  -17.9694   19.9493 C.3     1  UNL1        0.1439
     20 C          -0.7447  -18.8151   20.8255 C.3     1  UNL1        0.0517
     21 O          -9.9247  -16.2563   24.0045 O.3     1  UNL1       -0.4464
     22 C         -11.1513  -16.7985   23.3327 C.ar    1  UNL1        0.1729
     23 C         -12.0594  -17.7356   24.0724 C.ar    1  UNL1        0.0421
     24 C         -13.2861  -18.2778   23.4007 C.ar    1  UNL1        0.0329
     25 C         -13.6047  -17.8829   21.9890 C.ar    1  UNL1        0.1426
     26 F         -14.8313  -18.4251   21.3172 F       1  UNL1       -0.2041
     27 C         -12.6966  -16.9458   21.2492 C.ar    1  UNL1        0.0624
     28 C         -11.4699  -16.4036   21.9211 C.ar    1  UNL1        0.1766
     29 F         -10.5618  -15.4666   21.1813 F       1  UNL1       -0.2009
@<TRIPOS>BOND
     1     1     2    1
     2     2     3   ar
     3     3     4    2
     4     3     5   ar
     5     5    21    1
     6    21    22    1
     7    22    23   ar
     8    23    24   ar
     9    24    25   ar
    10    25    26    1
    11    25    27   ar
    12    27    28   ar
    13    28    29    1
    14     5     6   ar
    15     6     7   ar
    16     7     8   ar
    17     8     9   ar
    18     9    10   ar
    19    10    13    1
    20    13    15    1
    21    15    16    1
    22    16    17    1
    23    17    18    1
    24    18    19    1
    25    19    20    1
    26    10    11   ar
    27    11    12   ar
    28    12     2   ar
    29    28    22   ar
    30    12     7   ar
    31    20    15    1
    32    13    14    1
@<TRIPOS>MOLECULE
*****
 29 32 0 0 0
SMALL
GASTEIGER

@<TRIPOS>ATOM
      1 C           0.2231    3.7408   31.9508 C.3     1  UNL1        0.1351
      2 N           1.2725    2.9020   32.6179 N.ar    1  UNL1       -0.2760
      3 C           1.7904    3.2859   33.9723 C.ar    1  UNL1        0.2966
      4 O           1.2588    4.5087   34.6596 O.2     1  UNL1       -0.2636
      5 C           2.8399    2.4472   34.6394 C.ar    1  UNL1        0.2013
      6 C           3.3715    1.2245   33.9522 C.ar    1  UNL1        0.0470
      7 C           2.8536    0.8405   32.5977 C.ar    1  UNL1        0.0567
      8 C           3.3852   -0.3822   31.9105 C.ar    1  UNL1        0.1049
      9 N           2.8674   -0.7661   30.5561 N.ar    1  UNL1       -0.2122
     10 C           1.8179    0.0727   29.8890 C.ar    1  UNL1        0.2182
     11 N           1.2863    1.2954   30.5762 N.ar    1  UNL1       -0.1963
     12 C           1.8042    1.6793   31.9306 C.ar    1  UNL1        0.1506
     13 N           1.3001   -0.3113   28.5345 N.pl3   1  UNL1       -0.3044
     14 H           1.2132   -1.2615   28.2919 H       1  UNL1        0.1496
     15 C           0.9145    0.7524   27.5497 C.3     1  UNL1        0.0768
     16 C           1.9710    1.4414   26.7379 C.3     1  UNL1        0.0517
     17 C           1.5854    2.5052   25.7531 C.3     1  UNL1        0.1439
     18 O           0.1433    2.8799   25.5802 O.3     1  UNL1       -0.3537
     19 C          -0.9132    2.1910   26.3920 C.3     1  UNL1        0.1439
     20 C          -0.5276    1.1272   27.3768 C.3     1  UNL1        0.0517
     21 O           3.3577    2.8311   35.9939 O.3     1  UNL1       -0.4464
     22 C           2.6429    2.3688   37.2289 C.ar    1  UNL1        0.1729
     23 C           1.6007    3.2413   37.8633 C.ar    1  UNL1        0.0421
     24 C           0.8859    2.7790   39.0983 C.ar    1  UNL1        0.0329
     25 C           1.2133    1.4440   39.6989 C.ar    1  UNL1        0.1426
     26 F           0.4985    0.9816   40.9339 F       1  UNL1       -0.2041
     27 C           2.2555    0.5714   39.0645 C.ar    1  UNL1        0.0624
     28 C           2.9703    1.0338   37.8294 C.ar    1  UNL1        0.1766
     29 F           4.0125    0.1613   37.1950 F       1  UNL1       -0.2009
@<TRIPOS>BOND
     1     1     2    1
     2     2     3   ar
     3     3     4    2
     4     3     5   ar
     5     5    21    1
     6    21    22    1
     7    22    23   ar
     8    23    24   ar
     9    24    25   ar
    10    25    26    1
    11    25    27   ar
    12    27    28   ar
    13    28    29    1
    14     5     6   ar
    15     6     7   ar
    16     7     8   ar
    17     8     9   ar
    18     9    10   ar
    19    10    13    1
    20    13    15    1
    21    15    16    1
    22    16    17    1
    23    17    18    1
    24    18    19    1
    25    19    20    1
    26    10    11   ar
    27    11    12   ar
    28    12     2   ar
    29    28    22   ar
    30    12     7   ar
    31    20    15    1
    32    13    14    1
@<TRIPOS>MOLECULE
*****
 29 32 0 0 0
SMALL
GASTEIGER

@<TRIPOS>ATOM
      1 C          -7.6999  -20.5632   19.0899 C.3     1  UNL1        0.1351
      2 N          -8.0267  -19.5315   20.1287 N.ar    1  UNL1       -0.2760
      3 C          -9.4335  -19.0315   20.2726 C.ar    1  UNL1        0.2966
      4 O         -10.5136  -19.5632   19.3777 O.2     1  UNL1       -0.2636
      5 C          -9.7603  -17.9999   21.3113 C.ar    1  UNL1        0.2013
      6 C          -8.6802  -17.4683   22.2061 C.ar    1  UNL1        0.0470
      7 C          -7.2733  -17.9682   22.0623 C.ar    1  UNL1        0.0567
      8 C          -6.1932  -17.4366   22.9571 C.ar    1  UNL1        0.1049
      9 N          -4.7864  -17.9366   22.8132 N.ar    1  UNL1       -0.2122
     10 C          -4.4596  -18.9682   21.7745 C.ar    1  UNL1        0.2182
     11 N          -5.5397  -19.4999   20.8796 N.ar    1  UNL1       -0.1963
     12 C          -6.9465  -18.9999   21.0235 C.ar    1  UNL1        0.1506
     13 N          -3.0527  -19.4682   21.6306 N.pl3   1  UNL1       -0.3044
     14 H          -2.7307  -20.2032   22.2010 H       1  UNL1        0.1496
     15 C          -2.1363  -18.8484   20.6177 C.3     1  UNL1        0.0768
     16 C          -0.7593  -18.4108   21.0206 C.3     1  UNL1        0.0517
     17 C           0.1571  -17.7909   20.0076 C.3     1  UNL1        0.1439
     18 O          -0.3036  -17.6086   18.5918 O.3     1  UNL1       -0.3537
     19 C          -1.6807  -18.0462   18.1889 C.3     1  UNL1        0.1439
     20 C          -2.5970  -18.6661   19.2018 C.3     1  UNL1        0.0517
     21 O         -11.1672  -17.4999   21.4551 O.3     1  UNL1       -0.4464
     22 C         -11.9668  -17.8506   22.6748 C.ar    1  UNL1        0.1729
     23 C         -11.2678  -18.2471   23.9414 C.ar    1  UNL1        0.0421
     24 C         -12.0673  -18.5978   25.1611 C.ar    1  UNL1        0.0329
     25 C         -13.5660  -18.5520   25.1142 C.ar    1  UNL1        0.1426
     26 F         -14.3655  -18.9027   26.3339 F       1  UNL1       -0.2041
     27 C         -14.2649  -18.1555   23.8476 C.ar    1  UNL1        0.0624
     28 C         -13.4653  -17.8048   22.6279 C.ar    1  UNL1        0.1766
     29 F         -14.1643  -17.4083   21.3613 F       1  UNL1       -0.2009
@<TRIPOS>BOND
     1     1     2    1
     2     2     3   ar
     3     3     4    2
     4     3     5   ar
     5     5    21    1
     6    21    22    1
     7    22    23   ar
     8    23    24   ar
     9    24    25   ar
    10    25    26    1
    11    25    27   ar
    12    27    28   ar
    13    28    29    1
    14     5     6   ar
    15     6     7   ar
    16     7     8   ar
    17     8     9   ar
    18     9    10   ar
    19    10    13    1
    20    13    15    1
    21    15    16    1
    22    16    17    1
    23    17    18    1
    24    18    19    1
    25    19    20    1
    26    10    11   ar
    27    11    12   ar
    28    12     2   ar
    29    28    22   ar
    30    12     7   ar
    31    20    15    1
    32    13    14    1
@<TRIPOS>MOLECULE
*****
 29 32 0 0 0
SMALL
GASTEIGER

@<TRIPOS>ATOM
      1 C           5.0109   -3.9779   19.0984 C.3     1  UNL1        0.1351
      2 N           5.2028   -3.4147   20.4753 N.ar    1  UNL1       -0.2760
      3 C           6.3704   -3.8529   21.3088 C.ar    1  UNL1        0.2966
      4 O           7.3461   -4.8544   20.7654 O.2     1  UNL1       -0.2636
      5 C           6.5623   -3.2897   22.6858 C.ar    1  UNL1        0.2013
      6 C           5.5867   -2.2883   23.2292 C.ar    1  UNL1        0.0470
      7 C           4.4191   -1.8500   22.3957 C.ar    1  UNL1        0.0567
      8 C           3.4435   -0.8486   22.9391 C.ar    1  UNL1        0.1049
      9 N           2.2760   -0.4104   22.1056 N.ar    1  UNL1       -0.2122
     10 C           2.0841   -0.9736   20.7287 C.ar    1  UNL1        0.2182
     11 N           3.0596   -1.9750   20.1852 N.ar    1  UNL1       -0.1963
     12 C           4.2272   -2.4132   21.0188 C.ar    1  UNL1        0.1506
     13 N           0.9164   -0.5354   19.8952 N.pl3   1  UNL1       -0.3044
     14 H           0.3258   -1.2069   19.4836 H       1  UNL1        0.1496
     15 C           0.6488    0.9260   19.6887 C.3     1  UNL1        0.0768
     16 C           1.2817    1.6490   18.5368 C.3     1  UNL1        0.0517
     17 C           1.0140    3.1104   18.3303 C.3     1  UNL1        0.1439
     18 O           0.1136    3.8489   19.2757 O.3     1  UNL1       -0.3537
     19 C          -0.5193    3.1259   20.4276 C.3     1  UNL1        0.1439
     20 C          -0.2517    1.6645   20.6341 C.3     1  UNL1        0.0517
     21 O           7.7300   -3.7280   23.5193 O.3     1  UNL1       -0.4464
     22 C           7.6332   -4.9732   24.3499 C.ar    1  UNL1        0.1729
     23 C           8.2490   -6.2506   23.8610 C.ar    1  UNL1        0.0421
     24 C           8.1522   -7.4959   24.6915 C.ar    1  UNL1        0.0329
     25 C           7.4395   -7.4638   26.0111 C.ar    1  UNL1        0.1426
     26 F           7.3428   -8.7091   26.8417 F       1  UNL1       -0.2041
     27 C           6.8237   -6.1864   26.5000 C.ar    1  UNL1        0.0624
     28 C           6.9206   -4.9411   25.6694 C.ar    1  UNL1        0.1766
     29 F           6.3048   -3.6637   26.1583 F       1  UNL1       -0.2009
@<TRIPOS>BOND
     1     1     2    1
     2     2     3   ar
     3     3     4    2
     4     3     5   ar
     5     5    21    1
     6    21    22    1
     7    22    23   ar
     8    23    24   ar
     9    24    25   ar
    10    25    26    1
    11    25    27   ar
    12    27    28   ar
    13    28    29    1
    14     5     6   ar
    15     6     7   ar
    16     7     8   ar
    17     8     9   ar
    18     9    10   ar
    19    10    13    1
    20    13    15    1
    21    15    16    1
    22    16    17    1
    23    17    18    1
    24    18    19    1
    25    19    20    1
    26    10    11   ar
    27    11    12   ar
    28    12     2   ar
    29    28    22   ar
    30    12     7   ar
    31    20    15    1
    32    13    14    1
@<TRIPOS>MOLECULE
*****
 29 32 0 0 0
SMALL
GASTEIGER

@<TRIPOS>ATOM
      1 C          -0.6116    2.6018   20.7110 C.3     1  UNL1        0.1351
      2 N           0.4970    1.5962   20.8098 N.ar    1  UNL1       -0.2760
      3 C           1.0397    0.9537   19.5678 C.ar    1  UNL1        0.2966
      4 O           0.4737    1.3167   18.2269 O.2     1  UNL1       -0.2636
      5 C           2.1483   -0.0519   19.6666 C.ar    1  UNL1        0.2013
      6 C           2.7142   -0.4150   21.0074 C.ar    1  UNL1        0.0470
      7 C           2.1716    0.2275   22.2495 C.ar    1  UNL1        0.0567
      8 C           2.7375   -0.1356   23.5903 C.ar    1  UNL1        0.1049
      9 N           2.1949    0.5070   24.8323 N.ar    1  UNL1       -0.2122
     10 C           1.0863    1.5126   24.7335 C.ar    1  UNL1        0.2182
     11 N           0.5203    1.8756   23.3927 N.ar    1  UNL1       -0.1963
     12 C           1.0630    1.2331   22.1507 C.ar    1  UNL1        0.1506
     13 N           0.5436    2.1551   25.9757 N.pl3   1  UNL1       -0.3044
     14 H           0.2115    3.0814   25.9459 H       1  UNL1        0.1496
     15 C           0.5071    1.3863   27.2631 C.3     1  UNL1        0.0768
     16 C          -0.7113    0.5909   27.6274 C.3     1  UNL1        0.0517
     17 C          -0.7478   -0.1779   28.9149 C.3     1  UNL1        0.1439
     18 O           0.4341   -0.1513   29.8381 O.3     1  UNL1       -0.3537
     19 C           1.6526    0.6442   29.4738 C.3     1  UNL1        0.1439
     20 C           1.6891    1.4129   28.1864 C.3     1  UNL1        0.0517
     21 O           2.6909   -0.6945   18.4245 O.3     1  UNL1       -0.4464
     22 C           4.1085   -1.1835   18.3910 C.ar    1  UNL1        0.1729
     23 C           5.2143   -0.2512   17.9932 C.ar    1  UNL1        0.0421
     24 C           6.6319   -0.7402   17.9597 C.ar    1  UNL1        0.0329
     25 C           6.9439   -2.1615   18.3241 C.ar    1  UNL1        0.1426
     26 F           8.3615   -2.6505   18.2906 F       1  UNL1       -0.2041
     27 C           5.8381   -3.0938   18.7219 C.ar    1  UNL1        0.0624
     28 C           4.4204   -2.6047   18.7553 C.ar    1  UNL1        0.1766
     29 F           3.3147   -3.5369   19.1531 F       1  UNL1       -0.2009
@<TRIPOS>BOND
     1     1     2    1
     2     2     3   ar
     3     3     4    2
     4     3     5   ar
     5     5    21    1
     6    21    22    1
     7    22    23   ar
     8    23    24   ar
     9    24    25   ar
    10    25    26    1
    11    25    27   ar
    12    27    28   ar
    13    28    29    1
    14     5     6   ar
    15     6     7   ar
    16     7     8   ar
    17     8     9   ar
    18     9    10   ar
    19    10    13    1
    20    13    15    1
    21    15    16    1
    22    16    17    1
    23    17    18    1
    24    18    19    1
    25    19    20    1
    26    10    11   ar
    27    11    12   ar
    28    12     2   ar
    29    28    22   ar
    30    12     7   ar
    31    20    15    1
    32    13    14    1
@<TRIPOS>MOLECULE
*****
 29 32 0 0 0
SMALL
GASTEIGER

@<TRIPOS>ATOM
      1 C           7.7477   -4.4592   22.5555 C.3     1  UNL1        0.1351
      2 N           6.4622   -3.6871   22.5937 N.ar    1  UNL1       -0.2760
      3 C           5.5782   -3.6418   21.3828 C.ar    1  UNL1        0.2966
      4 O           5.9796   -4.3687   20.1335 O.2     1  UNL1       -0.2636
      5 C           4.2927   -2.8698   21.4211 C.ar    1  UNL1        0.2013
      6 C           3.8912   -2.1430   22.6703 C.ar    1  UNL1        0.0470
      7 C           4.7753   -2.1882   23.8813 C.ar    1  UNL1        0.0567
      8 C           4.3739   -1.4614   25.1305 C.ar    1  UNL1        0.1049
      9 N           5.2579   -1.5066   26.3414 N.ar    1  UNL1       -0.2122
     10 C           6.5434   -2.2787   26.3031 C.ar    1  UNL1        0.2182
     11 N           6.9448   -3.0055   25.0539 N.ar    1  UNL1       -0.1963
     12 C           6.0608   -2.9603   23.8430 C.ar    1  UNL1        0.1506
     13 N           7.4274   -2.3239   27.5142 N.pl3   1  UNL1       -0.3044
     14 H           8.1462   -1.6602   27.6240 H       1  UNL1        0.1496
     15 C           7.2163   -3.3804   28.5578 C.3     1  UNL1        0.0768
     16 C           7.3784   -4.8287   28.2024 C.3     1  UNL1        0.0517
     17 C           7.1673   -5.8852   29.2462 C.3     1  UNL1        0.1439
     18 O           6.7942   -5.4934   30.6452 O.3     1  UNL1       -0.3537
     19 C           6.6321   -4.0452   31.0005 C.3     1  UNL1        0.1439
     20 C           6.8431   -2.9887   29.9569 C.3     1  UNL1        0.0517
     21 O           3.4086   -2.8245   20.2101 O.3     1  UNL1       -0.4464
     22 C           2.9173   -1.5066   19.6889 C.ar    1  UNL1        0.1729
     23 C           1.5694   -0.9928   20.1003 C.ar    1  UNL1        0.0421
     24 C           1.0781    0.3251   19.5792 C.ar    1  UNL1        0.0329
     25 C           1.9348    1.1294   18.6466 C.ar    1  UNL1        0.1426
     26 F           1.4435    2.4473   18.1255 F       1  UNL1       -0.2041
     27 C           3.2826    0.6156   18.2353 C.ar    1  UNL1        0.0624
     28 C           3.7739   -0.7025   18.7565 C.ar    1  UNL1        0.1766
     29 F           5.1218   -1.2163   18.3451 F       1  UNL1       -0.2009
@<TRIPOS>BOND
     1     1     2    1
     2     2     3   ar
     3     3     4    2
     4     3     5   ar
     5     5    21    1
     6    21    22    1
     7    22    23   ar
     8    23    24   ar
     9    24    25   ar
    10    25    26    1
    11    25    27   ar
    12    27    28   ar
    13    28    29    1
    14     5     6   ar
    15     6     7   ar
    16     7     8   ar
    17     8     9   ar
    18     9    10   ar
    19    10    13    1
    20    13    15    1
    21    15    16    1
    22    16    17    1
    23    17    18    1
    24    18    19    1
    25    19    20    1
    26    10    11   ar
    27    11    12   ar
    28    12     2   ar
    29    28    22   ar
    30    12     7   ar
    31    20    15    1
    32    13    14    1
@<TRIPOS>MOLECULE
*****
 29 32 0 0 0
SMALL
GASTEIGER

@<TRIPOS>ATOM
      1 C          -7.6149  -19.3649   21.6442 C.3     1  UNL1        0.1351
      2 N          -6.6939  -18.4726   22.4224 N.ar    1  UNL1       -0.2760
      3 C          -5.2204  -18.7524   22.4451 C.ar    1  UNL1        0.2966
      4 O          -4.6679  -19.9246   21.6895 O.2     1  UNL1       -0.2636
      5 C          -4.2994  -17.8602   23.2233 C.ar    1  UNL1        0.2013
      6 C          -4.8519  -16.6880   23.9788 C.ar    1  UNL1        0.0470
      7 C          -6.3254  -16.4081   23.9562 C.ar    1  UNL1        0.0567
      8 C          -6.8779  -15.2360   24.7117 C.ar    1  UNL1        0.1049
      9 N          -8.3513  -14.9562   24.6890 N.ar    1  UNL1       -0.2122
     10 C          -9.2723  -15.8484   23.9108 C.ar    1  UNL1        0.2182
     11 N          -8.7199  -17.0206   23.1553 N.ar    1  UNL1       -0.1963
     12 C          -7.2464  -17.3004   23.1780 C.ar    1  UNL1        0.1506
     13 N         -10.7459  -15.5685   23.8881 N.pl3   1  UNL1       -0.3044
     14 H         -11.1300  -14.9031   24.5037 H       1  UNL1        0.1496
     15 C         -11.6340  -16.3024   22.9276 C.3     1  UNL1        0.0768
     16 C         -12.5171  -17.4105   23.4196 C.3     1  UNL1        0.0517
     17 C         -13.4053  -18.1444   22.4590 C.3     1  UNL1        0.1439
     18 O         -13.4103  -17.7702   21.0065 O.3     1  UNL1       -0.3537
     19 C         -12.5271  -16.6621   20.5145 C.3     1  UNL1        0.1439
     20 C         -11.6390  -15.9282   21.4750 C.3     1  UNL1        0.0517
     21 O          -2.8259  -18.1401   23.2460 O.3     1  UNL1       -0.4464
     22 C          -2.0167  -18.0010   21.9907 C.ar    1  UNL1        0.1729
     23 C          -1.4635  -19.2211   21.3159 C.ar    1  UNL1        0.0421
     24 C          -0.6543  -19.0820   20.0606 C.ar    1  UNL1        0.0329
     25 C          -0.3982  -17.7227   19.4801 C.ar    1  UNL1        0.1426
     26 F           0.4111  -17.5836   18.2248 F       1  UNL1       -0.2041
     27 C          -0.9513  -16.5026   20.1549 C.ar    1  UNL1        0.0624
     28 C          -1.7606  -16.6418   21.4102 C.ar    1  UNL1        0.1766
     29 F          -2.3138  -15.4217   22.0850 F       1  UNL1       -0.2009
@<TRIPOS>BOND
     1     1     2    1
     2     2     3   ar
     3     3     4    2
     4     3     5   ar
     5     5    21    1
     6    21    22    1
     7    22    23   ar
     8    23    24   ar
     9    24    25   ar
    10    25    26    1
    11    25    27   ar
    12    27    28   ar
    13    28    29    1
    14     5     6   ar
    15     6     7   ar
    16     7     8   ar
    17     8     9   ar
    18     9    10   ar
    19    10    13    1
    20    13    15    1
    21    15    16    1
    22    16    17    1
    23    17    18    1
    24    18    19    1
    25    19    20    1
    26    10    11   ar
    27    11    12   ar
    28    12     2   ar
    29    28    22   ar
    30    12     7   ar
    31    20    15    1
    32    13    14    1
