@<TRIPOS>MOLECULE
*****
 33 36 0 0 0
SMALL
GASTEIGER

@<TRIPOS>ATOM
      1 C           4.6829   -3.0732   22.6563 C.ar    1  UNL1        0.1483
      2 C           5.8088   -3.8641   23.2535 C.ar    1  UNL1        0.0374
      3 C           6.4607   -3.4005   24.5224 C.ar    1  UNL1        0.0023
      4 C           5.9867   -2.1460   25.1941 C.ar    1  UNL1        0.0211
      5 C           4.8607   -1.3549   24.5970 C.ar    1  UNL1        0.1382
      6 C           4.2088   -1.8185   23.3281 C.ar    1  UNL1        0.0740
      7 O           4.3867   -0.1003   25.2687 O.3     1  UNL1       -0.4716
      8 C           2.9359    0.2770   25.2151 C.3     1  UNL1        0.2525
      9 O           4.0310   -3.5368   21.3874 O.3     1  UNL1       -0.4533
     10 C           1.6575    0.4382   18.5917 C.ar    1  UNL1        0.1402
     11 C           1.3484   -0.2494   19.8884 C.ar    1  UNL1        0.0371
     12 C           2.2426   -1.3452   20.3881 C.ar    1  UNL1        0.0077
     13 C           3.4460   -1.7533   19.5911 C.ar    1  UNL1        0.0524
     14 C           4.3402   -2.8491   20.0907 C.ar    1  UNL1        0.1482
     15 C           5.5436   -3.2571   19.2937 C.ar    1  UNL1        0.0581
     16 C           5.8528   -2.5694   17.9970 C.ar    1  UNL1        0.1020
     17 N           4.9586   -1.4737   17.4973 N.ar    1  UNL1       -0.2435
     18 C           3.7551   -1.0656   18.2944 C.ar    1  UNL1        0.0873
     19 C           2.8609    0.0302   17.7947 C.ar    1  UNL1        0.0561
     20 C           0.6126    2.7989   18.8841 C.3     1  UNL1        0.2525
     21 O           0.7633    1.5340   18.0921 O.3     1  UNL1       -0.4714
     22 C           6.6386   -1.6824   26.4630 C.3     1  UNL1        0.1146
     23 C           5.9060   -1.7948   27.7671 C.2     1  UNL1        0.2307
     24 O           5.9118   -3.0914   28.5212 O.2     1  UNL1       -0.2744
     25 N           5.1676   -0.6106   28.3170 N.am    1  UNL1       -0.2815
     26 H           5.1637    0.2404   27.8220 H       1  UNL1        0.1549
     27 C           4.4349   -0.7230   29.6211 C.ar    1  UNL1        0.0847
     28 C           5.0613   -0.9124   30.9708 C.ar    1  UNL1        0.1110
     29 N           3.9607   -0.9723   31.9884 N.ar    1  UNL1       -0.2464
     30 C           4.1360   -1.1528   33.4671 C.3     1  UNL1        0.1538
     31 N           2.6542   -0.8198   31.2674 N.ar    1  UNL1       -0.1723
     32 C           2.9472   -0.6658   29.8044 C.ar    1  UNL1        0.0938
     33 C           1.9311   -0.4861   28.7158 C.3     1  UNL1        0.0553
@<TRIPOS>BOND
     1    20    21    1
     2    21    10    1
     3    10    11   ar
     4    11    12   ar
     5    12    13   ar
     6    13    14   ar
     7    14     9    1
     8     9     1    1
     9     1     2   ar
    10     2     3   ar
    11     3     4   ar
    12     4    22    1
    13    22    23    1
    14    23    24    2
    15    23    25   am
    16    25    27    1
    17    27    28   ar
    18    28    29   ar
    19    29    30    1
    20    29    31   ar
    21    31    32   ar
    22    32    33    1
    23     4     5   ar
    24     5     7    1
    25     7     8    1
    26     5     6   ar
    27    14    15   ar
    28    15    16   ar
    29    16    17   ar
    30    17    18   ar
    31    18    19   ar
    32    19    10   ar
    33    18    13   ar
    34     6     1   ar
    35    32    27   ar
    36    25    26    1
@<TRIPOS>MOLECULE
*****
 33 36 0 0 0
SMALL
GASTEIGER

@<TRIPOS>ATOM
      1 C           2.0523    0.2960   18.7411 C.ar    1  UNL1        0.1483
      2 C           1.2752   -0.3558   19.8462 C.ar    1  UNL1        0.0374
      3 C           0.5307    0.4878   20.8382 C.ar    1  UNL1        0.0023
      4 C           0.5633    1.9831   20.7251 C.ar    1  UNL1        0.0211
      5 C           1.3404    2.6350   19.6200 C.ar    1  UNL1        0.1382
      6 C           2.0849    1.7915   18.6280 C.ar    1  UNL1        0.0740
      7 O           1.3729    4.1304   19.5070 O.3     1  UNL1       -0.4716
      8 C           0.5903    4.8182   18.4278 C.3     1  UNL1        0.2525
      9 O           2.7969   -0.5475   17.7491 O.3     1  UNL1       -0.4533
     10 C           6.3262   -3.7237   20.3386 C.ar    1  UNL1        0.1402
     11 C           4.8285   -3.6559   20.2909 C.ar    1  UNL1        0.0371
     12 C           4.1513   -2.6198   19.4436 C.ar    1  UNL1        0.0077
     13 C           4.9718   -1.6515   18.6441 C.ar    1  UNL1        0.0524
     14 C           4.2946   -0.6154   17.7968 C.ar    1  UNL1        0.1482
     15 C           5.1150    0.3529   16.9973 C.ar    1  UNL1        0.0581
     16 C           6.6128    0.2850   17.0450 C.ar    1  UNL1        0.1020
     17 N           7.2900   -0.7511   17.8923 N.ar    1  UNL1       -0.2435
     18 C           6.4694   -1.7194   18.6918 C.ar    1  UNL1        0.0873
     19 C           7.1467   -2.7555   19.5391 C.ar    1  UNL1        0.0561
     20 C           8.4838   -4.9723   21.0706 C.3     1  UNL1        0.2525
     21 O           7.0034   -4.7599   21.1858 O.3     1  UNL1       -0.4714
     22 C          -0.1813    2.8267   21.7171 C.3     1  UNL1        0.1146
     23 C          -1.4780    3.4728   21.3286 C.2     1  UNL1        0.2307
     24 O          -1.6759    4.9444   21.5408 O.2     1  UNL1       -0.2744
     25 N          -2.5769    2.6472   20.7278 N.am    1  UNL1       -0.2815
     26 H          -2.4470    1.6813   20.5885 H       1  UNL1        0.1549
     27 C          -3.8736    3.2932   20.3392 C.ar    1  UNL1        0.0847
     28 C          -4.2253    3.8155   18.9777 C.ar    1  UNL1        0.1110
     29 N          -5.6155    4.3756   19.0410 N.ar    1  UNL1       -0.2464
     30 C          -6.3663    5.0018   17.9034 C.3     1  UNL1        0.1538
     31 N          -6.1229    4.1994   20.4415 N.ar    1  UNL1       -0.1723
     32 C          -5.0464    3.5305   21.2439 C.ar    1  UNL1        0.0938
     33 C          -5.1282    3.1633   22.6959 C.3     1  UNL1        0.0553
@<TRIPOS>BOND
     1    20    21    1
     2    21    10    1
     3    10    11   ar
     4    11    12   ar
     5    12    13   ar
     6    13    14   ar
     7    14     9    1
     8     9     1    1
     9     1     2   ar
    10     2     3   ar
    11     3     4   ar
    12     4    22    1
    13    22    23    1
    14    23    24    2
    15    23    25   am
    16    25    27    1
    17    27    28   ar
    18    28    29   ar
    19    29    30    1
    20    29    31   ar
    21    31    32   ar
    22    32    33    1
    23     4     5   ar
    24     5     7    1
    25     7     8    1
    26     5     6   ar
    27    14    15   ar
    28    15    16   ar
    29    16    17   ar
    30    17    18   ar
    31    18    19   ar
    32    19    10   ar
    33    18    13   ar
    34     6     1   ar
    35    32    27   ar
    36    25    26    1
@<TRIPOS>MOLECULE
*****
 33 36 0 0 0
SMALL
GASTEIGER

@<TRIPOS>ATOM
      1 C           4.9762   -3.3451   22.6940 C.ar    1  UNL1        0.1483
      2 C           4.5789   -2.2397   23.6269 C.ar    1  UNL1        0.0374
      3 C           5.3859   -1.9753   24.8633 C.ar    1  UNL1        0.0023
      4 C           6.5904   -2.8162   25.1668 C.ar    1  UNL1        0.0211
      5 C           6.9877   -3.9217   24.2340 C.ar    1  UNL1        0.1382
      6 C           6.1807   -4.1861   22.9976 C.ar    1  UNL1        0.0740
      7 O           8.1922   -4.7626   24.5375 O.3     1  UNL1       -0.4716
      8 C           8.1249   -6.2530   24.3816 C.3     1  UNL1        0.2525
      9 O           4.1691   -3.6095   21.4576 O.3     1  UNL1       -0.4533
     10 C           1.8540    0.4110   18.6781 C.ar    1  UNL1        0.1402
     11 C           1.5191   -0.2962   19.9578 C.ar    1  UNL1        0.0371
     12 C           2.4025   -1.4006   20.4578 C.ar    1  UNL1        0.0077
     13 C           3.6206   -1.7979   19.6780 C.ar    1  UNL1        0.0524
     14 C           4.5040   -2.9024   20.1779 C.ar    1  UNL1        0.1482
     15 C           5.7221   -3.2997   19.3981 C.ar    1  UNL1        0.0581
     16 C           6.0571   -2.5925   18.1183 C.ar    1  UNL1        0.1020
     17 N           5.1737   -1.4881   17.6184 N.ar    1  UNL1       -0.2435
     18 C           3.9555   -1.0908   18.3982 C.ar    1  UNL1        0.0873
     19 C           3.0722    0.0137   17.8983 C.ar    1  UNL1        0.0561
     20 C           0.2174    2.3723   19.1519 C.3     1  UNL1        0.2525
     21 O           0.9707    1.5154   18.1782 O.3     1  UNL1       -0.4714
     22 C           7.3974   -2.5518   26.4032 C.3     1  UNL1        0.1146
     23 C           6.8872   -2.9974   27.7415 C.2     1  UNL1        0.2307
     24 O           6.0340   -4.2265   27.8475 O.2     1  UNL1       -0.2744
     25 N           7.2301   -2.2138   28.9738 N.am    1  UNL1       -0.2815
     26 H           7.7901   -1.4071   28.9042 H       1  UNL1        0.1549
     27 C           6.7199   -2.6594   30.3121 C.ar    1  UNL1        0.0847
     28 C           5.6483   -1.9849   31.1163 C.ar    1  UNL1        0.1110
     29 N           5.4577   -2.7664   32.3825 N.ar    1  UNL1       -0.2464
     30 C           4.4843   -2.4466   33.4780 C.3     1  UNL1        0.1538
     31 N           6.4115   -3.9240   32.3607 N.ar    1  UNL1       -0.1723
     32 C           7.1915   -3.8579   31.0811 C.ar    1  UNL1        0.0938
     33 C           8.2563   -4.8210   30.6468 C.3     1  UNL1        0.0553
@<TRIPOS>BOND
     1    20    21    1
     2    21    10    1
     3    10    11   ar
     4    11    12   ar
     5    12    13   ar
     6    13    14   ar
     7    14     9    1
     8     9     1    1
     9     1     2   ar
    10     2     3   ar
    11     3     4   ar
    12     4    22    1
    13    22    23    1
    14    23    24    2
    15    23    25   am
    16    25    27    1
    17    27    28   ar
    18    28    29   ar
    19    29    30    1
    20    29    31   ar
    21    31    32   ar
    22    32    33    1
    23     4     5   ar
    24     5     7    1
    25     7     8    1
    26     5     6   ar
    27    14    15   ar
    28    15    16   ar
    29    16    17   ar
    30    17    18   ar
    31    18    19   ar
    32    19    10   ar
    33    18    13   ar
    34     6     1   ar
    35    32    27   ar
    36    25    26    1
@<TRIPOS>MOLECULE
*****
 33 36 0 0 0
SMALL
GASTEIGER

@<TRIPOS>ATOM
      1 C           2.1862   -0.8988   20.5053 C.ar    1  UNL1        0.1483
      2 C           2.7927   -0.7424   21.8682 C.ar    1  UNL1        0.0374
      3 C           2.1900    0.2165   22.8518 C.ar    1  UNL1        0.0023
      4 C           0.9809    1.0190   22.4723 C.ar    1  UNL1        0.0211
      5 C           0.3744    0.8626   21.1093 C.ar    1  UNL1        0.1382
      6 C           0.9770   -0.0963   20.1258 C.ar    1  UNL1        0.0740
      7 O          -0.8348    1.6651   20.7299 O.3     1  UNL1       -0.4716
      8 C          -0.6736    2.9600   19.9902 C.3     1  UNL1        0.2525
      9 O           2.7889   -1.8577   19.5217 O.3     1  UNL1       -0.4533
     10 C           8.0352   -3.0746   20.0169 C.ar    1  UNL1        0.1402
     11 C           6.8020   -3.4587   20.7795 C.ar    1  UNL1        0.0371
     12 C           5.4643   -2.9250   20.3602 C.ar    1  UNL1        0.0077
     13 C           5.3598   -2.0073   19.1784 C.ar    1  UNL1        0.0524
     14 C           4.0221   -1.4736   18.7591 C.ar    1  UNL1        0.1482
     15 C           3.9176   -0.5559   17.5773 C.ar    1  UNL1        0.0581
     16 C           5.1509   -0.1717   16.8146 C.ar    1  UNL1        0.1020
     17 N           6.4886   -0.7054   17.2339 N.ar    1  UNL1       -0.2435
     18 C           6.5930   -1.6232   18.4158 C.ar    1  UNL1        0.0873
     19 C           7.9307   -2.1568   18.8350 C.ar    1  UNL1        0.0561
     20 C           9.4884   -5.0032   20.9753 C.3     1  UNL1        0.2525
     21 O           9.3729   -3.6082   20.4361 O.3     1  UNL1       -0.4714
     22 C           0.3782    1.9778   23.4559 C.3     1  UNL1        0.1146
     23 C           0.8812    2.0184   24.8684 C.2     1  UNL1        0.2307
     24 O           1.9485    2.9982   25.2566 O.2     1  UNL1       -0.2744
     25 N           0.3168    1.0791   25.8928 N.am    1  UNL1       -0.2815
     26 H          -0.3837    0.4360   25.6380 H       1  UNL1        0.1549
     27 C           0.8198    1.1196   27.3053 C.ar    1  UNL1        0.0847
     28 C           0.1087    1.7285   28.4773 C.ar    1  UNL1        0.1110
     29 N           0.9717    1.5436   29.6903 N.ar    1  UNL1       -0.2464
     30 C           0.6472    2.0015   31.0813 C.3     1  UNL1        0.1538
     31 N           2.2162    0.8204   29.2679 N.ar    1  UNL1       -0.1723
     32 C           2.1223    0.5584   27.7939 C.ar    1  UNL1        0.0938
     33 C           3.1503   -0.1419   26.9557 C.3     1  UNL1        0.0553
@<TRIPOS>BOND
     1    20    21    1
     2    21    10    1
     3    10    11   ar
     4    11    12   ar
     5    12    13   ar
     6    13    14   ar
     7    14     9    1
     8     9     1    1
     9     1     2   ar
    10     2     3   ar
    11     3     4   ar
    12     4    22    1
    13    22    23    1
    14    23    24    2
    15    23    25   am
    16    25    27    1
    17    27    28   ar
    18    28    29   ar
    19    29    30    1
    20    29    31   ar
    21    31    32   ar
    22    32    33    1
    23     4     5   ar
    24     5     7    1
    25     7     8    1
    26     5     6   ar
    27    14    15   ar
    28    15    16   ar
    29    16    17   ar
    30    17    18   ar
    31    18    19   ar
    32    19    10   ar
    33    18    13   ar
    34     6     1   ar
    35    32    27   ar
    36    25    26    1
@<TRIPOS>MOLECULE
*****
 33 36 0 0 0
SMALL
GASTEIGER

@<TRIPOS>ATOM
      1 C           6.5334   -3.4045   22.6713 C.ar    1  UNL1        0.1483
      2 C           5.0781   -3.7212   22.4930 C.ar    1  UNL1        0.0374
      3 C           4.4370   -3.5687   21.1455 C.ar    1  UNL1        0.0023
      4 C           5.2511   -3.0995   19.9763 C.ar    1  UNL1        0.0211
      5 C           6.7065   -2.7827   20.1546 C.ar    1  UNL1        0.1382
      6 C           7.3476   -2.9352   21.5021 C.ar    1  UNL1        0.0740
      7 O           7.5206   -2.3135   18.9855 O.3     1  UNL1       -0.4716
      8 C           7.6813   -0.8451   18.7244 C.3     1  UNL1        0.2525
      9 O           7.1745   -3.5569   24.0188 O.3     1  UNL1       -0.4533
     10 C           7.1371   -5.8152   28.9329 C.ar    1  UNL1        0.1402
     11 C           6.7991   -4.4493   28.4134 C.ar    1  UNL1        0.0371
     12 C           6.9243   -4.1518   26.9486 C.ar    1  UNL1        0.0077
     13 C           7.3873   -5.2203   26.0032 C.ar    1  UNL1        0.0524
     14 C           7.5125   -4.9229   24.5383 C.ar    1  UNL1        0.1482
     15 C           7.9756   -5.9914   23.5929 C.ar    1  UNL1        0.0581
     16 C           8.3136   -7.3574   24.1124 C.ar    1  UNL1        0.1020
     17 N           8.1884   -7.6549   25.5773 N.ar    1  UNL1       -0.2435
     18 C           7.7253   -6.5863   26.5227 C.ar    1  UNL1        0.0873
     19 C           7.6002   -6.8837   27.9876 C.ar    1  UNL1        0.0561
     20 C           6.9903   -4.9896   31.3920 C.3     1  UNL1        0.2525
     21 O           7.0120   -6.1126   30.3978 O.3     1  UNL1       -0.4714
     22 C           4.6100   -2.9470   18.6289 C.3     1  UNL1        0.1146
     23 C           4.0073   -1.6328   18.2295 C.2     1  UNL1        0.2307
     24 O           4.0798   -1.1774   16.8021 O.2     1  UNL1       -0.2744
     25 N           3.3322   -0.7739   19.2574 N.am    1  UNL1       -0.2815
     26 H           3.2846   -1.0729   20.1942 H       1  UNL1        0.1549
     27 C           2.7295    0.5403   18.8580 C.ar    1  UNL1        0.0847
     28 C           1.2703    0.8113   18.6406 C.ar    1  UNL1        0.1110
     29 N           1.1191    2.2529   18.2540 N.ar    1  UNL1       -0.2464
     30 C          -0.1712    2.9518   17.9436 C.3     1  UNL1        0.1538
     31 N           2.4850    2.8727   18.2325 N.ar    1  UNL1       -0.1723
     32 C           3.4802    1.8143   18.6058 C.ar    1  UNL1        0.0938
     33 C           4.9654    1.9975   18.7087 C.3     1  UNL1        0.0553
@<TRIPOS>BOND
     1    20    21    1
     2    21    10    1
     3    10    11   ar
     4    11    12   ar
     5    12    13   ar
     6    13    14   ar
     7    14     9    1
     8     9     1    1
     9     1     2   ar
    10     2     3   ar
    11     3     4   ar
    12     4    22    1
    13    22    23    1
    14    23    24    2
    15    23    25   am
    16    25    27    1
    17    27    28   ar
    18    28    29   ar
    19    29    30    1
    20    29    31   ar
    21    31    32   ar
    22    32    33    1
    23     4     5   ar
    24     5     7    1
    25     7     8    1
    26     5     6   ar
    27    14    15   ar
    28    15    16   ar
    29    16    17   ar
    30    17    18   ar
    31    18    19   ar
    32    19    10   ar
    33    18    13   ar
    34     6     1   ar
    35    32    27   ar
    36    25    26    1
@<TRIPOS>MOLECULE
*****
 33 36 0 0 0
SMALL
GASTEIGER

@<TRIPOS>ATOM
      1 C           0.7882    2.6388   20.1939 C.ar    1  UNL1        0.1483
      2 C           0.3472    1.2168   20.0116 C.ar    1  UNL1        0.0374
      3 C           1.1459    0.2891   19.1448 C.ar    1  UNL1        0.0023
      4 C           2.3857    0.7834   18.4603 C.ar    1  UNL1        0.0211
      5 C           2.8268    2.2055   18.6426 C.ar    1  UNL1        0.1382
      6 C           2.0280    3.1332   19.5094 C.ar    1  UNL1        0.0740
      7 O           4.0665    2.6999   17.9581 O.3     1  UNL1       -0.4716
      8 C           5.3985    2.5747   18.6366 C.3     1  UNL1        0.2525
      9 O          -0.0106    3.5665   21.0607 O.3     1  UNL1       -0.4533
     10 C          -4.1053    3.6145   24.5936 C.ar    1  UNL1        0.1402
     11 C          -2.6128    3.5575   24.7320 C.ar    1  UNL1        0.0371
     12 C          -1.7454    3.5605   23.5083 C.ar    1  UNL1        0.0077
     13 C          -2.3705    3.6205   22.1461 C.ar    1  UNL1        0.0524
     14 C          -1.5030    3.6235   20.9223 C.ar    1  UNL1        0.1482
     15 C          -2.1281    3.6835   19.5601 C.ar    1  UNL1        0.0581
     16 C          -3.6207    3.7405   19.4216 C.ar    1  UNL1        0.1020
     17 N          -4.4881    3.7375   20.6454 N.ar    1  UNL1       -0.2435
     18 C          -3.8629    3.6775   22.0076 C.ar    1  UNL1        0.0873
     19 C          -4.7303    3.6745   23.2314 C.ar    1  UNL1        0.0561
     20 C          -4.6253    4.4866   26.9850 C.3     1  UNL1        0.2525
     21 O          -4.9727    3.6115   25.8174 O.3     1  UNL1       -0.4714
     22 C           3.1844   -0.1443   17.5935 C.3     1  UNL1        0.1146
     23 C           4.1229   -1.1332   18.2188 C.2     1  UNL1        0.2307
     24 O           5.0877   -1.8974   17.3614 O.2     1  UNL1       -0.2744
     25 N           4.0966   -1.3581   19.7016 N.am    1  UNL1       -0.2815
     26 H           3.4634   -0.8565   20.2644 H       1  UNL1        0.1549
     27 C           5.0351   -2.3470   20.3270 C.ar    1  UNL1        0.0847
     28 C           6.2559   -2.0160   21.1333 C.ar    1  UNL1        0.1110
     29 N           6.8929   -3.3052   21.5605 N.ar    1  UNL1       -0.2464
     30 C           8.1384   -3.4424   22.3852 C.3     1  UNL1        0.1538
     31 N           6.0658   -4.4329   21.0183 N.ar    1  UNL1       -0.1723
     32 C           4.9176   -3.8408   20.2559 C.ar    1  UNL1        0.0938
     33 C           3.8409   -4.6077   19.5470 C.3     1  UNL1        0.0553
@<TRIPOS>BOND
     1    20    21    1
     2    21    10    1
     3    10    11   ar
     4    11    12   ar
     5    12    13   ar
     6    13    14   ar
     7    14     9    1
     8     9     1    1
     9     1     2   ar
    10     2     3   ar
    11     3     4   ar
    12     4    22    1
    13    22    23    1
    14    23    24    2
    15    23    25   am
    16    25    27    1
    17    27    28   ar
    18    28    29   ar
    19    29    30    1
    20    29    31   ar
    21    31    32   ar
    22    32    33    1
    23     4     5   ar
    24     5     7    1
    25     7     8    1
    26     5     6   ar
    27    14    15   ar
    28    15    16   ar
    29    16    17   ar
    30    17    18   ar
    31    18    19   ar
    32    19    10   ar
    33    18    13   ar
    34     6     1   ar
    35    32    27   ar
    36    25    26    1
@<TRIPOS>MOLECULE
*****
 33 36 0 0 0
SMALL
GASTEIGER

@<TRIPOS>ATOM
      1 C           1.6689    1.2526   24.3382 C.ar    1  UNL1        0.1483
      2 C           2.7492    0.2395   24.1007 C.ar    1  UNL1        0.0374
      3 C           2.8358   -0.4693   22.7816 C.ar    1  UNL1        0.0023
      4 C           1.8421   -0.1651   21.7000 C.ar    1  UNL1        0.0211
      5 C           0.7617    0.8480   21.9374 C.ar    1  UNL1        0.1382
      6 C           0.6751    1.5569   23.2565 C.ar    1  UNL1        0.0740
      7 O          -0.2321    1.1523   20.8559 O.3     1  UNL1       -0.4716
      8 C           0.0049    2.3014   19.9212 C.3     1  UNL1        0.2525
      9 O           1.5822    1.9615   25.6573 O.3     1  UNL1       -0.4533
     10 C           3.8200   -0.5327   29.9024 C.ar    1  UNL1        0.1402
     11 C           4.3736    0.1787   28.7036 C.ar    1  UNL1        0.0371
     12 C           3.4432    0.7730   27.6882 C.ar    1  UNL1        0.0077
     13 C           1.9591    0.6558   27.8715 C.ar    1  UNL1        0.0524
     14 C           1.0286    1.2500   26.8561 C.ar    1  UNL1        0.1482
     15 C          -0.4555    1.1328   27.0395 C.ar    1  UNL1        0.0581
     16 C          -1.0092    0.4213   28.2384 C.ar    1  UNL1        0.1020
     17 N          -0.0787   -0.1730   29.2538 N.ar    1  UNL1       -0.2435
     18 C           1.4054   -0.0557   29.0704 C.ar    1  UNL1        0.0873
     19 C           2.3359   -0.6499   30.0858 C.ar    1  UNL1        0.0561
     20 C           4.2651   -1.4002   32.3106 C.3     1  UNL1        0.2525
     21 O           4.7505   -1.1270   30.9179 O.3     1  UNL1       -0.4714
     22 C           1.9287   -0.8740   20.3809 C.3     1  UNL1        0.1146
     23 C           2.8568   -0.3676   19.3169 C.2     1  UNL1        0.2307
     24 O           2.3073    0.0927   17.9993 O.2     1  UNL1       -0.2744
     25 N           4.3345   -0.3217   19.5704 N.am    1  UNL1       -0.2815
     26 H           4.6952   -0.6239   20.4352 H       1  UNL1        0.1549
     27 C           5.2627    0.1846   18.5064 C.ar    1  UNL1        0.0847
     28 C           5.3336    1.5932   17.9956 C.ar    1  UNL1        0.1110
     29 N           6.3977    1.6504   16.9398 N.ar    1  UNL1       -0.2464
     30 C           6.8038    2.8672   16.1623 C.3     1  UNL1        0.1538
     31 N           6.9844    0.2771   16.7981 N.ar    1  UNL1       -0.1723
     32 C           6.2829   -0.6287   17.7663 C.ar    1  UNL1        0.0938
     33 C           6.5540   -2.0912   17.9604 C.3     1  UNL1        0.0553
@<TRIPOS>BOND
     1    20    21    1
     2    21    10    1
     3    10    11   ar
     4    11    12   ar
     5    12    13   ar
     6    13    14   ar
     7    14     9    1
     8     9     1    1
     9     1     2   ar
    10     2     3   ar
    11     3     4   ar
    12     4    22    1
    13    22    23    1
    14    23    24    2
    15    23    25   am
    16    25    27    1
    17    27    28   ar
    18    28    29   ar
    19    29    30    1
    20    29    31   ar
    21    31    32   ar
    22    32    33    1
    23     4     5   ar
    24     5     7    1
    25     7     8    1
    26     5     6   ar
    27    14    15   ar
    28    15    16   ar
    29    16    17   ar
    30    17    18   ar
    31    18    19   ar
    32    19    10   ar
    33    18    13   ar
    34     6     1   ar
    35    32    27   ar
    36    25    26    1
@<TRIPOS>MOLECULE
*****
 33 36 0 0 0
SMALL
GASTEIGER

@<TRIPOS>ATOM
      1 C           0.5128    2.3173   19.5426 C.ar    1  UNL1        0.1483
      2 C           0.0411    1.2579   20.4940 C.ar    1  UNL1        0.0374
      3 C           0.7463   -0.0646   20.5534 C.ar    1  UNL1        0.0023
      4 C           1.9231   -0.3278   19.6614 C.ar    1  UNL1        0.0211
      5 C           2.3949    0.7316   18.7099 C.ar    1  UNL1        0.1382
      6 C           1.6897    2.0542   18.6505 C.ar    1  UNL1        0.0740
      7 O           3.5717    0.4684   17.8179 O.3     1  UNL1       -0.4716
      8 C           4.9174    1.0328   18.1655 C.3     1  UNL1        0.2525
      9 O          -0.1924    3.6399   19.4832 O.3     1  UNL1       -0.4533
     10 C          -5.1576    3.6828   21.6267 C.ar    1  UNL1        0.1402
     11 C          -3.7762    3.5947   22.2043 C.ar    1  UNL1        0.0371
     12 C          -2.5816    3.6098   21.2973 C.ar    1  UNL1        0.0077
     13 C          -2.7685    3.7129   19.8126 C.ar    1  UNL1        0.0524
     14 C          -1.5739    3.7280   18.9055 C.ar    1  UNL1        0.1482
     15 C          -1.7608    3.8311   17.4208 C.ar    1  UNL1        0.0581
     16 C          -3.1423    3.9192   16.8431 C.ar    1  UNL1        0.1020
     17 N          -4.3369    3.9042   17.7502 N.ar    1  UNL1       -0.2435
     18 C          -4.1499    3.8010   19.2349 C.ar    1  UNL1        0.0873
     19 C          -5.3445    3.7859   20.1420 C.ar    1  UNL1        0.0561
     20 C          -7.2562    4.8627   22.6034 C.3     1  UNL1        0.2525
     21 O          -6.3522    3.6677   22.5337 O.3     1  UNL1       -0.4714
     22 C           2.6283   -1.6504   19.7208 C.3     1  UNL1        0.1146
     23 C           3.8034   -1.8334   20.6348 C.2     1  UNL1        0.2307
     24 O           4.4619   -0.6385   21.2581 O.2     1  UNL1       -0.2744
     25 N           4.3201   -3.2113   20.9255 N.am    1  UNL1       -0.2815
     26 H           3.8878   -3.9955   20.5164 H       1  UNL1        0.1549
     27 C           5.4952   -3.3943   21.8396 C.ar    1  UNL1        0.0847
     28 C           5.4320   -3.6618   23.3142 C.ar    1  UNL1        0.1110
     29 N           6.8377   -3.7747   23.8255 N.ar    1  UNL1       -0.2464
     30 C           7.2407   -4.0390   25.2460 C.3     1  UNL1        0.1538
     31 N           7.7697   -3.5771   22.6668 N.ar    1  UNL1       -0.1723
     32 C           6.9400   -3.3419   21.4395 C.ar    1  UNL1        0.0938
     33 C           7.4631   -3.0974   20.0551 C.3     1  UNL1        0.0553
@<TRIPOS>BOND
     1    20    21    1
     2    21    10    1
     3    10    11   ar
     4    11    12   ar
     5    12    13   ar
     6    13    14   ar
     7    14     9    1
     8     9     1    1
     9     1     2   ar
    10     2     3   ar
    11     3     4   ar
    12     4    22    1
    13    22    23    1
    14    23    24    2
    15    23    25   am
    16    25    27    1
    17    27    28   ar
    18    28    29   ar
    19    29    30    1
    20    29    31   ar
    21    31    32   ar
    22    32    33    1
    23     4     5   ar
    24     5     7    1
    25     7     8    1
    26     5     6   ar
    27    14    15   ar
    28    15    16   ar
    29    16    17   ar
    30    17    18   ar
    31    18    19   ar
    32    19    10   ar
    33    18    13   ar
    34     6     1   ar
    35    32    27   ar
    36    25    26    1
@<TRIPOS>MOLECULE
*****
 33 36 0 0 0
SMALL
GASTEIGER

@<TRIPOS>ATOM
      1 C          -8.4247  -19.1253   20.2879 C.ar    1  UNL1        0.1483
      2 C          -7.5698  -20.3405   20.0819 C.ar    1  UNL1        0.0374
      3 C          -6.2855  -20.4916   20.8420 C.ar    1  UNL1        0.0023
      4 C          -5.8561  -19.4276   21.8081 C.ar    1  UNL1        0.0211
      5 C          -6.7110  -18.2124   22.0142 C.ar    1  UNL1        0.1382
      6 C          -7.9953  -18.0612   21.2541 C.ar    1  UNL1        0.0740
      7 O          -6.2816  -17.1483   22.9803 O.3     1  UNL1       -0.4716
      8 C          -7.2625  -16.1090   23.4362 C.3     1  UNL1        0.2525
      9 O          -9.7090  -18.9741   19.5278 O.3     1  UNL1       -0.4533
     10 C         -12.6594  -18.5184   24.0374 C.ar    1  UNL1        0.1402
     11 C         -11.6206  -19.4934   23.5683 C.ar    1  UNL1        0.0371
     12 C         -10.9834  -19.3203   22.2215 C.ar    1  UNL1        0.0077
     13 C         -11.3850  -18.1722   21.3437 C.ar    1  UNL1        0.0524
     14 C         -10.7478  -17.9991   19.9969 C.ar    1  UNL1        0.1482
     15 C         -11.1494  -16.8510   19.1191 C.ar    1  UNL1        0.0581
     16 C         -12.1883  -15.8759   19.5882 C.ar    1  UNL1        0.1020
     17 N         -12.8255  -16.0490   20.9351 N.ar    1  UNL1       -0.2435
     18 C         -12.4239  -17.1972   21.8128 C.ar    1  UNL1        0.0873
     19 C         -13.0611  -17.3703   23.1597 C.ar    1  UNL1        0.0561
     20 C         -14.7711  -18.4713   25.5503 C.3     1  UNL1        0.2525
     21 O         -13.2967  -18.6915   25.3843 O.3     1  UNL1       -0.4714
     22 C          -4.5718  -19.5788   22.5683 C.3     1  UNL1        0.1146
     23 C          -3.2608  -19.3351   21.8816 C.2     1  UNL1        0.2307
     24 O          -2.2116  -20.4070   21.8662 O.2     1  UNL1       -0.2744
     25 N          -2.9988  -18.0195   21.2103 N.am    1  UNL1       -0.2815
     26 H          -3.6875  -17.3160   21.2204 H       1  UNL1        0.1549
     27 C          -1.6877  -17.7758   20.5236 C.ar    1  UNL1        0.0847
     28 C          -0.3492  -17.6674   21.1918 C.ar    1  UNL1        0.1110
     29 N           0.6809  -17.4223   20.1293 N.ar    1  UNL1       -0.2464
     30 C           2.1542  -17.2504   20.3525 C.3     1  UNL1        0.1538
     31 N          -0.0211  -17.3792   18.8043 N.ar    1  UNL1       -0.1723
     32 C          -1.4849  -17.5977   19.0480 C.ar    1  UNL1        0.0938
     33 C          -2.5577  -17.6321   18.0002 C.3     1  UNL1        0.0553
@<TRIPOS>BOND
     1    20    21    1
     2    21    10    1
     3    10    11   ar
     4    11    12   ar
     5    12    13   ar
     6    13    14   ar
     7    14     9    1
     8     9     1    1
     9     1     2   ar
    10     2     3   ar
    11     3     4   ar
    12     4    22    1
    13    22    23    1
    14    23    24    2
    15    23    25   am
    16    25    27    1
    17    27    28   ar
    18    28    29   ar
    19    29    30    1
    20    29    31   ar
    21    31    32   ar
    22    32    33    1
    23     4     5   ar
    24     5     7    1
    25     7     8    1
    26     5     6   ar
    27    14    15   ar
    28    15    16   ar
    29    16    17   ar
    30    17    18   ar
    31    18    19   ar
    32    19    10   ar
    33    18    13   ar
    34     6     1   ar
    35    32    27   ar
    36    25    26    1
