@<TRIPOS>MOLECULE
*****
 34 37 0 0 0
SMALL
GASTEIGER

@<TRIPOS>ATOM
      1 C           6.1697   -2.5070   27.5619 C.ar    1  UNL1        0.1665
      2 N           5.3266   -1.2731   27.6908 N.ar    1  UNL1       -0.1866
      3 C           4.9113   -0.7870   29.0477 C.ar    1  UNL1        0.2814
      4 O           4.0681    0.4470   29.1766 O.2     1  UNL1       -0.2651
      5 C           5.3390   -1.5347   30.2756 C.ar    1  UNL1        0.0699
      6 C           4.9236   -1.0486   31.6325 C.ar    1  UNL1        0.0096
      7 C           5.3513   -1.7963   32.8605 C.ar    1  UNL1        0.0777
      8 C           6.1944   -3.0303   32.7315 C.ar    1  UNL1        0.0797
      9 C           6.6098   -3.5164   31.3747 C.ar    1  UNL1        0.2960
     10 C           6.1821   -2.7686   30.1467 C.ar    1  UNL1        0.1059
     11 S           6.5974   -3.2548   28.7899 S.2     1  UNL1       -0.0466
     12 N           7.4159   -3.9655   23.4912 N.3     1  UNL1       -0.2698
     13 C           7.3385   -4.9260   24.6409 C.3     1  UNL1        0.0939
     14 C           6.9231   -4.4398   25.9977 C.3     1  UNL1        0.1100
     15 N           6.5851   -2.9932   26.2050 N.pl3   1  UNL1       -0.2852
     16 C           6.6626   -2.0327   25.0554 C.3     1  UNL1        0.1100
     17 C           7.0780   -2.5189   23.6985 C.3     1  UNL1        0.0939
     18 C           7.8313   -4.4517   22.1344 C.3     1  UNL1        0.0722
     19 N           6.1523   -1.4394   17.2246 N.2     1  UNL1       -0.0917
     20 C           6.5721   -2.1925   18.4520 C.2     1  UNL1        0.0748
     21 C           5.5560   -2.9591   19.2456 C.3     1  UNL1        0.0447
     22 C           5.9757   -3.7122   20.4732 C.3     1  UNL1        0.0074
     23 C           7.4116   -3.6987   20.9070 C.3     1  UNL1        0.0167
     24 C           8.4277   -2.9320   20.1133 C.3     1  UNL1        0.0074
     25 C           8.0079   -2.1789   18.8859 C.3     1  UNL1        0.0447
     26 C           3.7575   -0.4387   17.3400 C.3     1  UNL1        0.2885
     27 O           4.7165   -1.4530   16.7908 O.2     1  UNL1       -0.3737
     28 C           4.9359   -1.3102   34.2173 C.3     1  UNL1        0.4188
     29 F           4.5206   -0.8240   35.5743 F       1  UNL1       -0.1659
     30 F           6.0356   -0.2905   34.1886 F       1  UNL1       -0.1659
     31 F           3.8363   -2.3299   34.2460 F       1  UNL1       -0.1659
     32 N           7.4529   -4.7503   31.2458 N.pl3   1  UNL1        0.0814
     33 O           8.9488   -4.6395   31.2413 O.2     1  UNL1        0.0415
     34 O           6.8001   -6.0951   31.1213 O.co2   1  UNL1       -0.5760
@<TRIPOS>UNITY_ATOM_ATTR
32 1
charge 1
34 1
charge -1
@<TRIPOS>BOND
     1    26    27    1
     2    27    19    1
     3    19    20    2
     4    20    21    1
     5    21    22    1
     6    22    23    1
     7    23    18    1
     8    18    12    1
     9    12    13    1
    10    13    14    1
    11    14    15    1
    12    15     1    1
    13     1     2   ar
    14     2     3   ar
    15     3     4    2
    16     3     5   ar
    17     5     6   ar
    18     6     7   ar
    19     7    28    1
    20    28    29    1
    21    28    30    1
    22    28    31    1
    23     7     8   ar
    24     8     9   ar
    25     9    32    1
    26    32    33    2
    27    32    34    1
    28     9    10   ar
    29    10    11   ar
    30    15    16    1
    31    16    17    1
    32    23    24    1
    33    24    25    1
    34    25    20    1
    35    17    12    1
    36    11     1   ar
    37    10     5   ar
@<TRIPOS>MOLECULE
*****
 34 37 0 0 0
SMALL
GASTEIGER

@<TRIPOS>ATOM
      1 C           2.9190    0.1394   25.0223 C.ar    1  UNL1        0.1665
      2 N           3.9291   -0.9257   25.3311 N.ar    1  UNL1       -0.1866
      3 C           4.4031   -1.8468   24.2463 C.ar    1  UNL1        0.2814
      4 O           5.4132   -2.9119   24.5550 O.2     1  UNL1       -0.2651
      5 C           3.8670   -1.7029   22.8528 C.ar    1  UNL1        0.0699
      6 C           4.3410   -2.6241   21.7680 C.ar    1  UNL1        0.0096
      7 C           3.8049   -2.4803   20.3744 C.ar    1  UNL1        0.0777
      8 C           2.7948   -1.4152   20.0657 C.ar    1  UNL1        0.0797
      9 C           2.3208   -0.4940   21.1505 C.ar    1  UNL1        0.2960
     10 C           2.8569   -0.6379   22.5440 C.ar    1  UNL1        0.1059
     11 S           2.3829    0.2832   23.6288 S.2     1  UNL1       -0.0466
     12 N           1.4969    2.9030   28.2766 N.3     1  UNL1       -0.2698
     13 C           2.8988    3.0168   27.7554 C.3     1  UNL1        0.0939
     14 C           3.3728    2.0956   26.6707 C.3     1  UNL1        0.1100
     15 N           2.4449    1.0606   26.1071 N.pl3   1  UNL1       -0.2852
     16 C           1.0430    0.9467   26.6282 C.3     1  UNL1        0.1100
     17 C           0.5689    1.8679   27.7130 C.3     1  UNL1        0.0939
     18 C           1.0229    3.8242   29.3614 C.3     1  UNL1        0.0722
     19 N           2.0977    2.4906   35.1117 N.2     1  UNL1       -0.0917
     20 C           1.8290    2.8240   33.6741 C.2     1  UNL1        0.0748
     21 C           1.1854    4.1304   33.3148 C.3     1  UNL1        0.0447
     22 C           0.9167    4.4638   31.8772 C.3     1  UNL1        0.0074
     23 C           1.2916    3.4908   30.7989 C.3     1  UNL1        0.0167
     24 C           1.9352    2.1844   31.1582 C.3     1  UNL1        0.0074
     25 C           2.2039    1.8510   32.5958 C.3     1  UNL1        0.0447
     26 C           2.2302    3.2662   37.5877 C.3     1  UNL1        0.2885
     27 O           1.7229    3.4636   36.1900 O.2     1  UNL1       -0.3737
     28 C           4.2789   -3.4014   19.2897 C.3     1  UNL1        0.4188
     29 F           4.7529   -4.3226   18.2048 F       1  UNL1       -0.1659
     30 F           2.9520   -4.1006   19.3035 F       1  UNL1       -0.1659
     31 F           5.6059   -2.7022   19.2758 F       1  UNL1       -0.1659
     32 N           1.3107    0.5710   20.8417 N.pl3   1  UNL1        0.0814
     33 O          -0.1509    0.2344   20.8185 O.2     1  UNL1        0.0415
     34 O           1.7621    1.9727   20.5562 O.co2   1  UNL1       -0.5760
@<TRIPOS>UNITY_ATOM_ATTR
32 1
charge 1
34 1
charge -1
@<TRIPOS>BOND
     1    26    27    1
     2    27    19    1
     3    19    20    2
     4    20    21    1
     5    21    22    1
     6    22    23    1
     7    23    18    1
     8    18    12    1
     9    12    13    1
    10    13    14    1
    11    14    15    1
    12    15     1    1
    13     1     2   ar
    14     2     3   ar
    15     3     4    2
    16     3     5   ar
    17     5     6   ar
    18     6     7   ar
    19     7    28    1
    20    28    29    1
    21    28    30    1
    22    28    31    1
    23     7     8   ar
    24     8     9   ar
    25     9    32    1
    26    32    33    2
    27    32    34    1
    28     9    10   ar
    29    10    11   ar
    30    15    16    1
    31    16    17    1
    32    23    24    1
    33    24    25    1
    34    25    20    1
    35    17    12    1
    36    11     1   ar
    37    10     5   ar
@<TRIPOS>MOLECULE
*****
 34 37 0 0 0
SMALL
GASTEIGER

@<TRIPOS>ATOM
      1 C           3.9046   -0.8771   25.7309 C.ar    1  UNL1        0.1665
      2 N           2.8667    0.2057   25.7424 N.ar    1  UNL1       -0.1866
      3 C           2.1848    0.6044   24.4673 C.ar    1  UNL1        0.2814
      4 O           1.1468    1.6873   24.4788 O.2     1  UNL1       -0.2651
      5 C           2.5408   -0.0796   23.1807 C.ar    1  UNL1        0.0699
      6 C           1.8588    0.3192   21.9056 C.ar    1  UNL1        0.0096
      7 C           2.2148   -0.3648   20.6190 C.ar    1  UNL1        0.0777
      8 C           3.2528   -1.4477   20.6075 C.ar    1  UNL1        0.0797
      9 C           3.9348   -1.8464   21.8826 C.ar    1  UNL1        0.2960
     10 C           3.5787   -1.1624   23.1692 C.ar    1  UNL1        0.1059
     11 S           4.2606   -1.5612   24.4443 S.2     1  UNL1       -0.0466
     12 N           5.9505   -2.0735   29.5563 N.3     1  UNL1       -0.2698
     13 C           4.9953   -0.9170   29.5466 C.3     1  UNL1        0.0939
     14 C           4.3134   -0.5182   28.2715 C.3     1  UNL1        0.1100
     15 N           4.5866   -1.2759   27.0061 N.pl3   1  UNL1       -0.2852
     16 C           5.5417   -2.4324   27.0158 C.3     1  UNL1        0.1100
     17 C           6.2237   -2.8313   28.2910 C.3     1  UNL1        0.0939
     18 C           6.6324   -2.4723   30.8314 C.3     1  UNL1        0.0722
     19 N           4.6222   -0.3891   36.0868 N.2     1  UNL1       -0.0917
     20 C           5.1248   -0.9099   34.7730 C.2     1  UNL1        0.0748
     21 C           6.4487   -0.4481   34.2401 C.3     1  UNL1        0.0447
     22 C           6.9512   -0.9689   32.9262 C.3     1  UNL1        0.0074
     23 C           6.1299   -1.9515   32.1453 C.3     1  UNL1        0.0167
     24 C           4.8059   -2.4133   32.6782 C.3     1  UNL1        0.0074
     25 C           4.3034   -1.8925   33.9921 C.3     1  UNL1        0.0447
     26 C           4.7675    1.6254   37.7211 C.3     1  UNL1        0.2885
     27 O           5.4436    0.5935   36.8677 O.2     1  UNL1       -0.3737
     28 C           1.5329    0.0340   19.3439 C.3     1  UNL1        0.4188
     29 F           0.8509    0.4328   18.0687 F       1  UNL1       -0.1659
     30 F           0.2184    0.0891   20.0641 F       1  UNL1       -0.1659
     31 F           2.8475   -0.0211   18.6236 F       1  UNL1       -0.1659
     32 N           4.9727   -2.9292   21.8711 N.pl3   1  UNL1        0.0814
     33 O           6.4226   -2.5768   21.7170 O.2     1  UNL1        0.0415
     34 O           4.5608   -4.3645   22.0138 O.co2   1  UNL1       -0.5760
@<TRIPOS>UNITY_ATOM_ATTR
32 1
charge 1
34 1
charge -1
@<TRIPOS>BOND
     1    26    27    1
     2    27    19    1
     3    19    20    2
     4    20    21    1
     5    21    22    1
     6    22    23    1
     7    23    18    1
     8    18    12    1
     9    12    13    1
    10    13    14    1
    11    14    15    1
    12    15     1    1
    13     1     2   ar
    14     2     3   ar
    15     3     4    2
    16     3     5   ar
    17     5     6   ar
    18     6     7   ar
    19     7    28    1
    20    28    29    1
    21    28    30    1
    22    28    31    1
    23     7     8   ar
    24     8     9   ar
    25     9    32    1
    26    32    33    2
    27    32    34    1
    28     9    10   ar
    29    10    11   ar
    30    15    16    1
    31    16    17    1
    32    23    24    1
    33    24    25    1
    34    25    20    1
    35    17    12    1
    36    11     1   ar
    37    10     5   ar
@<TRIPOS>MOLECULE
*****
 34 37 0 0 0
SMALL
GASTEIGER

@<TRIPOS>ATOM
      1 C          -2.8120    3.5773   20.6344 C.ar    1  UNL1        0.1665
      2 N          -4.0112    3.4578   19.7414 N.ar    1  UNL1       -0.1866
      3 C          -5.3842    3.7048   20.2926 C.ar    1  UNL1        0.2814
      4 O          -6.5836    3.5854   19.3996 O.2     1  UNL1       -0.2651
      5 C          -5.5580    4.0714   21.7367 C.ar    1  UNL1        0.0699
      6 C          -6.9311    4.3184   22.2878 C.ar    1  UNL1        0.0096
      7 C          -7.1048    4.6849   23.7319 C.ar    1  UNL1        0.0777
      8 C          -5.9055    4.8044   24.6249 C.ar    1  UNL1        0.0797
      9 C          -4.5325    4.5574   24.0738 C.ar    1  UNL1        0.2960
     10 C          -4.3587    4.1908   22.6297 C.ar    1  UNL1        0.1059
     11 S          -2.9857    3.9438   22.0785 S.2     1  UNL1       -0.0466
     12 N           1.3072    2.8362   18.9810 N.3     1  UNL1       -0.2698
     13 C           0.2678    3.5066   18.1324 C.3     1  UNL1        0.0939
     14 C          -1.1052    3.7537   18.6835 C.3     1  UNL1        0.1100
     15 N          -1.4389    3.3302   20.0833 N.pl3   1  UNL1       -0.2852
     16 C          -0.3996    2.6598   20.9319 C.3     1  UNL1        0.1100
     17 C           0.9735    2.4127   20.3808 C.3     1  UNL1        0.0939
     18 C           2.6802    2.5891   18.4299 C.3     1  UNL1        0.0722
     19 N           5.4209   -2.6514   19.4420 N.2     1  UNL1       -0.0917
     20 C           4.7357   -1.3413   19.1890 C.2     1  UNL1        0.0748
     21 C           3.7836   -1.2029   18.0383 C.3     1  UNL1        0.0447
     22 C           3.0984    0.1073   17.7852 C.3     1  UNL1        0.0074
     23 C           3.3654    1.2790   18.6829 C.3     1  UNL1        0.0167
     24 C           4.3176    1.1405   19.8337 C.3     1  UNL1        0.0074
     25 C           5.0028   -0.1696   20.0867 C.3     1  UNL1        0.0447
     26 C           4.2732   -4.9428   19.0144 C.3     1  UNL1        0.2885
     27 O           5.1539   -3.8231   18.5443 O.2     1  UNL1       -0.3737
     28 C          -8.4778    4.9320   24.2831 C.3     1  UNL1        0.4188
     29 F          -9.8509    5.1790   24.8342 F       1  UNL1       -0.1659
     30 F          -8.9295    3.6033   23.7535 F       1  UNL1       -0.1659
     31 F          -8.0262    6.2607   24.8126 F       1  UNL1       -0.1659
     32 N          -3.3332    4.6768   24.9668 N.pl3   1  UNL1        0.0814
     33 O          -2.6201    5.9905   25.0931 O.2     1  UNL1        0.0415
     34 O          -2.8470    3.4828   25.7334 O.co2   1  UNL1       -0.5760
@<TRIPOS>UNITY_ATOM_ATTR
32 1
charge 1
34 1
charge -1
@<TRIPOS>BOND
     1    26    27    1
     2    27    19    1
     3    19    20    2
     4    20    21    1
     5    21    22    1
     6    22    23    1
     7    23    18    1
     8    18    12    1
     9    12    13    1
    10    13    14    1
    11    14    15    1
    12    15     1    1
    13     1     2   ar
    14     2     3   ar
    15     3     4    2
    16     3     5   ar
    17     5     6   ar
    18     6     7   ar
    19     7    28    1
    20    28    29    1
    21    28    30    1
    22    28    31    1
    23     7     8   ar
    24     8     9   ar
    25     9    32    1
    26    32    33    2
    27    32    34    1
    28     9    10   ar
    29    10    11   ar
    30    15    16    1
    31    16    17    1
    32    23    24    1
    33    24    25    1
    34    25    20    1
    35    17    12    1
    36    11     1   ar
    37    10     5   ar
@<TRIPOS>MOLECULE
*****
 34 37 0 0 0
SMALL
GASTEIGER

@<TRIPOS>ATOM
      1 C           7.1608   -3.9385   27.6534 C.ar    1  UNL1        0.1665
      2 N           7.3096   -5.0185   28.6836 N.ar    1  UNL1       -0.1866
      3 C           6.9146   -4.7571   30.1068 C.ar    1  UNL1        0.2814
      4 O           7.0635   -5.8372   31.1370 O.2     1  UNL1       -0.2651
      5 C           6.3708   -3.4155   30.4998 C.ar    1  UNL1        0.0699
      6 C           5.9758   -3.1540   31.9231 C.ar    1  UNL1        0.0096
      7 C           5.4320   -1.8125   32.3162 C.ar    1  UNL1        0.0777
      8 C           5.2832   -0.7324   31.2859 C.ar    1  UNL1        0.0797
      9 C           5.6782   -0.9939   29.8627 C.ar    1  UNL1        0.2960
     10 C           6.2220   -2.3354   29.4697 C.ar    1  UNL1        0.1059
     11 S           6.6170   -2.5969   28.0465 S.2     1  UNL1       -0.0466
     12 N           8.3458   -4.7229   23.3836 N.3     1  UNL1       -0.2698
     13 C           7.7752   -5.8303   24.2192 C.3     1  UNL1        0.0939
     14 C           7.3802   -5.5688   25.6424 C.3     1  UNL1        0.1100
     15 N           7.5558   -4.1999   26.2301 N.pl3   1  UNL1       -0.2852
     16 C           8.1264   -3.0926   25.3946 C.3     1  UNL1        0.1100
     17 C           8.5214   -3.3540   23.9713 C.3     1  UNL1        0.0939
     18 C           8.7408   -4.9844   21.9604 C.3     1  UNL1        0.0722
     19 N           6.5349   -1.5575   17.5570 N.2     1  UNL1       -0.0917
     20 C           7.0864   -2.4142   18.6578 C.2     1  UNL1        0.0748
     21 C           6.1674   -3.2846   19.4627 C.3     1  UNL1        0.0447
     22 C           6.7189   -4.1414   20.5636 C.3     1  UNL1        0.0074
     23 C           8.1893   -4.1277   20.8596 C.3     1  UNL1        0.0167
     24 C           9.1083   -3.2572   20.0546 C.3     1  UNL1        0.0074
     25 C           8.5568   -2.4005   18.9538 C.3     1  UNL1        0.0447
     26 C           4.2019   -0.4221   17.6919 C.3     1  UNL1        0.2885
     27 O           5.0644   -1.5713   17.2610 O.2     1  UNL1       -0.3737
     28 C           5.0370   -1.5510   33.7394 C.3     1  UNL1        0.4188
     29 F           4.6419   -1.2896   35.1627 F       1  UNL1       -0.1659
     30 F           4.2159   -2.8063   33.7421 F       1  UNL1       -0.1659
     31 F           5.8580   -0.2957   33.7366 F       1  UNL1       -0.1659
     32 N           5.5293    0.0862   28.8326 N.pl3   1  UNL1        0.0814
     33 O           6.6607    1.0364   28.5733 O.2     1  UNL1        0.0415
     34 O           4.2492    0.2161   28.0616 O.co2   1  UNL1       -0.5760
@<TRIPOS>UNITY_ATOM_ATTR
32 1
charge 1
34 1
charge -1
@<TRIPOS>BOND
     1    26    27    1
     2    27    19    1
     3    19    20    2
     4    20    21    1
     5    21    22    1
     6    22    23    1
     7    23    18    1
     8    18    12    1
     9    12    13    1
    10    13    14    1
    11    14    15    1
    12    15     1    1
    13     1     2   ar
    14     2     3   ar
    15     3     4    2
    16     3     5   ar
    17     5     6   ar
    18     6     7   ar
    19     7    28    1
    20    28    29    1
    21    28    30    1
    22    28    31    1
    23     7     8   ar
    24     8     9   ar
    25     9    32    1
    26    32    33    2
    27    32    34    1
    28     9    10   ar
    29    10    11   ar
    30    15    16    1
    31    16    17    1
    32    23    24    1
    33    24    25    1
    34    25    20    1
    35    17    12    1
    36    11     1   ar
    37    10     5   ar
@<TRIPOS>MOLECULE
*****
 34 37 0 0 0
SMALL
GASTEIGER

@<TRIPOS>ATOM
      1 C           6.5475   -2.4216   31.5224 C.ar    1  UNL1        0.1665
      2 N           6.6328   -3.7918   32.1265 N.ar    1  UNL1       -0.1866
      3 C           6.8459   -4.9876   31.2464 C.ar    1  UNL1        0.2814
      4 O           6.9312   -6.3579   31.8506 O.2     1  UNL1       -0.2651
      5 C           6.9738   -4.8131   29.7621 C.ar    1  UNL1        0.0699
      6 C           7.1870   -6.0090   28.8820 C.ar    1  UNL1        0.0096
      7 C           7.3150   -5.8345   27.3977 C.ar    1  UNL1        0.0777
      8 C           7.2297   -4.4641   26.7935 C.ar    1  UNL1        0.0797
      9 C           7.0166   -3.2684   27.6736 C.ar    1  UNL1        0.2960
     10 C           6.8886   -3.4428   29.1579 C.ar    1  UNL1        0.1059
     11 S           6.6755   -2.2471   30.0380 S.2     1  UNL1       -0.0466
     12 N           5.9080    1.1659   34.1627 N.3     1  UNL1       -0.2698
     13 C           4.8469    0.7555   33.1850 C.3     1  UNL1        0.0939
     14 C           5.0601   -0.4403   32.3049 C.3     1  UNL1        0.1100
     15 N           6.3344   -1.2257   32.4025 N.pl3   1  UNL1       -0.2852
     16 C           7.3954   -0.8153   33.3801 C.3     1  UNL1        0.1100
     17 C           7.1822    0.3805   34.2602 C.3     1  UNL1        0.0939
     18 C           5.6948    2.3617   35.0427 C.3     1  UNL1        0.0722
     19 N           1.1389    2.4396   38.9462 N.2     1  UNL1       -0.0917
     20 C           2.2778    2.4201   37.9704 C.2     1  UNL1        0.0748
     21 C           3.3915    1.4293   38.1372 C.3     1  UNL1        0.0447
     22 C           4.5305    1.4098   37.1613 C.3     1  UNL1        0.0074
     23 C           4.5558    2.3812   36.0186 C.3     1  UNL1        0.0167
     24 C           3.4421    3.3721   35.8518 C.3     1  UNL1        0.0074
     25 C           2.3031    3.3916   36.8277 C.3     1  UNL1        0.0447
     26 C           0.9507    0.0009   39.8225 C.3     1  UNL1        0.2885
     27 O           1.1136    1.4681   40.0889 O.2     1  UNL1       -0.3737
     28 C           7.5281   -7.0302   26.5175 C.3     1  UNL1        0.4188
     29 F           7.7413   -8.2261   25.6374 F       1  UNL1       -0.1659
     30 F           7.8790   -7.8536   27.7212 F       1  UNL1       -0.1659
     31 F           7.1772   -6.2069   25.3139 F       1  UNL1       -0.1659
     32 N           6.9313   -1.8981   27.0694 N.pl3   1  UNL1        0.0814
     33 O           5.6006   -1.3411   26.6583 O.2     1  UNL1        0.0415
     34 O           8.1768   -1.0848   26.8763 O.co2   1  UNL1       -0.5760
@<TRIPOS>UNITY_ATOM_ATTR
32 1
charge 1
34 1
charge -1
@<TRIPOS>BOND
     1    26    27    1
     2    27    19    1
     3    19    20    2
     4    20    21    1
     5    21    22    1
     6    22    23    1
     7    23    18    1
     8    18    12    1
     9    12    13    1
    10    13    14    1
    11    14    15    1
    12    15     1    1
    13     1     2   ar
    14     2     3   ar
    15     3     4    2
    16     3     5   ar
    17     5     6   ar
    18     6     7   ar
    19     7    28    1
    20    28    29    1
    21    28    30    1
    22    28    31    1
    23     7     8   ar
    24     8     9   ar
    25     9    32    1
    26    32    33    2
    27    32    34    1
    28     9    10   ar
    29    10    11   ar
    30    15    16    1
    31    16    17    1
    32    23    24    1
    33    24    25    1
    34    25    20    1
    35    17    12    1
    36    11     1   ar
    37    10     5   ar
@<TRIPOS>MOLECULE
*****
 34 37 0 0 0
SMALL
GASTEIGER

@<TRIPOS>ATOM
      1 C          -2.0943    3.4797   22.2784 C.ar    1  UNL1        0.1665
      2 N          -2.1675    3.4875   23.7766 N.ar    1  UNL1       -0.1866
      3 C          -3.4699    3.7769   24.4622 C.ar    1  UNL1        0.2814
      4 O          -3.5432    3.7848   25.9605 O.2     1  UNL1       -0.2651
      5 C          -4.6989    4.0585   23.6497 C.ar    1  UNL1        0.0699
      6 C          -6.0013    4.3480   24.3354 C.ar    1  UNL1        0.0096
      7 C          -7.2303    4.6296   23.5229 C.ar    1  UNL1        0.0777
      8 C          -7.1570    4.6217   22.0247 C.ar    1  UNL1        0.0797
      9 C          -5.8546    4.3323   21.3390 C.ar    1  UNL1        0.2960
     10 C          -4.6256    4.0507   22.1516 C.ar    1  UNL1        0.1059
     11 S          -3.3233    3.7613   21.4659 S.2     1  UNL1       -0.0466
     12 N           1.8128    2.6113   20.2213 N.3     1  UNL1       -0.2698
     13 C           1.7926    2.9416   21.6845 C.3     1  UNL1        0.0939
     14 C           0.4903    3.2310   22.3701 C.3     1  UNL1        0.1100
     15 N          -0.7919    3.1902   21.5927 N.pl3   1  UNL1       -0.2852
     16 C          -0.7718    2.8600   20.1297 C.3     1  UNL1        0.1100
     17 C           0.5306    2.5705   19.4440 C.3     1  UNL1        0.0939
     18 C           3.1151    2.3219   19.5357 C.3     1  UNL1        0.0722
     19 N           4.7230   -3.3501   18.4213 N.2     1  UNL1       -0.0917
     20 C           4.3211   -1.9321   18.6999 C.2     1  UNL1        0.0748
     21 C           3.8860   -1.5331   20.0788 C.3     1  UNL1        0.0447
     22 C           3.4840   -0.1150   20.3574 C.3     1  UNL1        0.0074
     23 C           3.5171    0.9039   19.2571 C.3     1  UNL1        0.0167
     24 C           3.9522    0.5048   17.8782 C.3     1  UNL1        0.0074
     25 C           4.3542   -0.9132   17.5996 C.3     1  UNL1        0.0447
     26 C           3.5075   -5.2811   19.6638 C.3     1  UNL1        0.2885
     27 O           4.6899   -4.3691   19.5216 O.2     1  UNL1       -0.3737
     28 C          -8.5326    4.9190   24.2086 C.3     1  UNL1        0.4188
     29 F          -9.8350    5.2085   24.8942 F       1  UNL1       -0.1659
     30 F          -8.0156    6.2649   24.6224 F       1  UNL1       -0.1659
     31 F          -9.0496    3.5731   23.7947 F       1  UNL1       -0.1659
     32 N          -5.7814    4.3244   19.8409 N.pl3   1  UNL1        0.0814
     33 O          -6.0560    3.0593   19.0831 O.2     1  UNL1        0.0415
     34 O          -5.4334    5.5817   19.1004 O.co2   1  UNL1       -0.5760
@<TRIPOS>UNITY_ATOM_ATTR
32 1
charge 1
34 1
charge -1
@<TRIPOS>BOND
     1    26    27    1
     2    27    19    1
     3    19    20    2
     4    20    21    1
     5    21    22    1
     6    22    23    1
     7    23    18    1
     8    18    12    1
     9    12    13    1
    10    13    14    1
    11    14    15    1
    12    15     1    1
    13     1     2   ar
    14     2     3   ar
    15     3     4    2
    16     3     5   ar
    17     5     6   ar
    18     6     7   ar
    19     7    28    1
    20    28    29    1
    21    28    30    1
    22    28    31    1
    23     7     8   ar
    24     8     9   ar
    25     9    32    1
    26    32    33    2
    27    32    34    1
    28     9    10   ar
    29    10    11   ar
    30    15    16    1
    31    16    17    1
    32    23    24    1
    33    24    25    1
    34    25    20    1
    35    17    12    1
    36    11     1   ar
    37    10     5   ar
@<TRIPOS>MOLECULE
*****
 34 37 0 0 0
SMALL
GASTEIGER

@<TRIPOS>ATOM
      1 C           1.2477    2.6556   31.1713 C.ar    1  UNL1        0.1665
      2 N           0.8318    3.6805   32.1844 N.ar    1  UNL1       -0.1866
      3 C           1.3788    3.6207   33.5798 C.ar    1  UNL1        0.2814
      4 O           0.9629    4.6456   34.5931 O.2     1  UNL1       -0.2651
      5 C           2.3418    2.5360   33.9620 C.ar    1  UNL1        0.0699
      6 C           2.8888    2.4762   35.3575 C.ar    1  UNL1        0.0096
      7 C           3.8518    1.3915   35.7397 C.ar    1  UNL1        0.0777
      8 C           4.2678    0.3666   34.7264 C.ar    1  UNL1        0.0797
      9 C           3.7208    0.4264   33.3310 C.ar    1  UNL1        0.2960
     10 C           2.7578    1.5111   32.9488 C.ar    1  UNL1        0.1059
     11 S           2.2107    1.5710   31.5535 S.2     1  UNL1       -0.0466
     12 N          -0.3933    2.8350   26.9849 N.3     1  UNL1       -0.2698
     13 C          -0.4444    1.5494   27.7561 C.3     1  UNL1        0.0939
     14 C           0.1026    1.4896   29.1515 C.3     1  UNL1        0.1100
     15 N           0.7007    2.7154   29.7758 N.pl3   1  UNL1       -0.2852
     16 C           0.7518    4.0010   29.0047 C.3     1  UNL1        0.1100
     17 C           0.2047    4.0608   27.6092 C.3     1  UNL1        0.0939
     18 C          -0.9404    2.8947   25.5895 C.3     1  UNL1        0.0722
     19 N          -6.6325    4.5527   24.6673 N.2     1  UNL1       -0.0917
     20 C          -5.2095    4.1382   24.8979 C.2     1  UNL1        0.0748
     21 C          -4.3628    3.6892   23.7440 C.3     1  UNL1        0.0447
     22 C          -2.9397    3.2746   23.9745 C.3     1  UNL1        0.0074
     23 C          -2.3634    3.3092   25.3590 C.3     1  UNL1        0.0167
     24 C          -3.2101    3.7583   26.5129 C.3     1  UNL1        0.0074
     25 C          -4.6331    4.1728   26.2823 C.3     1  UNL1        0.0447
     26 C          -7.3672    5.7906   22.5044 C.3     1  UNL1        0.2885
     27 O          -7.2088    4.5181   23.2829 O.2     1  UNL1       -0.3737
     28 C           4.3989    1.3317   37.1351 C.3     1  UNL1        0.4188
     29 F           4.9459    1.2719   38.5305 F       1  UNL1       -0.1659
     30 F           4.1620    2.8046   37.2911 F       1  UNL1       -0.1659
     31 F           4.6357   -0.1412   36.9790 F       1  UNL1       -0.1659
     32 N           4.1367   -0.5984   32.3179 N.pl3   1  UNL1        0.0814
     33 O           3.4307   -1.9205   32.2549 O.2     1  UNL1        0.0415
     34 O           5.2587   -0.3014   31.3676 O.co2   1  UNL1       -0.5760
@<TRIPOS>UNITY_ATOM_ATTR
32 1
charge 1
34 1
charge -1
@<TRIPOS>BOND
     1    26    27    1
     2    27    19    1
     3    19    20    2
     4    20    21    1
     5    21    22    1
     6    22    23    1
     7    23    18    1
     8    18    12    1
     9    12    13    1
    10    13    14    1
    11    14    15    1
    12    15     1    1
    13     1     2   ar
    14     2     3   ar
    15     3     4    2
    16     3     5   ar
    17     5     6   ar
    18     6     7   ar
    19     7    28    1
    20    28    29    1
    21    28    30    1
    22    28    31    1
    23     7     8   ar
    24     8     9   ar
    25     9    32    1
    26    32    33    2
    27    32    34    1
    28     9    10   ar
    29    10    11   ar
    30    15    16    1
    31    16    17    1
    32    23    24    1
    33    24    25    1
    34    25    20    1
    35    17    12    1
    36    11     1   ar
    37    10     5   ar
@<TRIPOS>MOLECULE
*****
 34 37 0 0 0
SMALL
GASTEIGER

@<TRIPOS>ATOM
      1 C           4.3795   -1.4126   26.6671 C.ar    1  UNL1        0.1665
      2 N           5.6363   -2.0119   27.2250 N.ar    1  UNL1       -0.1866
      3 C           5.8845   -1.9915   28.7041 C.ar    1  UNL1        0.2814
      4 O           7.1413   -2.5908   29.2621 O.2     1  UNL1       -0.2651
      5 C           4.8759   -1.3717   29.6254 C.ar    1  UNL1        0.0699
      6 C           5.1242   -1.3512   31.1046 C.ar    1  UNL1        0.0096
      7 C           4.1156   -0.7315   32.0258 C.ar    1  UNL1        0.0777
      8 C           2.8588   -0.1321   31.4678 C.ar    1  UNL1        0.0797
      9 C           2.6106   -0.1526   29.9887 C.ar    1  UNL1        0.2960
     10 C           3.6192   -0.7724   29.0674 C.ar    1  UNL1        0.1059
     11 S           3.3710   -0.7928   27.5883 S.2     1  UNL1       -0.0466
     12 N           3.6348   -1.4740   22.2295 N.3     1  UNL1       -0.2698
     13 C           4.6058   -2.4405   22.8405 C.3     1  UNL1        0.0939
     14 C           4.8540   -2.4200   24.3197 C.3     1  UNL1        0.1100
     15 N           4.1313   -1.4331   25.1878 N.pl3   1  UNL1       -0.2852
     16 C           3.1604   -0.4666   24.5769 C.3     1  UNL1        0.1100
     17 C           2.9122   -0.4871   23.0976 C.3     1  UNL1        0.0939
     18 C           3.3866   -1.4945   20.7503 C.3     1  UNL1        0.0722
     19 N           0.8948    3.2548   18.0606 N.2     1  UNL1       -0.0917
     20 C           1.5177    2.0675   18.7330 C.2     1  UNL1        0.0748
     21 C           0.6582    0.9227   19.1809 C.3     1  UNL1        0.0447
     22 C           1.2812   -0.2646   19.8534 C.3     1  UNL1        0.0074
     23 C           2.7637   -0.3072   20.0779 C.3     1  UNL1        0.0167
     24 C           3.6232    0.8377   19.6299 C.3     1  UNL1        0.0074
     25 C           3.0002    2.0250   18.9575 C.3     1  UNL1        0.0447
     26 C          -1.1502    4.0817   16.6878 C.3     1  UNL1        0.2885
     27 O          -0.5877    3.2973   17.8361 O.2     1  UNL1       -0.3737
     28 C           4.3638   -0.7110   33.5050 C.3     1  UNL1        0.4188
     29 F           4.6120   -0.6906   34.9842 F       1  UNL1       -0.1659
     30 F           5.4059   -1.7779   33.3449 F       1  UNL1       -0.1659
     31 F           3.3217    0.3560   33.6651 F       1  UNL1       -0.1659
     32 N           1.3538    0.4467   29.4307 N.pl3   1  UNL1        0.0814
     33 O           0.0967   -0.3693   29.3695 O.2     1  UNL1        0.0415
     34 O           1.3541    1.8621   28.9340 O.co2   1  UNL1       -0.5760
@<TRIPOS>UNITY_ATOM_ATTR
32 1
charge 1
34 1
charge -1
@<TRIPOS>BOND
     1    26    27    1
     2    27    19    1
     3    19    20    2
     4    20    21    1
     5    21    22    1
     6    22    23    1
     7    23    18    1
     8    18    12    1
     9    12    13    1
    10    13    14    1
    11    14    15    1
    12    15     1    1
    13     1     2   ar
    14     2     3   ar
    15     3     4    2
    16     3     5   ar
    17     5     6   ar
    18     6     7   ar
    19     7    28    1
    20    28    29    1
    21    28    30    1
    22    28    31    1
    23     7     8   ar
    24     8     9   ar
    25     9    32    1
    26    32    33    2
    27    32    34    1
    28     9    10   ar
    29    10    11   ar
    30    15    16    1
    31    16    17    1
    32    23    24    1
    33    24    25    1
    34    25    20    1
    35    17    12    1
    36    11     1   ar
    37    10     5   ar
