@<TRIPOS>MOLECULE
*****
 25 28 0 0 0
SMALL
GASTEIGER

@<TRIPOS>ATOM
      1 C          -9.9359  -18.0657   21.5083 C.ar    1  UNL1        0.2212
      2 N          -8.5130  -18.0329   21.0347 N.ar    1  UNL1       -0.1987
      3 C          -7.4878  -18.9189   21.6782 C.ar    1  UNL1        0.1360
      4 C          -7.8856  -19.8376   22.7953 C.ar    1  UNL1        0.0575
      5 C          -9.3084  -19.8703   23.2689 C.ar    1  UNL1        0.1582
      6 N         -10.3336  -18.9844   22.6254 N.ar    1  UNL1       -0.2096
      7 N          -6.0649  -18.8861   21.2047 N.pl3   1  UNL1       -0.2931
      8 C          -4.8483  -18.7745   22.0750 C.3     1  UNL1        0.0922
      9 C          -3.6403  -18.7787   21.1859 C.3     1  UNL1        0.0219
     10 C          -2.6430  -18.8074   20.0657 C.3     1  UNL1        0.0089
     11 C          -4.1102  -18.8929   19.7659 C.3     1  UNL1        0.0219
     12 C          -5.6087  -18.9593   19.7776 C.3     1  UNL1        0.0922
     13 C          -1.2201  -18.7747   19.5922 C.3     1  UNL1        0.0418
     14 C          -0.2652  -17.7643   20.1555 C.2     1  UNL1        0.0503
     15 O          -0.7187  -16.3543   20.3922 O.co2   1  UNL1       -0.5492
     16 O           1.1432  -18.1640   20.4820 O.co2   1  UNL1       -0.5492
     17 C         -12.5853  -15.9154   22.7210 C.3     1  UNL1        0.0216
     18 C         -12.0586  -16.2891   21.3672 C.3     1  UNL1        0.0773
     19 C         -12.4110  -15.9268   19.9549 C.3     1  UNL1        0.0413
     20 C         -11.3136  -16.8175   19.4525 C.3     1  UNL1        0.0952
     21 N         -10.9611  -17.1798   20.8648 N.pl3   1  UNL1       -0.2797
     22 C          -9.7061  -20.7890   24.3859 C.3     1  UNL1        0.4350
     23 F         -10.1038  -21.7077   25.5030 F       1  UNL1       -0.1644
     24 F          -8.4636  -21.5990   24.1622 F       1  UNL1       -0.1644
     25 F         -10.9487  -19.9791   24.6097 F       1  UNL1       -0.1644
@<TRIPOS>UNITY_ATOM_ATTR
15 1
charge -1
@<TRIPOS>BOND
     1    18    17    1
     2    18    19    1
     3    19    20    1
     4    20    21    1
     5    21     1    1
     6     1     2   ar
     7     2     3   ar
     8     3     7    1
     9     7     8    1
    10     9     8    1
    11     9    10    1
    12    10    13    1
    13    13    14    1
    14    14    15   ar
    15    14    16   ar
    16    10    11    1
    17    11    12    1
    18     3     4   ar
    19     4     5   ar
    20     5    22    1
    21    22    23    1
    22    22    24    1
    23    22    25    1
    24     5     6   ar
    25    21    18    1
    26     6     1   ar
    27    12     7    1
    28    11     9    1
@<TRIPOS>MOLECULE
*****
 25 28 0 0 0
SMALL
GASTEIGER

@<TRIPOS>ATOM
      1 C          -9.5816  -16.9360   23.2715 C.ar    1  UNL1        0.2212
      2 N          -8.2900  -17.4195   22.6817 N.ar    1  UNL1       -0.1987
      3 C          -6.9999  -17.1905   23.4118 C.ar    1  UNL1        0.1360
      4 C          -7.0014  -16.4780   24.7318 C.ar    1  UNL1        0.0575
      5 C          -8.2930  -15.9945   25.3216 C.ar    1  UNL1        0.1582
      6 N          -9.5831  -16.2235   24.5915 N.ar    1  UNL1       -0.2096
      7 N          -5.7082  -17.6740   22.8220 N.pl3   1  UNL1       -0.2931
      8 C          -5.5626  -18.7155   21.7523 C.3     1  UNL1        0.0922
      9 C          -4.0998  -18.8860   21.4675 C.3     1  UNL1        0.0219
     10 C          -2.6019  -18.8366   21.4036 C.3     1  UNL1        0.0089
     11 C          -3.3413  -17.9499   22.3612 C.3     1  UNL1        0.0219
     12 C          -4.3354  -17.2009   23.1982 C.3     1  UNL1        0.0922
     13 C          -1.3103  -19.3201   20.8138 C.3     1  UNL1        0.0418
     14 C          -0.5389  -18.4407   19.8749 C.2     1  UNL1        0.0503
     15 O          -1.1367  -18.0431   18.5579 O.co2   1  UNL1       -0.5492
     16 O           0.8305  -17.9589   20.2530 O.co2   1  UNL1       -0.5492
     17 C         -11.0003  -19.6770   21.3772 C.3     1  UNL1        0.0216
     18 C         -11.4594  -18.3004   21.7567 C.3     1  UNL1        0.0773
     19 C         -12.6964  -17.4889   21.5088 C.3     1  UNL1        0.0413
     20 C         -12.1088  -16.3535   22.2934 C.3     1  UNL1        0.0952
     21 N         -10.8718  -17.1650   22.5414 N.pl3   1  UNL1       -0.2797
     22 C          -8.2945  -15.2821   26.6416 C.3     1  UNL1        0.4350
     23 F          -8.2960  -14.5696   27.9616 F       1  UNL1       -0.1644
     24 F          -9.5142  -14.5143   26.2258 F       1  UNL1       -0.1644
     25 F          -7.0748  -16.0499   27.0574 F       1  UNL1       -0.1644
@<TRIPOS>UNITY_ATOM_ATTR
15 1
charge -1
@<TRIPOS>BOND
     1    18    17    1
     2    18    19    1
     3    19    20    1
     4    20    21    1
     5    21     1    1
     6     1     2   ar
     7     2     3   ar
     8     3     7    1
     9     7     8    1
    10     9     8    1
    11     9    10    1
    12    10    13    1
    13    13    14    1
    14    14    15   ar
    15    14    16   ar
    16    10    11    1
    17    11    12    1
    18     3     4   ar
    19     4     5   ar
    20     5    22    1
    21    22    23    1
    22    22    24    1
    23    22    25    1
    24     5     6   ar
    25    21    18    1
    26     6     1   ar
    27    12     7    1
    28    11     9    1
@<TRIPOS>MOLECULE
*****
 25 28 0 0 0
SMALL
GASTEIGER

@<TRIPOS>ATOM
      1 C           2.7531   -1.2913   20.6686 C.ar    1  UNL1        0.2212
      2 N           3.3162   -1.2795   22.0588 N.ar    1  UNL1       -0.1987
      3 C           4.2444   -2.3716   22.5013 C.ar    1  UNL1        0.1360
      4 C           4.6095   -3.4754   21.5535 C.ar    1  UNL1        0.0575
      5 C           4.0464   -3.4872   20.1633 C.ar    1  UNL1        0.1582
      6 N           3.1182   -2.3951   19.7208 N.ar    1  UNL1       -0.2096
      7 N           4.8075   -2.3598   23.8916 N.pl3   1  UNL1       -0.2931
      8 C           5.9824   -3.1580   24.3737 C.3     1  UNL1        0.0922
      9 C           6.1956   -2.8393   25.8239 C.3     1  UNL1        0.0219
     10 C           6.1616   -2.3315   27.2349 C.3     1  UNL1        0.0089
     11 C           5.1524   -1.8441   26.2380 C.3     1  UNL1        0.0219
     12 C           4.2945   -1.5478   25.0437 C.3     1  UNL1        0.0922
     13 C           6.7247   -2.3197   28.6252 C.3     1  UNL1        0.0418
     14 C           6.5267   -3.5037   29.5246 C.2     1  UNL1        0.0503
     15 O           6.4190   -3.3090   31.0080 O.co2   1  UNL1       -0.5492
     16 O           6.4365   -4.8824   28.9406 O.co2   1  UNL1       -0.5492
     17 C           3.0172    1.5434   18.4306 C.3     1  UNL1        0.0216
     18 C           1.9343    0.9750   19.2990 C.3     1  UNL1        0.0773
     19 C           0.5122    1.3452   19.6001 C.3     1  UNL1        0.0413
     20 C           0.4028    0.1711   20.5271 C.3     1  UNL1        0.0952
     21 N           1.8249   -0.1992   20.2260 N.pl3   1  UNL1       -0.2797
     22 C           4.4115   -4.5910   19.2156 C.3     1  UNL1        0.4350
     23 F           4.7766   -5.6949   18.2678 F       1  UNL1       -0.1644
     24 F           2.9887   -4.6581   18.7454 F       1  UNL1       -0.1644
     25 F           5.8344   -4.5240   19.6857 F       1  UNL1       -0.1644
@<TRIPOS>UNITY_ATOM_ATTR
15 1
charge -1
@<TRIPOS>BOND
     1    18    17    1
     2    18    19    1
     3    19    20    1
     4    20    21    1
     5    21     1    1
     6     1     2   ar
     7     2     3   ar
     8     3     7    1
     9     7     8    1
    10     9     8    1
    11     9    10    1
    12    10    13    1
    13    13    14    1
    14    14    15   ar
    15    14    16   ar
    16    10    11    1
    17    11    12    1
    18     3     4   ar
    19     4     5   ar
    20     5    22    1
    21    22    23    1
    22    22    24    1
    23    22    25    1
    24     5     6   ar
    25    21    18    1
    26     6     1   ar
    27    12     7    1
    28    11     9    1
@<TRIPOS>MOLECULE
*****
 25 28 0 0 0
SMALL
GASTEIGER

@<TRIPOS>ATOM
      1 C           3.1932   -1.8858   20.1862 C.ar    1  UNL1        0.2212
      2 N           3.2713   -1.6830   21.6704 N.ar    1  UNL1       -0.1987
      3 C           2.6267   -0.4830   22.2983 C.ar    1  UNL1        0.1360
      4 C           1.9041    0.5144   21.4420 C.ar    1  UNL1        0.0575
      5 C           1.8261    0.3116   19.9579 C.ar    1  UNL1        0.1582
      6 N           2.4706   -0.8884   19.3300 N.ar    1  UNL1       -0.2096
      7 N           2.7048   -0.2802   23.7825 N.pl3   1  UNL1       -0.2931
      8 C           1.9006    0.7020   24.5817 C.3     1  UNL1        0.0922
      9 C           2.2995    0.5652   26.0212 C.3     1  UNL1        0.0219
     10 C           2.8925    0.2074   27.3518 C.3     1  UNL1        0.0089
     11 C           3.3503   -0.5015   26.1117 C.3     1  UNL1        0.0219
     12 C           3.6007   -1.0239   24.7281 C.3     1  UNL1        0.0922
     13 C           2.9706    0.4102   28.8359 C.3     1  UNL1        0.0418
     14 C           1.9866   -0.2726   29.7390 C.2     1  UNL1        0.0503
     15 O           0.5303   -0.2955   29.3805 O.co2   1  UNL1       -0.5492
     16 O           2.4589   -0.9324   31.0006 O.co2   1  UNL1       -0.5492
     17 C           6.2059   -2.4608   18.2609 C.3     1  UNL1        0.0216
     18 C           5.0857   -3.3240   18.7607 C.3     1  UNL1        0.0773
     19 C           4.7494   -4.7830   18.6701 C.3     1  UNL1        0.0413
     20 C           3.5015   -4.5449   19.4676 C.3     1  UNL1        0.0952
     21 N           3.8378   -3.0859   19.5582 N.pl3   1  UNL1       -0.2797
     22 C           1.1034    1.3090   19.1017 C.3     1  UNL1        0.4350
     23 F           0.3808    2.3063   18.2454 F       1  UNL1       -0.1644
     24 F           2.2674    1.3405   18.1561 F       1  UNL1       -0.1644
     25 F          -0.0605    1.2774   20.0472 F       1  UNL1       -0.1644
@<TRIPOS>UNITY_ATOM_ATTR
15 1
charge -1
@<TRIPOS>BOND
     1    18    17    1
     2    18    19    1
     3    19    20    1
     4    20    21    1
     5    21     1    1
     6     1     2   ar
     7     2     3   ar
     8     3     7    1
     9     7     8    1
    10     9     8    1
    11     9    10    1
    12    10    13    1
    13    13    14    1
    14    14    15   ar
    15    14    16   ar
    16    10    11    1
    17    11    12    1
    18     3     4   ar
    19     4     5   ar
    20     5    22    1
    21    22    23    1
    22    22    24    1
    23    22    25    1
    24     5     6   ar
    25    21    18    1
    26     6     1   ar
    27    12     7    1
    28    11     9    1
@<TRIPOS>MOLECULE
*****
 25 28 0 0 0
SMALL
GASTEIGER

@<TRIPOS>ATOM
      1 C           4.3547   -2.3725   22.5390 C.ar    1  UNL1        0.2212
      2 N           3.4310   -1.2508   22.1668 N.ar    1  UNL1       -0.1987
      3 C           2.8194   -1.2058   20.7979 C.ar    1  UNL1        0.1360
      4 C           3.1315   -2.2826   19.8013 C.ar    1  UNL1        0.0575
      5 C           4.0551   -3.4043   20.1735 C.ar    1  UNL1        0.1582
      6 N           4.6667   -3.4492   21.5424 N.ar    1  UNL1       -0.2096
      7 N           1.8957   -0.0841   20.4256 N.pl3   1  UNL1       -0.2931
      8 C           1.6620    0.4429   19.0408 C.3     1  UNL1        0.0922
      9 C           0.6654    1.5602   19.1321 C.3     1  UNL1        0.0219
     10 C          -0.3256    2.6135   19.5304 C.3     1  UNL1        0.0089
     11 C           0.2832    1.7238   20.5734 C.3     1  UNL1        0.0219
     12 C           1.0436    0.7076   21.3728 C.3     1  UNL1        0.0922
     13 C          -1.2493    3.7352   19.1581 C.3     1  UNL1        0.0418
     14 C          -2.5690    3.8828   19.8556 C.2     1  UNL1        0.0503
     15 O          -3.3517    5.1550   19.7182 O.co2   1  UNL1       -0.5492
     16 O          -3.1061    2.7582   20.6905 O.co2   1  UNL1       -0.5492
     17 C           6.9633   -4.3283   24.1150 C.3     1  UNL1        0.0216
     18 C           6.0469   -3.2277   24.5607 C.3     1  UNL1        0.0773
     19 C           5.8313   -2.4812   25.8439 C.3     1  UNL1        0.0413
     20 C           4.7508   -1.6711   25.1911 C.3     1  UNL1        0.0952
     21 N           4.9663   -2.4175   23.9080 N.pl3   1  UNL1       -0.2797
     22 C           4.3672   -4.4810   19.1769 C.3     1  UNL1        0.4350
     23 F           4.6793   -5.5577   18.1803 F       1  UNL1       -0.1644
     24 F           2.9143   -4.5661   18.8139 F       1  UNL1       -0.1644
     25 F           5.8201   -4.3958   19.5398 F       1  UNL1       -0.1644
@<TRIPOS>UNITY_ATOM_ATTR
15 1
charge -1
@<TRIPOS>BOND
     1    18    17    1
     2    18    19    1
     3    19    20    1
     4    20    21    1
     5    21     1    1
     6     1     2   ar
     7     2     3   ar
     8     3     7    1
     9     7     8    1
    10     9     8    1
    11     9    10    1
    12    10    13    1
    13    13    14    1
    14    14    15   ar
    15    14    16   ar
    16    10    11    1
    17    11    12    1
    18     3     4   ar
    19     4     5   ar
    20     5    22    1
    21    22    23    1
    22    22    24    1
    23    22    25    1
    24     5     6   ar
    25    21    18    1
    26     6     1   ar
    27    12     7    1
    28    11     9    1
@<TRIPOS>MOLECULE
*****
 25 28 0 0 0
SMALL
GASTEIGER

@<TRIPOS>ATOM
      1 C           3.1369    1.9441   35.7078 C.ar    1  UNL1        0.2212
      2 N           4.0502    0.8671   35.2021 N.ar    1  UNL1       -0.1987
      3 C           3.9596    0.4162   33.7743 C.ar    1  UNL1        0.1360
      4 C           2.9558    1.0424   32.8523 C.ar    1  UNL1        0.0575
      5 C           2.0425    2.1194   33.3580 C.ar    1  UNL1        0.1582
      6 N           2.1331    2.5703   34.7857 N.ar    1  UNL1       -0.2096
      7 N           4.8730   -0.6609   33.2686 N.pl3   1  UNL1       -0.2931
      8 C           4.4505   -2.0032   32.7493 C.3     1  UNL1        0.0922
      9 C           5.6855   -2.7567   32.3531 C.3     1  UNL1        0.0219
     10 C           7.0694   -3.2511   32.0523 C.3     1  UNL1        0.0089
     11 C           6.8714   -1.8800   32.6275 C.3     1  UNL1        0.0219
     12 C           6.3692   -0.5848   33.1933 C.3     1  UNL1        0.0922
     13 C           7.9827   -4.3281   31.5466 C.3     1  UNL1        0.0418
     14 C           7.4260   -5.6707   31.1757 C.2     1  UNL1        0.0503
     15 O           7.6943   -6.2444   29.8161 O.co2   1  UNL1       -0.5492
     16 O           6.6007   -6.4396   32.1647 O.co2   1  UNL1       -0.5492
     17 C           1.8505    0.7233   38.8651 C.3     1  UNL1        0.0216
     18 C           2.6946    1.8894   38.4434 C.3     1  UNL1        0.0773
     19 C           3.3554    3.0327   39.1547 C.3     1  UNL1        0.0413
     20 C           3.8883    3.5384   37.8470 C.3     1  UNL1        0.0952
     21 N           3.2275    2.3951   37.1356 N.pl3   1  UNL1       -0.2797
     22 C           1.0386    2.7456   32.4360 C.3     1  UNL1        0.4350
     23 F           0.0348    3.3718   31.5139 F       1  UNL1       -0.1644
     24 F           0.7575    3.8041   33.4609 F       1  UNL1       -0.1644
     25 F           1.3198    1.6872   31.4110 F       1  UNL1       -0.1644
@<TRIPOS>UNITY_ATOM_ATTR
15 1
charge -1
@<TRIPOS>BOND
     1    18    17    1
     2    18    19    1
     3    19    20    1
     4    20    21    1
     5    21     1    1
     6     1     2   ar
     7     2     3   ar
     8     3     7    1
     9     7     8    1
    10     9     8    1
    11     9    10    1
    12    10    13    1
    13    13    14    1
    14    14    15   ar
    15    14    16   ar
    16    10    11    1
    17    11    12    1
    18     3     4   ar
    19     4     5   ar
    20     5    22    1
    21    22    23    1
    22    22    24    1
    23    22    25    1
    24     5     6   ar
    25    21    18    1
    26     6     1   ar
    27    12     7    1
    28    11     9    1
@<TRIPOS>MOLECULE
*****
 25 28 0 0 0
SMALL
GASTEIGER

@<TRIPOS>ATOM
      1 C          -3.1766    3.4558   21.1911 C.ar    1  UNL1        0.2212
      2 N          -2.1465    2.7547   20.3561 N.ar    1  UNL1       -0.1987
      3 C          -0.7843    2.4794   20.9205 C.ar    1  UNL1        0.1360
      4 C          -0.4522    2.9053   22.3199 C.ar    1  UNL1        0.0575
      5 C          -1.4823    3.6064   23.1549 C.ar    1  UNL1        0.1582
      6 N          -2.8445    3.8816   22.5905 N.ar    1  UNL1       -0.2096
      7 N           0.2459    1.7783   20.0855 N.pl3   1  UNL1       -0.2931
      8 C           0.5225    0.3040   20.0807 C.3     1  UNL1        0.0922
      9 C           1.6278    0.0430   19.1009 C.3     1  UNL1        0.0219
     10 C           2.7233    0.0923   18.0773 C.3     1  UNL1        0.0089
     11 C           2.0344    1.3559   18.5001 C.3     1  UNL1        0.0219
     12 C           1.1803    2.4284   19.1086 C.3     1  UNL1        0.0922
     13 C           3.7534   -0.6087   17.2423 C.3     1  UNL1        0.0418
     14 C           4.5294   -1.7570   17.8163 C.2     1  UNL1        0.0503
     15 O           3.8793   -2.6844   18.7997 O.co2   1  UNL1       -0.5492
     16 O           5.9555   -1.9777   17.4069 O.co2   1  UNL1       -0.5492
     17 C          -4.5482    3.7830   17.8556 C.3     1  UNL1        0.0216
     18 C          -5.1070    3.8666   19.2451 C.3     1  UNL1        0.0773
     19 C          -6.4654    4.1203   19.8286 C.3     1  UNL1        0.0413
     20 C          -5.8973    3.9848   21.2102 C.3     1  UNL1        0.0952
     21 N          -4.5389    3.7310   20.6268 N.pl3   1  UNL1       -0.2797
     22 C          -1.1502    4.0322   24.5543 C.3     1  UNL1        0.4350
     23 F          -0.8181    4.4581   25.9538 F       1  UNL1       -0.1644
     24 F          -0.3008    5.1444   24.0143 F       1  UNL1       -0.1644
     25 F          -1.9996    2.9200   25.0944 F       1  UNL1       -0.1644
@<TRIPOS>UNITY_ATOM_ATTR
15 1
charge -1
@<TRIPOS>BOND
     1    18    17    1
     2    18    19    1
     3    19    20    1
     4    20    21    1
     5    21     1    1
     6     1     2   ar
     7     2     3   ar
     8     3     7    1
     9     7     8    1
    10     9     8    1
    11     9    10    1
    12    10    13    1
    13    13    14    1
    14    14    15   ar
    15    14    16   ar
    16    10    11    1
    17    11    12    1
    18     3     4   ar
    19     4     5   ar
    20     5    22    1
    21    22    23    1
    22    22    24    1
    23    22    25    1
    24     5     6   ar
    25    21    18    1
    26     6     1   ar
    27    12     7    1
    28    11     9    1
@<TRIPOS>MOLECULE
*****
 25 28 0 0 0
SMALL
GASTEIGER

@<TRIPOS>ATOM
      1 C          -2.1230    3.2114   20.4441 C.ar    1  UNL1        0.2212
      2 N          -1.0668    2.1516   20.5509 N.ar    1  UNL1       -0.1987
      3 C           0.0180    2.0672   19.5184 C.ar    1  UNL1        0.1360
      4 C           0.0467    3.0425   18.3792 C.ar    1  UNL1        0.0575
      5 C          -1.0094    4.1023   18.2724 C.ar    1  UNL1        0.1582
      6 N          -2.0943    4.1867   19.3049 N.ar    1  UNL1       -0.2096
      7 N           1.0742    1.0074   19.6251 N.pl3   1  UNL1       -0.2931
      8 C           0.8790   -0.3814   20.1572 C.3     1  UNL1        0.0922
      9 C           2.1952   -1.0968   20.0794 C.3     1  UNL1        0.0219
     10 C           3.6142   -1.5412   19.8818 C.3     1  UNL1        0.0089
     11 C           3.2038   -0.1501   19.4993 C.3     1  UNL1        0.0219
     12 C           2.5109    1.1503   19.2185 C.3     1  UNL1        0.0922
     13 C           4.6703   -2.6010   19.9885 C.3     1  UNL1        0.0418
     14 C           5.0795   -3.3773   18.7719 C.2     1  UNL1        0.0503
     15 O           4.6955   -4.8212   18.6395 O.co2   1  UNL1       -0.5492
     16 O           5.8726   -2.7096   17.6878 O.co2   1  UNL1       -0.5492
     17 C          -2.2420    4.0121   23.9737 C.3     1  UNL1        0.0216
     18 C          -3.2571    3.6275   22.9386 C.3     1  UNL1        0.0773
     19 C          -4.7420    3.4153   22.9368 C.3     1  UNL1        0.0413
     20 C          -4.6928    3.0836   21.4747 C.3     1  UNL1        0.0952
     21 N          -3.2078    3.2958   21.4766 N.pl3   1  UNL1       -0.2797
     22 C          -0.9807    5.0777   17.1332 C.3     1  UNL1        0.4350
     23 F          -0.9520    6.0531   15.9940 F       1  UNL1       -0.1644
     24 F           0.4878    4.8284   16.9567 F       1  UNL1       -0.1644
     25 F          -2.4493    5.3270   17.3096 F       1  UNL1       -0.1644
@<TRIPOS>UNITY_ATOM_ATTR
15 1
charge -1
@<TRIPOS>BOND
     1    18    17    1
     2    18    19    1
     3    19    20    1
     4    20    21    1
     5    21     1    1
     6     1     2   ar
     7     2     3   ar
     8     3     7    1
     9     7     8    1
    10     9     8    1
    11     9    10    1
    12    10    13    1
    13    13    14    1
    14    14    15   ar
    15    14    16   ar
    16    10    11    1
    17    11    12    1
    18     3     4   ar
    19     4     5   ar
    20     5    22    1
    21    22    23    1
    22    22    24    1
    23    22    25    1
    24     5     6   ar
    25    21    18    1
    26     6     1   ar
    27    12     7    1
    28    11     9    1
@<TRIPOS>MOLECULE
*****
 25 28 0 0 0
SMALL
GASTEIGER

@<TRIPOS>ATOM
      1 C           3.4313   -1.3334   20.8231 C.ar    1  UNL1        0.2212
      2 N           3.1869   -0.9438   22.2508 N.ar    1  UNL1       -0.1987
      3 C           2.2108    0.1485   22.5735 C.ar    1  UNL1        0.1360
      4 C           1.4792    0.8511   21.4686 C.ar    1  UNL1        0.0575
      5 C           1.7236    0.4615   20.0409 C.ar    1  UNL1        0.1582
      6 N           2.6996   -0.6308   19.7181 N.ar    1  UNL1       -0.2096
      7 N           1.9664    0.5381   24.0013 N.pl3   1  UNL1       -0.2931
      8 C           2.9492    0.4195   25.1283 C.3     1  UNL1        0.0922
      9 C           2.2865    0.9229   26.3762 C.3     1  UNL1        0.0219
     10 C           1.3785    1.4752   27.4348 C.3     1  UNL1        0.0089
     11 C           0.8940    1.3526   26.0205 C.3     1  UNL1        0.0219
     12 C           0.6962    1.1148   24.5528 C.3     1  UNL1        0.0922
     13 C           1.1340    1.8649   28.8625 C.3     1  UNL1        0.0418
     14 C           0.2890    0.9934   29.7437 C.2     1  UNL1        0.0503
     15 O          -0.2002    1.5114   31.0636 O.co2   1  UNL1       -0.5492
     16 O          -0.0668   -0.3962   29.3048 O.co2   1  UNL1       -0.5492
     17 C           3.2272   -4.5366   19.1462 C.3     1  UNL1        0.0216
     18 C           4.3228   -3.7526   19.8057 C.3     1  UNL1        0.0773
     19 C           5.7876   -3.9706   20.0437 C.3     1  UNL1        0.0413
     20 C           5.8722   -2.6438   20.7382 C.3     1  UNL1        0.0952
     21 N           4.4073   -2.4258   20.5002 N.pl3   1  UNL1       -0.2797
     22 C           0.9919    1.1642   18.9359 C.3     1  UNL1        0.4350
     23 F           0.2603    1.8668   17.8309 F       1  UNL1       -0.1644
     24 F           1.7119    0.3228   17.9241 F       1  UNL1       -0.1644
     25 F           0.2719    2.0056   19.9477 F       1  UNL1       -0.1644
@<TRIPOS>UNITY_ATOM_ATTR
15 1
charge -1
@<TRIPOS>BOND
     1    18    17    1
     2    18    19    1
     3    19    20    1
     4    20    21    1
     5    21     1    1
     6     1     2   ar
     7     2     3   ar
     8     3     7    1
     9     7     8    1
    10     9     8    1
    11     9    10    1
    12    10    13    1
    13    13    14    1
    14    14    15   ar
    15    14    16   ar
    16    10    11    1
    17    11    12    1
    18     3     4   ar
    19     4     5   ar
    20     5    22    1
    21    22    23    1
    22    22    24    1
    23    22    25    1
    24     5     6   ar
    25    21    18    1
    26     6     1   ar
    27    12     7    1
    28    11     9    1
