@<TRIPOS>MOLECULE
*****
 28 32 0 0 0
SMALL
GASTEIGER

@<TRIPOS>ATOM
      1 C           2.6807    0.5076   25.4868 C.3     1  UNL1        0.0718
      2 C           1.3507    1.1994   25.5368 C.3     1  UNL1        0.0181
      3 C           0.2710    1.9893   24.8584 C.3     1  UNL1        0.0036
      4 C          -0.9494    2.7652   24.4598 C.3     1  UNL1        0.0245
      5 C          -1.8479    2.8630   25.6571 C.3     1  UNL1        0.1069
      6 C          -1.1827    2.1477   26.7955 C.3     1  UNL1        0.0245
      7 C           0.1268    1.6077   26.3018 C.3     1  UNL1        0.0036
      8 N          -3.1779    3.5548   25.7071 N.ar    1  UNL1       -0.2325
      9 C          -3.7007    4.3790   26.8462 C.ar    1  UNL1        0.1968
     10 N          -5.0646    4.8774   26.4699 N.ar    1  UNL1       -0.2076
     11 C          -5.3846    4.3613   25.0983 C.ar    1  UNL1        0.1600
     12 N          -4.2185    3.5439   24.6269 N.ar    1  UNL1       -0.1531
     13 C          -6.6487    4.6177   24.3327 C.3     1  UNL1        0.0605
     14 C          -7.4872    4.4176   23.1051 C.3     1  UNL1        0.0080
     15 C          -7.9997    5.2618   24.2341 C.3     1  UNL1        0.0080
     16 N           2.9085   -0.6101   24.5126 N.am    1  UNL1       -0.3025
     17 C           3.3189   -0.3042   23.1027 C.2     1  UNL1        0.2458
     18 O           3.5015    1.1194   22.6668 O.2     1  UNL1       -0.2701
     19 H           2.7887   -1.5445   24.7987 H       1  UNL1        0.1497
     20 C           3.5468   -1.4220   22.1286 C.ar    1  UNL1        0.0534
     21 C           4.2781   -2.6576   22.5625 C.ar    1  UNL1        0.0054
     22 C           4.5059   -3.7753   21.5884 C.ar    1  UNL1        0.0115
     23 C           4.0024   -3.6573   20.1804 C.ar    1  UNL1        0.0577
     24 CL          4.2302   -4.7750   19.2063 Cl      1  UNL1       -0.0822
     25 C           3.2710   -2.4217   19.7465 C.ar    1  UNL1        0.0115
     26 C           3.0432   -1.3040   20.7206 C.ar    1  UNL1        0.0054
     27 C           3.9210    2.3759   26.7985 C.3     1  UNL1        0.0017
     28 C           3.7828    0.9335   26.4108 C.3     1  UNL1        0.0196
@<TRIPOS>BOND
     1    27    28    1
     2    28     1    1
     3     1    16    1
     4    16    17   am
     5    17    18    2
     6    17    20    1
     7    20    21   ar
     8    21    22   ar
     9    22    23   ar
    10    23    24    1
    11    23    25   ar
    12    25    26   ar
    13     2     1    1
    14     2     3    1
    15     3     4    1
    16     4     5    1
    17     5     8    1
    18     8     9   ar
    19     9    10   ar
    20    10    11   ar
    21    11    13    1
    22    13    14    1
    23    14    15    1
    24    11    12   ar
    25     5     6    1
    26     7     6    1
    27    26    20   ar
    28     7     2    1
    29     7     3    1
    30    12     8   ar
    31    15    13    1
    32    16    19    1
@<TRIPOS>MOLECULE
*****
 28 32 0 0 0
SMALL
GASTEIGER

@<TRIPOS>ATOM
      1 C           7.3118   -5.2012   29.7988 C.3     1  UNL1        0.0718
      2 C           7.0701   -4.8292   28.3659 C.3     1  UNL1        0.0181
      3 C           7.0203   -5.2094   26.9158 C.3     1  UNL1        0.0036
      4 C           6.8890   -5.2898   25.4237 C.3     1  UNL1        0.0245
      5 C           6.4887   -3.9347   24.9200 C.3     1  UNL1        0.1069
      6 C           6.3727   -3.0169   26.1008 C.3     1  UNL1        0.0245
      7 C           6.7012   -3.8047   27.3343 C.3     1  UNL1        0.0036
      8 N           6.2470   -3.5627   23.4871 N.ar    1  UNL1       -0.2325
      9 C           6.8464   -2.3911   22.7671 C.ar    1  UNL1        0.1968
     10 N           6.3332   -2.4014   21.3576 N.ar    1  UNL1       -0.2076
     11 C           5.4167   -3.5791   21.2065 C.ar    1  UNL1        0.1600
     12 N           5.3634   -4.2968   22.5226 N.ar    1  UNL1       -0.1531
     13 C           4.6824   -3.9704   19.9585 C.3     1  UNL1        0.0605
     14 C           3.5030   -3.8200   19.0439 C.3     1  UNL1        0.0080
     15 C           4.5900   -4.7986   18.7113 C.3     1  UNL1        0.0080
     16 N           6.6350   -4.4355   30.8969 N.am    1  UNL1       -0.3025
     17 C           7.1919   -3.1169   31.3453 C.2     1  UNL1        0.2458
     18 O           8.4256   -2.5639   30.6956 O.2     1  UNL1       -0.2701
     19 H           5.8252   -4.7984   31.3233 H       1  UNL1        0.1497
     20 C           6.5151   -2.3512   32.4433 C.ar    1  UNL1        0.0534
     21 C           7.2482   -1.2519   33.1532 C.ar    1  UNL1        0.0054
     22 C           6.5714   -0.4862   34.2512 C.ar    1  UNL1        0.0115
     23 C           5.1614   -0.8199   34.6394 C.ar    1  UNL1        0.0577
     24 CL          4.4846   -0.0543   35.7375 Cl      1  UNL1       -0.0822
     25 C           4.4283   -1.9193   33.9295 C.ar    1  UNL1        0.0115
     26 C           5.1051   -2.6849   32.8315 C.ar    1  UNL1        0.0054
     27 C           9.0867   -6.2742   31.3635 C.3     1  UNL1        0.0017
     28 C           8.2303   -6.3388   30.1337 C.3     1  UNL1        0.0196
@<TRIPOS>BOND
     1    27    28    1
     2    28     1    1
     3     1    16    1
     4    16    17   am
     5    17    18    2
     6    17    20    1
     7    20    21   ar
     8    21    22   ar
     9    22    23   ar
    10    23    24    1
    11    23    25   ar
    12    25    26   ar
    13     2     1    1
    14     2     3    1
    15     3     4    1
    16     4     5    1
    17     5     8    1
    18     8     9   ar
    19     9    10   ar
    20    10    11   ar
    21    11    13    1
    22    13    14    1
    23    14    15    1
    24    11    12   ar
    25     5     6    1
    26     7     6    1
    27    26    20   ar
    28     7     2    1
    29     7     3    1
    30    12     8   ar
    31    15    13    1
    32    16    19    1
@<TRIPOS>MOLECULE
*****
 28 32 0 0 0
SMALL
GASTEIGER

@<TRIPOS>ATOM
      1 C           4.8942   -2.8014   19.7392 C.3     1  UNL1        0.0718
      2 C           3.8201   -1.7544   19.7301 C.3     1  UNL1        0.0181
      3 C           3.1905   -0.5447   19.1054 C.3     1  UNL1        0.0036
      4 C           2.3548    0.6383   18.7155 C.3     1  UNL1        0.0245
      5 C           1.2370    0.7635   19.7080 C.3     1  UNL1        0.1069
      6 C           1.3819   -0.3422   20.7112 C.3     1  UNL1        0.0245
      7 C           2.5893   -1.1507   20.3388 C.3     1  UNL1        0.0036
      8 N           0.1629    1.8105   19.6988 N.ar    1  UNL1       -0.2325
      9 C           0.0200    2.9183   18.6976 C.ar    1  UNL1        0.1968
     10 N          -1.1882    3.7259   19.0692 N.ar    1  UNL1       -0.2076
     11 C          -1.7919    3.1173   20.3001 C.ar    1  UNL1        0.1600
     12 N          -0.9569    1.9335   20.6892 N.ar    1  UNL1       -0.1531
     13 C          -3.0157    3.6067   21.0161 C.3     1  UNL1        0.0605
     14 C          -4.2396    3.3267   21.8370 C.3     1  UNL1        0.0080
     15 C          -3.9117    4.7342   21.4355 C.3     1  UNL1        0.0080
     16 N           5.8280   -2.9076   20.9083 N.am    1  UNL1       -0.3025
     17 C           5.4448   -3.7312   22.1019 C.2     1  UNL1        0.2458
     18 O           4.1277   -4.4487   22.1265 O.2     1  UNL1       -0.2701
     19 H           6.6925   -2.4368   20.8922 H       1  UNL1        0.1497
     20 C           6.3786   -3.8375   23.2711 C.ar    1  UNL1        0.0534
     21 C           7.6388   -4.6426   23.1536 C.ar    1  UNL1        0.0054
     22 C           8.5725   -4.7487   24.3227 C.ar    1  UNL1        0.0115
     23 C           8.2462   -4.0498   25.6092 C.ar    1  UNL1        0.0577
     24 CL          9.1800   -4.1560   26.7783 Cl      1  UNL1       -0.0822
     25 C           6.9860   -3.2447   25.7266 C.ar    1  UNL1        0.0115
     26 C           6.0523   -3.1385   24.5575 C.ar    1  UNL1        0.0054
     27 C           4.5809   -5.1660   18.7095 C.3     1  UNL1        0.0017
     28 C           5.0345   -3.7422   18.5794 C.3     1  UNL1        0.0196
@<TRIPOS>BOND
     1    27    28    1
     2    28     1    1
     3     1    16    1
     4    16    17   am
     5    17    18    2
     6    17    20    1
     7    20    21   ar
     8    21    22   ar
     9    22    23   ar
    10    23    24    1
    11    23    25   ar
    12    25    26   ar
    13     2     1    1
    14     2     3    1
    15     3     4    1
    16     4     5    1
    17     5     8    1
    18     8     9   ar
    19     9    10   ar
    20    10    11   ar
    21    11    13    1
    22    13    14    1
    23    14    15    1
    24    11    12   ar
    25     5     6    1
    26     7     6    1
    27    26    20   ar
    28     7     2    1
    29     7     3    1
    30    12     8   ar
    31    15    13    1
    32    16    19    1
@<TRIPOS>MOLECULE
*****
 28 32 0 0 0
SMALL
GASTEIGER

@<TRIPOS>ATOM
      1 C           3.5603   -2.9869   20.0459 C.3     1  UNL1        0.0718
      2 C           4.3626   -3.1550   21.3022 C.3     1  UNL1        0.0181
      3 C           4.5720   -2.8633   22.7585 C.3     1  UNL1        0.0036
      4 C           5.0350   -2.7528   24.1810 C.3     1  UNL1        0.0245
      5 C           6.2918   -3.5593   24.3233 C.3     1  UNL1        0.1069
      6 C           6.6055   -4.1681   22.9887 C.3     1  UNL1        0.0245
      7 C           5.5426   -3.7380   22.0217 C.3     1  UNL1        0.0036
      8 N           7.0941   -3.7274   25.5795 N.ar    1  UNL1       -0.2325
      9 C           8.5251   -3.3212   25.7728 C.ar    1  UNL1        0.1968
     10 N           8.9216   -3.6740   27.1758 N.ar    1  UNL1       -0.2076
     11 C           7.7356   -4.2982   27.8496 C.ar    1  UNL1        0.1600
     12 N           6.6062   -4.3312   26.8630 N.ar    1  UNL1       -0.1531
     13 C           7.6876   -4.8010   29.2619 C.3     1  UNL1        0.0605
     14 C           7.0191   -5.6170   30.3283 C.3     1  UNL1        0.0080
     15 C           8.2731   -4.8559   30.6419 C.3     1  UNL1        0.0080
     16 N           2.8551   -1.6912   19.7742 N.am    1  UNL1       -0.3025
     17 C           3.5617   -0.5931   19.0361 C.2     1  UNL1        0.2458
     18 O           4.9736   -0.7906   18.5698 O.2     1  UNL1       -0.2701
     19 H           1.9284   -1.5616   20.0802 H       1  UNL1        0.1497
     20 C           2.8564    0.7026   18.7643 C.ar    1  UNL1        0.0534
     21 C           3.6435    1.9735   18.6414 C.ar    1  UNL1        0.0054
     22 C           2.9383    3.2691   18.3696 C.ar    1  UNL1        0.0115
     23 C           1.4459    3.2938   18.2209 C.ar    1  UNL1        0.0577
     24 CL          0.7406    4.5896   17.9491 Cl      1  UNL1       -0.0822
     25 C           0.6587    2.0229   18.3438 C.ar    1  UNL1        0.0115
     26 C           1.3640    0.7273   18.6156 C.ar    1  UNL1        0.0054
     27 C           4.6656   -4.9637   18.7730 C.3     1  UNL1        0.0017
     28 C           3.4633   -4.1145   19.0614 C.3     1  UNL1        0.0196
@<TRIPOS>BOND
     1    27    28    1
     2    28     1    1
     3     1    16    1
     4    16    17   am
     5    17    18    2
     6    17    20    1
     7    20    21   ar
     8    21    22   ar
     9    22    23   ar
    10    23    24    1
    11    23    25   ar
    12    25    26   ar
    13     2     1    1
    14     2     3    1
    15     3     4    1
    16     4     5    1
    17     5     8    1
    18     8     9   ar
    19     9    10   ar
    20    10    11   ar
    21    11    13    1
    22    13    14    1
    23    14    15    1
    24    11    12   ar
    25     5     6    1
    26     7     6    1
    27    26    20   ar
    28     7     2    1
    29     7     3    1
    30    12     8   ar
    31    15    13    1
    32    16    19    1
@<TRIPOS>MOLECULE
*****
 28 32 0 0 0
SMALL
GASTEIGER

@<TRIPOS>ATOM
      1 C           5.9665   -2.3363   20.4761 C.3     1  UNL1        0.0718
      2 C           6.2231   -2.9589   21.8165 C.3     1  UNL1        0.0181
      3 C           6.8587   -4.0317   22.6502 C.3     1  UNL1        0.0036
      4 C           7.3582   -4.9537   23.7229 C.3     1  UNL1        0.0245
      5 C           6.8402   -4.4561   25.0398 C.3     1  UNL1        0.1069
      6 C           6.0207   -3.2268   24.7810 C.3     1  UNL1        0.0245
      7 C           6.0321   -2.9644   23.3042 C.3     1  UNL1        0.0036
      8 N           7.0968   -5.0787   26.3802 N.ar    1  UNL1       -0.2325
      9 C           7.7367   -6.4133   26.6245 C.ar    1  UNL1        0.1968
     10 N           7.7939   -6.6354   28.1069 N.ar    1  UNL1       -0.2076
     11 C           7.1894   -5.4382   28.7787 C.ar    1  UNL1        0.1600
     12 N           6.7586   -4.4762   27.7115 N.ar    1  UNL1       -0.1531
     13 C           7.0417   -5.2383   30.2579 C.3     1  UNL1        0.0605
     14 C           6.8796   -4.3231   31.4353 C.3     1  UNL1        0.0080
     15 C           6.9481   -5.8071   31.6427 C.3     1  UNL1        0.0080
     16 N           4.9543   -1.2376   20.3409 N.am    1  UNL1       -0.3025
     17 C           3.5883   -1.5387   19.7993 C.2     1  UNL1        0.2458
     18 O           3.2345   -2.9386   19.3929 O.2     1  UNL1       -0.2701
     19 H           5.1865   -0.3188   20.6077 H       1  UNL1        0.1497
     20 C           2.5761   -0.4400   19.6642 C.ar    1  UNL1        0.0534
     21 C           1.3043   -0.4901   20.4579 C.ar    1  UNL1        0.0054
     22 C           0.2921    0.6086   20.3227 C.ar    1  UNL1        0.0115
     23 C           0.5517    1.7574   19.3937 C.ar    1  UNL1        0.0577
     24 CL         -0.4605    2.8561   19.2585 Cl      1  UNL1       -0.0822
     25 C           1.8235    1.8075   18.6000 C.ar    1  UNL1        0.0115
     26 C           2.8357    0.7088   18.7352 C.ar    1  UNL1        0.0054
     27 C           8.0910   -2.2715   18.9822 C.3     1  UNL1        0.0017
     28 C           6.7221   -2.8124   19.2710 C.3     1  UNL1        0.0196
@<TRIPOS>BOND
     1    27    28    1
     2    28     1    1
     3     1    16    1
     4    16    17   am
     5    17    18    2
     6    17    20    1
     7    20    21   ar
     8    21    22   ar
     9    22    23   ar
    10    23    24    1
    11    23    25   ar
    12    25    26   ar
    13     2     1    1
    14     2     3    1
    15     3     4    1
    16     4     5    1
    17     5     8    1
    18     8     9   ar
    19     9    10   ar
    20    10    11   ar
    21    11    13    1
    22    13    14    1
    23    14    15    1
    24    11    12   ar
    25     5     6    1
    26     7     6    1
    27    26    20   ar
    28     7     2    1
    29     7     3    1
    30    12     8   ar
    31    15    13    1
    32    16    19    1
@<TRIPOS>MOLECULE
*****
 28 32 0 0 0
SMALL
GASTEIGER

@<TRIPOS>ATOM
      1 C          -2.4316    4.3489   19.9291 C.3     1  UNL1        0.0718
      2 C          -1.3320    3.3365   19.8034 C.3     1  UNL1        0.0181
      3 C          -0.1148    2.8220   19.0937 C.3     1  UNL1        0.0036
      4 C           1.0947    2.0830   18.6027 C.3     1  UNL1        0.0245
      5 C           1.3124    0.9016   19.5011 C.3     1  UNL1        0.1069
      6 C           0.2374    0.9105   20.5472 C.3     1  UNL1        0.0245
      7 C          -0.6447    2.0973   20.2954 C.3     1  UNL1        0.0036
      8 N           2.4119   -0.1109   19.3753 N.ar    1  UNL1       -0.2325
      9 C           3.8632    0.1880   19.1414 C.ar    1  UNL1        0.1968
     10 N           4.6015   -1.1165   19.0830 N.ar    1  UNL1       -0.2076
     11 C           3.6066   -2.2215   19.2808 C.ar    1  UNL1        0.1600
     12 N           2.2534   -1.6000   19.4615 N.ar    1  UNL1       -0.1531
     13 C           3.9115   -3.6900   19.2953 C.3     1  UNL1        0.0605
     14 C           3.5223   -5.0941   19.6518 C.3     1  UNL1        0.0080
     15 C           4.8287   -4.8297   18.9640 C.3     1  UNL1        0.0080
     16 N          -2.9218    4.7592   21.2862 N.am    1  UNL1       -0.3025
     17 C          -3.9570    3.9335   21.9908 C.2     1  UNL1        0.2458
     18 O          -4.5021    2.6977   21.3385 O.2     1  UNL1       -0.2701
     19 H          -2.5641    5.5703   21.7143 H       1  UNL1        0.1497
     20 C          -4.4473    4.3437   23.3478 C.ar    1  UNL1        0.0534
     21 C          -5.4378    5.4622   23.4809 C.ar    1  UNL1        0.0054
     22 C          -5.9280    5.8724   24.8379 C.ar    1  UNL1        0.0115
     23 C          -5.4276    5.1641   26.0618 C.ar    1  UNL1        0.0577
     24 CL         -5.9179    5.5743   27.4188 Cl      1  UNL1       -0.0822
     25 C          -4.4371    4.0456   25.9287 C.ar    1  UNL1        0.0115
     26 C          -3.9469    3.6354   24.5717 C.ar    1  UNL1        0.0054
     27 C          -3.8828    4.1068   17.7879 C.3     1  UNL1        0.0017
     28 C          -3.0409    4.9512   18.6979 C.3     1  UNL1        0.0196
@<TRIPOS>BOND
     1    27    28    1
     2    28     1    1
     3     1    16    1
     4    16    17   am
     5    17    18    2
     6    17    20    1
     7    20    21   ar
     8    21    22   ar
     9    22    23   ar
    10    23    24    1
    11    23    25   ar
    12    25    26   ar
    13     2     1    1
    14     2     3    1
    15     3     4    1
    16     4     5    1
    17     5     8    1
    18     8     9   ar
    19     9    10   ar
    20    10    11   ar
    21    11    13    1
    22    13    14    1
    23    14    15    1
    24    11    12   ar
    25     5     6    1
    26     7     6    1
    27    26    20   ar
    28     7     2    1
    29     7     3    1
    30    12     8   ar
    31    15    13    1
    32    16    19    1
@<TRIPOS>MOLECULE
*****
 28 32 0 0 0
SMALL
GASTEIGER

@<TRIPOS>ATOM
      1 C           7.5354   -4.2387   22.6869 C.3     1  UNL1        0.0718
      2 C           7.3607   -4.1866   24.1758 C.3     1  UNL1        0.0181
      3 C           7.4161   -3.4205   25.4642 C.3     1  UNL1        0.0036
      4 C           7.3777   -2.9253   26.8796 C.3     1  UNL1        0.0245
      5 C           6.9405   -4.0613   27.7564 C.3     1  UNL1        0.1069
      6 C           6.7087   -5.2584   26.8828 C.3     1  UNL1        0.0245
      7 C           7.0027   -4.8624   25.4662 C.3     1  UNL1        0.0036
      8 N           6.7658   -4.0092   29.2452 N.ar    1  UNL1       -0.2325
      9 C           7.1660   -5.0787   30.2179 C.ar    1  UNL1        0.1968
     10 N           6.8077   -4.6089   31.5967 N.ar    1  UNL1       -0.2076
     11 C           6.1861   -3.2491   31.4762 C.ar    1  UNL1        0.1600
     12 N           6.1602   -2.8785   30.0229 N.ar    1  UNL1       -0.1531
     13 C           5.6794   -2.4077   32.6098 C.3     1  UNL1        0.0605
     14 C           4.6136   -2.0900   33.6165 C.3     1  UNL1        0.0080
     15 C           5.8674   -1.2681   33.5668 C.3     1  UNL1        0.0080
     16 N           6.7918   -3.2750   21.8103 N.am    1  UNL1       -0.3025
     17 C           5.3286   -3.4752   21.5482 C.2     1  UNL1        0.2458
     18 O           4.6089   -4.6390   22.1626 O.2     1  UNL1       -0.2701
     19 H           7.2642   -2.5111   21.4071 H       1  UNL1        0.1497
     20 C           4.5849   -2.5115   20.6716 C.ar    1  UNL1        0.0534
     21 C           4.9254   -2.4067   19.2145 C.ar    1  UNL1        0.0054
     22 C           4.1818   -1.4430   18.3380 C.ar    1  UNL1        0.0115
     23 C           3.0977   -0.5841   18.9186 C.ar    1  UNL1        0.0577
     24 CL          2.3540    0.3796   18.0419 Cl      1  UNL1       -0.0822
     25 C           2.7572   -0.6889   20.3756 C.ar    1  UNL1        0.0115
     26 C           3.5008   -1.6526   21.2521 C.ar    1  UNL1        0.0054
     27 C           8.8798   -6.4545   22.8673 C.3     1  UNL1        0.0017
     28 C           8.4537   -5.2545   22.0747 C.3     1  UNL1        0.0196
@<TRIPOS>BOND
     1    27    28    1
     2    28     1    1
     3     1    16    1
     4    16    17   am
     5    17    18    2
     6    17    20    1
     7    20    21   ar
     8    21    22   ar
     9    22    23   ar
    10    23    24    1
    11    23    25   ar
    12    25    26   ar
    13     2     1    1
    14     2     3    1
    15     3     4    1
    16     4     5    1
    17     5     8    1
    18     8     9   ar
    19     9    10   ar
    20    10    11   ar
    21    11    13    1
    22    13    14    1
    23    14    15    1
    24    11    12   ar
    25     5     6    1
    26     7     6    1
    27    26    20   ar
    28     7     2    1
    29     7     3    1
    30    12     8   ar
    31    15    13    1
    32    16    19    1
@<TRIPOS>MOLECULE
*****
 28 32 0 0 0
SMALL
GASTEIGER

@<TRIPOS>ATOM
      1 C           0.7353    1.2794   22.1538 C.3     1  UNL1        0.0718
      2 C           0.7622    1.3933   23.6492 C.3     1  UNL1        0.0181
      3 C           1.5354    1.5023   24.9300 C.3     1  UNL1        0.0036
      4 C           2.0245    1.6170   26.3434 C.3     1  UNL1        0.0245
      5 C           0.8271    1.6672   27.2455 C.3     1  UNL1        0.1069
      6 C          -0.4019    1.5835   26.3897 C.3     1  UNL1        0.0245
      7 C           0.0358    1.4816   24.9586 C.3     1  UNL1        0.0036
      8 N           0.8540    1.7811   28.7410 N.ar    1  UNL1       -0.2325
      9 C           1.1761    0.6767   29.7037 C.ar    1  UNL1        0.1968
     10 N           1.0848    1.2325   31.0939 N.ar    1  UNL1       -0.2076
     11 C           0.7062    2.6803   30.9905 C.ar    1  UNL1        0.1600
     12 N           0.5636    3.0193   29.5363 N.ar    1  UNL1       -0.1531
     13 C           0.5055    3.6233   32.1395 C.3     1  UNL1        0.0605
     14 C           0.9718    4.2003   33.4432 C.3     1  UNL1        0.0080
     15 C          -0.3085    4.6798   32.8260 C.3     1  UNL1        0.0080
     16 N           1.2830    0.0535   21.4850 N.am    1  UNL1       -0.3025
     17 C           2.7656   -0.1624   21.4129 C.2     1  UNL1        0.2458
     18 O           3.7005    0.8475   22.0096 O.2     1  UNL1       -0.2701
     19 H           0.6694   -0.6093   21.0934 H       1  UNL1        0.1497
     20 C           3.3133   -1.3884   20.7441 C.ar    1  UNL1        0.0534
     21 C           3.7902   -2.5447   21.5720 C.ar    1  UNL1        0.0054
     22 C           4.3379   -3.7705   20.9032 C.ar    1  UNL1        0.0115
     23 C           4.4087   -3.8400   19.4065 C.ar    1  UNL1        0.0577
     24 CL          4.9565   -5.0659   18.7377 Cl      1  UNL1       -0.0822
     25 C           3.9319   -2.6837   18.5786 C.ar    1  UNL1        0.0115
     26 C           3.3842   -1.4579   19.2474 C.ar    1  UNL1        0.0054
     27 C          -0.9088    3.2747   21.8980 C.3     1  UNL1        0.0017
     28 C           0.1606    2.3913   21.3272 C.3     1  UNL1        0.0196
@<TRIPOS>BOND
     1    27    28    1
     2    28     1    1
     3     1    16    1
     4    16    17   am
     5    17    18    2
     6    17    20    1
     7    20    21   ar
     8    21    22   ar
     9    22    23   ar
    10    23    24    1
    11    23    25   ar
    12    25    26   ar
    13     2     1    1
    14     2     3    1
    15     3     4    1
    16     4     5    1
    17     5     8    1
    18     8     9   ar
    19     9    10   ar
    20    10    11   ar
    21    11    13    1
    22    13    14    1
    23    14    15    1
    24    11    12   ar
    25     5     6    1
    26     7     6    1
    27    26    20   ar
    28     7     2    1
    29     7     3    1
    30    12     8   ar
    31    15    13    1
    32    16    19    1
@<TRIPOS>MOLECULE
*****
 28 32 0 0 0
SMALL
GASTEIGER

@<TRIPOS>ATOM
      1 C           0.1623    2.9440   18.4565 C.3     1  UNL1        0.0718
      2 C           1.0254    1.7518   18.7457 C.3     1  UNL1        0.0181
      3 C           2.2724    0.9583   18.4902 C.3     1  UNL1        0.0036
      4 C           3.4021   -0.0278   18.4526 C.3     1  UNL1        0.0245
      5 C           3.1012   -1.1153   19.4410 C.3     1  UNL1        0.1069
      6 C           1.7856   -0.8012   20.0895 C.3     1  UNL1        0.0245
      7 C           1.2734    0.4804   19.5019 C.3     1  UNL1        0.0036
      8 N           3.9644   -2.3075   19.7302 N.ar    1  UNL1       -0.2325
      9 C           3.6055   -3.7402   19.4680 C.ar    1  UNL1        0.1968
     10 N           4.7573   -4.5945   19.9081 N.ar    1  UNL1       -0.2076
     11 C           5.8280   -3.6898   20.4422 C.ar    1  UNL1        0.1600
     12 N           5.3379   -2.2764   20.3322 N.ar    1  UNL1       -0.1531
     13 C           7.1555   -4.1226   20.9900 C.3     1  UNL1        0.0605
     14 C           8.6228   -4.3678   20.7975 C.3     1  UNL1        0.0080
     15 C           7.9877   -4.6269   22.1315 C.3     1  UNL1        0.0080
     16 N          -1.1929    3.0599   19.0892 N.am    1  UNL1       -0.3025
     17 C          -1.3145    3.4102   20.5426 C.2     1  UNL1        0.2458
     18 O          -0.0811    3.6445   21.3634 O.2     1  UNL1       -0.2701
     19 H          -2.0024    2.9061   18.5505 H       1  UNL1        0.1497
     20 C          -2.6697    3.5261   21.1753 C.ar    1  UNL1        0.0534
     21 C          -2.7909    3.7309   22.6563 C.ar    1  UNL1        0.0054
     22 C          -4.1460    3.8468   23.2889 C.ar    1  UNL1        0.0115
     23 C          -5.3798    3.7580   22.4406 C.ar    1  UNL1        0.0577
     24 CL         -6.7350    3.8740   23.0733 Cl      1  UNL1       -0.0822
     25 C          -5.2586    3.5533   20.9596 C.ar    1  UNL1        0.0115
     26 C          -3.9035    3.4373   20.3270 C.ar    1  UNL1        0.0054
     27 C          -0.2291    5.1868   17.2051 C.3     1  UNL1        0.0017
     28 C           0.6542    4.0202   17.5347 C.3     1  UNL1        0.0196
@<TRIPOS>BOND
     1    27    28    1
     2    28     1    1
     3     1    16    1
     4    16    17   am
     5    17    18    2
     6    17    20    1
     7    20    21   ar
     8    21    22   ar
     9    22    23   ar
    10    23    24    1
    11    23    25   ar
    12    25    26   ar
    13     2     1    1
    14     2     3    1
    15     3     4    1
    16     4     5    1
    17     5     8    1
    18     8     9   ar
    19     9    10   ar
    20    10    11   ar
    21    11    13    1
    22    13    14    1
    23    14    15    1
    24    11    12   ar
    25     5     6    1
    26     7     6    1
    27    26    20   ar
    28     7     2    1
    29     7     3    1
    30    12     8   ar
    31    15    13    1
    32    16    19    1
