@<TRIPOS>MOLECULE
*****
 38 40 0 0 0
SMALL
GASTEIGER

@<TRIPOS>ATOM
      1 C           6.5471   -2.9638   25.8034 C.2     1  UNL1        0.2486
      2 O           6.9747   -1.6041   25.3362 O.2     1  UNL1       -0.2726
      3 N           5.7818   -3.8669   24.8822 N.am    1  UNL1       -0.2823
      4 H           5.5011   -4.7593   25.1887 H       1  UNL1        0.1549
      5 C           5.6851   -2.0697   31.2892 C.ar    1  UNL1        0.1217
      6 C           5.0904   -1.3048   30.1441 C.ar    1  UNL1        0.0196
      7 C           5.4316   -1.6815   28.7328 C.ar    1  UNL1       -0.0011
      8 C           6.3674   -2.8231   28.4666 C.ar    1  UNL1        0.0023
      9 C           6.9620   -3.5880   29.6117 C.ar    1  UNL1       -0.0029
     10 C           6.6209   -3.2114   31.0230 C.ar    1  UNL1        0.0170
     11 C           7.8470   -4.6582   29.0445 C.3     1  UNL1        0.1211
     12 N           7.7993   -4.5546   27.5488 N.am    1  UNL1       -0.2582
     13 C           8.5366   -5.4312   26.5803 C.2     1  UNL1        0.3037
     14 O           9.4202   -6.5320   27.0877 O.2     1  UNL1       -0.2649
     15 C           6.8848   -3.4204   27.1917 C.3     1  UNL1        0.1754
     16 S           5.3439   -1.6931   32.7005 S.O2    1  UNL1        0.0603
     17 O           6.7741   -1.3126   32.9447 O.2     1  UNL1       -0.1530
     18 O           3.9137   -2.0736   32.4563 O.2     1  UNL1       -0.1530
     19 C           4.3221   -0.0103   34.3957 C.3     1  UNL1        0.1102
     20 N           5.0027   -1.3164   34.1117 N.3     1  UNL1       -0.1779
     21 H           4.3939   -2.0505   34.4734 H       1  UNL1        0.1488
     22 C           5.4440   -3.4102   23.4939 C.ar    1  UNL1        0.0503
     23 C           6.2356   -3.9163   22.3245 C.ar    1  UNL1        0.0144
     24 C           5.8978   -3.4596   20.9362 C.ar    1  UNL1       -0.0002
     25 C           4.7686   -2.4969   20.7172 C.ar    1  UNL1        0.0182
     26 C           3.9771   -1.9908   21.8865 C.ar    1  UNL1       -0.0002
     27 C           4.3148   -2.4475   23.2748 C.ar    1  UNL1        0.0144
     28 C           4.4309   -2.0403   19.3289 C.3     1  UNL1        0.2827
     29 O           5.1981   -0.7721   19.5594 O.3     1  UNL1       -0.3692
     30 H           5.5694   -0.7772   20.4555 H       1  UNL1        0.2112
     31 C           4.0932   -1.5836   17.9406 C.3     1  UNL1        0.4311
     32 F           3.7554   -1.1269   16.5523 F       1  UNL1       -0.1669
     33 F           3.0403   -0.6714   18.4968 F       1  UNL1       -0.1669
     34 F           4.6860   -2.0854   17.5147 F       1  UNL1       -0.1669
     35 C           3.6637   -3.3084   19.0984 C.3     1  UNL1        0.4311
     36 F           2.8965   -4.5766   18.8679 F       1  UNL1       -0.1669
     37 F           2.9041   -3.0441   19.4696 F       1  UNL1       -0.1669
     38 F           4.6440   -4.2040   18.4006 F       1  UNL1       -0.1669
@<TRIPOS>BOND
     1    19    20    1
     2    20    16    1
     3    16    17    2
     4    16    18    2
     5    16     5    1
     6     5     6   ar
     7     6     7   ar
     8     7     8   ar
     9     8     9   ar
    10     9    10   ar
    11     9    11    1
    12    11    12    1
    13    12    13   am
    14    13    14    2
    15    12    15    1
    16    15     1    1
    17     1     2    2
    18     1     3   am
    19     3    22    1
    20    22    23   ar
    21    23    24   ar
    22    24    25   ar
    23    25    28    1
    24    28    29    1
    25    28    31    1
    26    31    32    1
    27    31    33    1
    28    31    34    1
    29    28    35    1
    30    35    36    1
    31    35    37    1
    32    35    38    1
    33    25    26   ar
    34    26    27   ar
    35    10     5   ar
    36    27    22   ar
    37    15     8    1
    38    20    21    1
    39     3     4    1
    40    29    30    1
@<TRIPOS>MOLECULE
*****
 38 40 0 0 0
SMALL
GASTEIGER

@<TRIPOS>ATOM
      1 C          -0.5918    2.7439   20.7096 C.2     1  UNL1        0.2486
      2 O           0.6892    3.5243   20.7201 O.2     1  UNL1       -0.2726
      3 N          -0.5814    1.2903   20.3396 N.am    1  UNL1       -0.2823
      4 H          -1.4221    0.7781   20.3327 H       1  UNL1        0.1549
      5 C          -3.9010    4.4102   24.9415 C.ar    1  UNL1        0.1217
      6 C          -2.5779    3.7120   25.0495 C.ar    1  UNL1        0.0196
      7 C          -1.8240    3.3374   23.8080 C.ar    1  UNL1       -0.0011
      8 C          -2.3933    3.6609   22.4585 C.ar    1  UNL1        0.0023
      9 C          -3.7165    4.3591   22.3505 C.ar    1  UNL1       -0.0029
     10 C          -4.4703    4.7338   23.5920 C.ar    1  UNL1        0.0170
     11 C          -4.0241    4.5468   20.8944 C.3     1  UNL1        0.1211
     12 N          -2.8910    3.9646   20.1025 N.am    1  UNL1       -0.2582
     13 C          -2.7844    3.9351   18.6065 C.2     1  UNL1        0.3037
     14 O          -3.8771    4.5250   17.7650 O.2     1  UNL1       -0.2649
     15 C          -1.8831    3.4171   21.0692 C.3     1  UNL1        0.1754
     16 S          -4.6549    4.7849   26.1830 S.O2    1  UNL1        0.0603
     17 O          -4.0401    3.6238   26.9067 O.2     1  UNL1       -0.1530
     18 O          -5.2697    5.9461   25.4592 O.2     1  UNL1       -0.1530
     19 C          -6.4497    6.2383   27.3730 C.3     1  UNL1        0.1102
     20 N          -5.4088    5.1596   27.4245 N.3     1  UNL1       -0.1779
     21 H          -5.8767    4.3142   27.7512 H       1  UNL1        0.1488
     22 C           0.7100    0.6172   19.9801 C.ar    1  UNL1        0.0503
     23 C           1.4211   -0.2307   20.9927 C.ar    1  UNL1        0.0144
     24 C           2.7125   -0.9039   20.6332 C.ar    1  UNL1       -0.0002
     25 C           3.2928   -0.7292   19.2611 C.ar    1  UNL1        0.0182
     26 C           2.5816    0.1187   18.2484 C.ar    1  UNL1       -0.0002
     27 C           1.2903    0.7919   18.6080 C.ar    1  UNL1        0.0144
     28 C           4.5841   -1.4023   18.9016 C.3     1  UNL1        0.2827
     29 O           5.2530   -0.0638   18.7980 O.3     1  UNL1       -0.3692
     30 H           4.6099    0.6352   18.9949 H       1  UNL1        0.2112
     31 C           5.8754   -2.0755   18.5420 C.3     1  UNL1        0.4311
     32 F           7.1668   -2.7487   18.1825 F       1  UNL1       -0.1669
     33 F           6.5005   -1.5478   19.7993 F       1  UNL1       -0.1669
     34 F           5.6020   -2.4332   17.7792 F       1  UNL1       -0.1669
     35 C           3.9152   -2.7409   19.0051 C.3     1  UNL1        0.4311
     36 F           3.2462   -4.0795   19.1086 F       1  UNL1       -0.1669
     37 F           3.4188   -2.6704   18.2749 F       1  UNL1       -0.1669
     38 F           4.4952   -3.3411   20.2513 F       1  UNL1       -0.1669
@<TRIPOS>BOND
     1    19    20    1
     2    20    16    1
     3    16    17    2
     4    16    18    2
     5    16     5    1
     6     5     6   ar
     7     6     7   ar
     8     7     8   ar
     9     8     9   ar
    10     9    10   ar
    11     9    11    1
    12    11    12    1
    13    12    13   am
    14    13    14    2
    15    12    15    1
    16    15     1    1
    17     1     2    2
    18     1     3   am
    19     3    22    1
    20    22    23   ar
    21    23    24   ar
    22    24    25   ar
    23    25    28    1
    24    28    29    1
    25    28    31    1
    26    31    32    1
    27    31    33    1
    28    31    34    1
    29    28    35    1
    30    35    36    1
    31    35    37    1
    32    35    38    1
    33    25    26   ar
    34    26    27   ar
    35    10     5   ar
    36    27    22   ar
    37    15     8    1
    38    20    21    1
    39     3     4    1
    40    29    30    1
@<TRIPOS>MOLECULE
*****
 38 40 0 0 0
SMALL
GASTEIGER

@<TRIPOS>ATOM
      1 C           4.9834   -0.9258   26.2332 C.2     1  UNL1        0.2486
      2 O           5.6400    0.2500   25.5727 O.2     1  UNL1       -0.2726
      3 N           4.2642   -1.9472   25.4028 N.am    1  UNL1       -0.2823
      4 H           3.8332   -2.7190   25.8362 H       1  UNL1        0.1549
      5 C           2.8638    0.8185   31.1424 C.ar    1  UNL1        0.1217
      6 C           2.4717    1.2847   29.7717 C.ar    1  UNL1        0.0196
      7 C           3.1457    0.7080   28.5621 C.ar    1  UNL1       -0.0011
      8 C           4.2116   -0.3349   28.7231 C.ar    1  UNL1        0.0023
      9 C           4.6037   -0.8011   30.0939 C.ar    1  UNL1       -0.0029
     10 C           3.9298   -0.2244   31.3035 C.ar    1  UNL1        0.0170
     11 C           5.6803   -1.8345   29.9418 C.3     1  UNL1        0.1211
     12 N           5.9536   -2.0070   28.4770 N.am    1  UNL1       -0.2582
     13 C           6.9581   -2.9421   27.8716 C.2     1  UNL1        0.3037
     14 O           7.8000   -3.8134   28.7560 O.2     1  UNL1       -0.2649
     15 C           5.0459   -1.0802   27.7239 C.3     1  UNL1        0.1754
     16 S           2.1899    1.3953   32.3521 S.O2    1  UNL1        0.0603
     17 O           3.4567    1.2277   33.1377 O.2     1  UNL1       -0.1530
     18 O           0.9231    1.5628   31.5664 O.2     1  UNL1       -0.1530
     19 C           2.3176    2.7335   34.5753 C.3     1  UNL1        0.1102
     20 N           1.5160    1.9720   33.5617 N.3     1  UNL1       -0.1779
     21 H           0.7928    2.6059   33.2217 H       1  UNL1        0.1488
     22 C           4.2017   -1.7928   23.9121 C.ar    1  UNL1        0.0503
     23 C           5.1416   -2.5687   23.0376 C.ar    1  UNL1        0.0144
     24 C           5.0791   -2.4143   21.5469 C.ar    1  UNL1       -0.0002
     25 C           4.0768   -1.4840   20.9306 C.ar    1  UNL1        0.0182
     26 C           3.1370   -0.7081   21.8050 C.ar    1  UNL1       -0.0002
     27 C           3.1994   -0.8625   23.2958 C.ar    1  UNL1        0.0144
     28 C           4.0143   -1.3296   19.4399 C.3     1  UNL1        0.2827
     29 O           4.5786    0.0550   19.5597 O.3     1  UNL1       -0.3692
     30 H           4.7383    0.2594   20.4943 H       1  UNL1        0.2112
     31 C           3.9518   -1.1752   17.9492 C.3     1  UNL1        0.4311
     32 F           3.8893   -1.0207   16.4585 F       1  UNL1       -0.1669
     33 F           5.4478   -1.2575   17.8779 F       1  UNL1       -0.1669
     34 F           3.0705   -1.1158   17.8836 F       1  UNL1       -0.1669
     35 C           3.4500   -2.7142   19.3201 C.3     1  UNL1        0.4311
     36 F           2.8857   -4.0988   19.2003 F       1  UNL1       -0.1669
     37 F           2.6657   -2.5440   19.6949 F       1  UNL1       -0.1669
     38 F           4.5446   -3.4961   18.6563 F       1  UNL1       -0.1669
@<TRIPOS>BOND
     1    19    20    1
     2    20    16    1
     3    16    17    2
     4    16    18    2
     5    16     5    1
     6     5     6   ar
     7     6     7   ar
     8     7     8   ar
     9     8     9   ar
    10     9    10   ar
    11     9    11    1
    12    11    12    1
    13    12    13   am
    14    13    14    2
    15    12    15    1
    16    15     1    1
    17     1     2    2
    18     1     3   am
    19     3    22    1
    20    22    23   ar
    21    23    24   ar
    22    24    25   ar
    23    25    28    1
    24    28    29    1
    25    28    31    1
    26    31    32    1
    27    31    33    1
    28    31    34    1
    29    28    35    1
    30    35    36    1
    31    35    37    1
    32    35    38    1
    33    25    26   ar
    34    26    27   ar
    35    10     5   ar
    36    27    22   ar
    37    15     8    1
    38    20    21    1
    39     3     4    1
    40    29    30    1
@<TRIPOS>MOLECULE
*****
 38 40 0 0 0
SMALL
GASTEIGER

@<TRIPOS>ATOM
      1 C           3.1067    0.3754   26.1580 C.2     1  UNL1        0.2486
      2 O           3.7708    1.5841   26.7480 O.2     1  UNL1       -0.2726
      3 N           2.8856   -0.8453   27.0011 N.am    1  UNL1       -0.2823
      4 H           2.4497   -1.6386   26.6140 H       1  UNL1        0.1549
      5 C           3.6448   -2.1161   21.1441 C.ar    1  UNL1        0.1217
      6 C           4.3395   -2.4914   22.4194 C.ar    1  UNL1        0.0196
      7 C           4.0767   -1.7124   23.6740 C.ar    1  UNL1       -0.0011
      8 C           3.1191   -0.5581   23.6534 C.ar    1  UNL1        0.0023
      9 C           2.4244   -0.1828   22.3781 C.ar    1  UNL1       -0.0029
     10 C           2.6872   -0.9618   21.1235 C.ar    1  UNL1        0.0170
     11 C           1.5395    0.9949   22.6615 C.3     1  UNL1        0.1211
     12 N           1.6874    1.3473   24.1120 N.am    1  UNL1       -0.2582
     13 C           0.9827    2.4635   24.8244 C.2     1  UNL1        0.3037
     14 O           0.0287    3.3467   24.0762 O.2     1  UNL1       -0.2649
     15 C           2.6636    0.3875   24.7250 C.3     1  UNL1        0.1754
     16 S           3.9076   -2.8951   19.8895 S.O2    1  UNL1        0.0603
     17 O           3.5446   -1.6940   19.0677 O.2     1  UNL1       -0.1530
     18 O           4.2707   -4.0963   20.7114 O.2     1  UNL1       -0.1530
     19 C           4.6179   -5.1033   18.7193 C.3     1  UNL1        0.1102
     20 N           4.1705   -3.6741   18.6349 N.3     1  UNL1       -0.1779
     21 H           3.3035   -3.6682   18.0976 H       1  UNL1        0.1488
     22 C           3.3286   -0.8574   28.4342 C.ar    1  UNL1        0.0503
     23 C           4.7655   -1.1232   28.7727 C.ar    1  UNL1        0.0144
     24 C           5.2086   -1.1353   30.2058 C.ar    1  UNL1       -0.0002
     25 C           4.2148   -0.8815   31.3002 C.ar    1  UNL1        0.0182
     26 C           2.7779   -0.6157   30.9616 C.ar    1  UNL1       -0.0002
     27 C           2.3348   -0.6037   29.5286 C.ar    1  UNL1        0.0144
     28 C           4.6578   -0.8936   32.7333 C.3     1  UNL1        0.2827
     29 O           4.0909    0.4825   32.9201 O.3     1  UNL1       -0.3692
     30 H           3.6986    0.7865   32.0867 H       1  UNL1        0.2112
     31 C           5.1008   -0.9057   34.1663 C.3     1  UNL1        0.4311
     32 F           5.5439   -0.9177   35.5993 F       1  UNL1       -0.1669
     33 F           4.0017   -1.8709   34.4980 F       1  UNL1       -0.1669
     34 F           5.7770   -0.3408   34.0750 F       1  UNL1       -0.1669
     35 C           5.2247   -2.2697   32.5464 C.3     1  UNL1        0.4311
     36 F           5.7916   -3.6458   32.3596 F       1  UNL1       -0.1669
     37 F           4.4535   -2.6892   32.4290 F       1  UNL1       -0.1669
     38 F           6.7062   -2.0723   32.6733 F       1  UNL1       -0.1669
@<TRIPOS>BOND
     1    19    20    1
     2    20    16    1
     3    16    17    2
     4    16    18    2
     5    16     5    1
     6     5     6   ar
     7     6     7   ar
     8     7     8   ar
     9     8     9   ar
    10     9    10   ar
    11     9    11    1
    12    11    12    1
    13    12    13   am
    14    13    14    2
    15    12    15    1
    16    15     1    1
    17     1     2    2
    18     1     3   am
    19     3    22    1
    20    22    23   ar
    21    23    24   ar
    22    24    25   ar
    23    25    28    1
    24    28    29    1
    25    28    31    1
    26    31    32    1
    27    31    33    1
    28    31    34    1
    29    28    35    1
    30    35    36    1
    31    35    37    1
    32    35    38    1
    33    25    26   ar
    34    26    27   ar
    35    10     5   ar
    36    27    22   ar
    37    15     8    1
    38    20    21    1
    39     3     4    1
    40    29    30    1
@<TRIPOS>MOLECULE
*****
 38 40 0 0 0
SMALL
GASTEIGER

@<TRIPOS>ATOM
      1 C          -0.6995    3.3470   20.5398 C.2     1  UNL1        0.2486
      2 O          -0.7575    2.8465   21.9526 O.2     1  UNL1       -0.2726
      3 N          -1.8855    4.0440   19.9418 N.am    1  UNL1       -0.2823
      4 H          -1.8475    4.3725   19.0145 H       1  UNL1        0.1549
      5 C           2.9983   -0.4244   18.6060 C.ar    1  UNL1        0.1217
      6 C           1.7971   -0.6933   19.4632 C.ar    1  UNL1        0.0196
      7 C           0.9120    0.4397   19.8908 C.ar    1  UNL1       -0.0011
      8 C           1.2280    1.8417   19.4612 C.ar    1  UNL1        0.0023
      9 C           2.4292    2.1106   18.6040 C.ar    1  UNL1       -0.0029
     10 C           3.3143    0.9775   18.1764 C.ar    1  UNL1        0.0170
     11 C           2.4880    3.5857   18.3379 C.3     1  UNL1        0.1211
     12 N           1.3231    4.2284   19.0307 N.am    1  UNL1       -0.2582
     13 C           0.9945    5.6920   19.0295 C.2     1  UNL1        0.3037
     14 O           1.8705    6.6567   18.2865 O.2     1  UNL1       -0.2649
     15 C           0.5444    3.1505   19.7249 C.3     1  UNL1        0.1754
     16 S           3.8834   -1.5574   18.1785 S.O2    1  UNL1        0.0603
     17 O           3.5960   -2.2684   19.4676 O.2     1  UNL1       -0.1530
     18 O           4.1708   -0.8464   16.8893 O.2     1  UNL1       -0.1530
     19 C           5.0180   -3.8398   18.6819 C.3     1  UNL1        0.1102
     20 N           4.7685   -2.6905   17.7509 N.3     1  UNL1       -0.1779
     21 H           4.3571   -3.0819   16.9036 H       1  UNL1        0.1488
     22 C          -3.1295    4.2405   20.7567 C.ar    1  UNL1        0.0503
     23 C          -4.1383    3.1356   20.8637 C.ar    1  UNL1        0.0144
     24 C          -5.3822    3.3321   21.6785 C.ar    1  UNL1       -0.0002
     25 C          -5.6174    4.6334   22.3865 C.ar    1  UNL1        0.0182
     26 C          -4.6085    5.7383   22.2795 C.ar    1  UNL1       -0.0002
     27 C          -3.3646    5.5418   21.4647 C.ar    1  UNL1        0.0144
     28 C          -6.8613    4.8299   23.2014 C.3     1  UNL1        0.2827
     29 O          -7.6566    5.0138   21.9430 O.3     1  UNL1       -0.3692
     30 H          -7.0696    4.9337   21.1749 H       1  UNL1        0.2112
     31 C          -8.1052    5.0264   24.0162 C.3     1  UNL1        0.4311
     32 F          -9.3491    5.2229   24.8311 F       1  UNL1       -0.1669
     33 F          -8.5934    3.6712   23.5978 F       1  UNL1       -0.1669
     34 F          -7.9086    5.8348   24.3201 F       1  UNL1       -0.1669
     35 C          -6.0660    4.6459   24.4598 C.3     1  UNL1        0.4311
     36 F          -5.2707    4.4620   25.7182 F       1  UNL1       -0.1669
     37 F          -6.1186    3.7624   24.4926 F       1  UNL1       -0.1669
     38 F          -5.6916    6.0423   24.8599 F       1  UNL1       -0.1669
@<TRIPOS>BOND
     1    19    20    1
     2    20    16    1
     3    16    17    2
     4    16    18    2
     5    16     5    1
     6     5     6   ar
     7     6     7   ar
     8     7     8   ar
     9     8     9   ar
    10     9    10   ar
    11     9    11    1
    12    11    12    1
    13    12    13   am
    14    13    14    2
    15    12    15    1
    16    15     1    1
    17     1     2    2
    18     1     3   am
    19     3    22    1
    20    22    23   ar
    21    23    24   ar
    22    24    25   ar
    23    25    28    1
    24    28    29    1
    25    28    31    1
    26    31    32    1
    27    31    33    1
    28    31    34    1
    29    28    35    1
    30    35    36    1
    31    35    37    1
    32    35    38    1
    33    25    26   ar
    34    26    27   ar
    35    10     5   ar
    36    27    22   ar
    37    15     8    1
    38    20    21    1
    39     3     4    1
    40    29    30    1
@<TRIPOS>MOLECULE
*****
 38 40 0 0 0
SMALL
GASTEIGER

@<TRIPOS>ATOM
      1 C           4.1316   -0.6113   32.6797 C.2     1  UNL1        0.2486
      2 O           3.2330   -1.6596   32.0936 O.2     1  UNL1       -0.2726
      3 N           5.6176   -0.7133   32.5031 N.am    1  UNL1       -0.2823
      4 H           6.2074   -0.0252   32.8878 H       1  UNL1        0.1549
      5 C           4.1771    2.1921   37.5556 C.ar    1  UNL1        0.1217
      6 C           5.0022    0.9926   37.1947 C.ar    1  UNL1        0.0196
      7 C           4.8618    0.3661   35.8390 C.ar    1  UNL1       -0.0011
      8 C           3.8964    0.9391   34.8443 C.ar    1  UNL1        0.0023
      9 C           3.0713    2.1386   35.2053 C.ar    1  UNL1       -0.0029
     10 C           3.2116    2.7651   36.5609 C.ar    1  UNL1        0.0170
     11 C           2.2090    2.4800   34.0262 C.3     1  UNL1        0.1211
     12 N           2.5013    1.4914   32.9366 N.am    1  UNL1       -0.2582
     13 C           1.8628    1.4605   31.5795 C.2     1  UNL1        0.3037
     14 O           0.8290    2.4839   31.2136 O.2     1  UNL1       -0.2649
     15 C           3.5441    0.5391   33.4422 C.3     1  UNL1        0.1754
     16 S           4.3174    2.8186   38.9113 S.O2    1  UNL1        0.0603
     17 O           5.5452    3.5454   38.4483 O.2     1  UNL1       -0.1530
     18 O           3.0897    2.0918   39.3743 O.2     1  UNL1       -0.1530
     19 C           5.8116    3.5642   40.9016 C.3     1  UNL1        0.1102
     20 N           4.4578    3.4451   40.2669 N.3     1  UNL1       -0.1779
     21 H           4.0823    4.3907   40.1946 H       1  UNL1        0.1488
     22 C           6.2051   -1.8637   31.7405 C.ar    1  UNL1        0.0503
     23 C           6.5998   -1.6879   30.3041 C.ar    1  UNL1        0.0144
     24 C           7.1873   -2.8382   29.5415 C.ar    1  UNL1       -0.0002
     25 C           7.3800   -4.1644   30.2153 C.ar    1  UNL1        0.0182
     26 C           6.9853   -4.3402   31.6517 C.ar    1  UNL1       -0.0002
     27 C           6.3979   -3.1899   32.4143 C.ar    1  UNL1        0.0144
     28 C           7.9675   -5.3148   29.4527 C.3     1  UNL1        0.2827
     29 O           9.2422   -5.1804   30.2319 O.3     1  UNL1       -0.3692
     30 H           9.1588   -4.4500   30.8648 H       1  UNL1        0.2112
     31 C           8.5549   -6.4652   28.6901 C.3     1  UNL1        0.4311
     32 F           9.1424   -7.6155   27.9276 F       1  UNL1       -0.1669
     33 F           9.5358   -5.5341   28.0413 F       1  UNL1       -0.1669
     34 F           8.0223   -7.0936   29.0155 F       1  UNL1       -0.1669
     35 C           6.6928   -5.4492   28.6735 C.3     1  UNL1        0.4311
     36 F           5.4181   -5.5836   27.8944 F       1  UNL1       -0.1669
     37 F           6.1887   -5.7413   29.3407 F       1  UNL1       -0.1669
     38 F           7.0670   -5.0142   27.2876 F       1  UNL1       -0.1669
@<TRIPOS>BOND
     1    19    20    1
     2    20    16    1
     3    16    17    2
     4    16    18    2
     5    16     5    1
     6     5     6   ar
     7     6     7   ar
     8     7     8   ar
     9     8     9   ar
    10     9    10   ar
    11     9    11    1
    12    11    12    1
    13    12    13   am
    14    13    14    2
    15    12    15    1
    16    15     1    1
    17     1     2    2
    18     1     3   am
    19     3    22    1
    20    22    23   ar
    21    23    24   ar
    22    24    25   ar
    23    25    28    1
    24    28    29    1
    25    28    31    1
    26    31    32    1
    27    31    33    1
    28    31    34    1
    29    28    35    1
    30    35    36    1
    31    35    37    1
    32    35    38    1
    33    25    26   ar
    34    26    27   ar
    35    10     5   ar
    36    27    22   ar
    37    15     8    1
    38    20    21    1
    39     3     4    1
    40    29    30    1
@<TRIPOS>MOLECULE
*****
 38 40 0 0 0
SMALL
GASTEIGER

@<TRIPOS>ATOM
      1 C           3.0373    0.0171   31.4663 C.2     1  UNL1        0.2486
      2 O           2.3909   -1.2657   31.0346 O.2     1  UNL1       -0.2726
      3 N           4.5172    0.0677   31.7059 N.am    1  UNL1       -0.2823
      4 H           4.9415    0.9097   31.9893 H       1  UNL1        0.1549
      5 C           1.6984    4.1712   35.0142 C.ar    1  UNL1        0.1217
      6 C           2.6671    3.0520   35.2569 C.ar    1  UNL1        0.0196
      7 C           2.9053    2.0221   34.1926 C.ar    1  UNL1       -0.0011
      8 C           2.1749    2.1116   32.8856 C.ar    1  UNL1        0.0023
      9 C           1.2062    3.2309   32.6428 C.ar    1  UNL1       -0.0029
     10 C           0.9680    4.2607   33.7071 C.ar    1  UNL1        0.0170
     11 C           0.6366    3.0604   31.2656 C.3     1  UNL1        0.1211
     12 N           1.2532    1.8358   30.6573 N.am    1  UNL1       -0.2582
     13 C           0.9690    1.2928   29.2882 C.2     1  UNL1        0.3037
     14 O          -0.0120    1.9907   28.3934 O.2     1  UNL1       -0.2649
     15 C           2.2039    1.2494   31.6585 C.3     1  UNL1        0.1754
     16 S           1.4602    5.2010   36.0785 S.O2    1  UNL1        0.0603
     17 O           1.8014    6.2882   35.1029 O.2     1  UNL1       -0.1530
     18 O           1.1190    4.1139   37.0540 O.2     1  UNL1       -0.1530
     19 C           2.0953    7.4481   37.2175 C.3     1  UNL1        0.1102
     20 N           1.2220    6.2309   37.1428 N.3     1  UNL1       -0.1779
     21 H           0.2648    6.5621   37.0230 H       1  UNL1        0.1488
     22 C           5.3506   -1.1645   31.5137 C.ar    1  UNL1        0.0503
     23 C           6.1389   -1.3474   30.2507 C.ar    1  UNL1        0.0144
     24 C           6.9723   -2.5797   30.0585 C.ar    1  UNL1       -0.0002
     25 C           7.0175   -3.6291   31.1293 C.ar    1  UNL1        0.0182
     26 C           6.2293   -3.4462   32.3924 C.ar    1  UNL1       -0.0002
     27 C           5.3958   -2.2140   32.5845 C.ar    1  UNL1        0.0144
     28 C           7.8509   -4.8613   30.9372 C.3     1  UNL1        0.2827
     29 O           8.7202   -4.4532   32.0895 O.3     1  UNL1       -0.3692
     30 H           8.3994   -3.6139   32.4550 H       1  UNL1        0.2112
     31 C           8.6843   -6.0936   30.7450 C.3     1  UNL1        0.4311
     32 F           9.5178   -7.3259   30.5528 F       1  UNL1       -0.1669
     33 F           8.0210   -6.7273   31.9317 F       1  UNL1       -0.1669
     34 F           9.1331   -5.8109   30.0356 F       1  UNL1       -0.1669
     35 C           6.9817   -5.2695   29.7849 C.3     1  UNL1        0.4311
     36 F           6.1125   -5.6777   28.6326 F       1  UNL1       -0.1669
     37 F           6.3585   -5.6819   30.2604 F       1  UNL1       -0.1669
     38 F           7.6994   -4.7343   28.5814 F       1  UNL1       -0.1669
@<TRIPOS>BOND
     1    19    20    1
     2    20    16    1
     3    16    17    2
     4    16    18    2
     5    16     5    1
     6     5     6   ar
     7     6     7   ar
     8     7     8   ar
     9     8     9   ar
    10     9    10   ar
    11     9    11    1
    12    11    12    1
    13    12    13   am
    14    13    14    2
    15    12    15    1
    16    15     1    1
    17     1     2    2
    18     1     3   am
    19     3    22    1
    20    22    23   ar
    21    23    24   ar
    22    24    25   ar
    23    25    28    1
    24    28    29    1
    25    28    31    1
    26    31    32    1
    27    31    33    1
    28    31    34    1
    29    28    35    1
    30    35    36    1
    31    35    37    1
    32    35    38    1
    33    25    26   ar
    34    26    27   ar
    35    10     5   ar
    36    27    22   ar
    37    15     8    1
    38    20    21    1
    39     3     4    1
    40    29    30    1
@<TRIPOS>MOLECULE
*****
 38 40 0 0 0
SMALL
GASTEIGER

@<TRIPOS>ATOM
      1 C          -0.0145    2.8492   20.9234 C.2     1  UNL1        0.2486
      2 O          -1.3683    2.2445   20.6967 O.2     1  UNL1       -0.2726
      3 N           0.2085    3.7761   22.0815 N.am    1  UNL1       -0.2823
      4 H           1.0971    4.1730   22.2303 H       1  UNL1        0.1549
      5 C           3.3577   -1.2206   18.9996 C.ar    1  UNL1        0.1217
      6 C           2.2672   -1.3573   20.0204 C.ar    1  UNL1        0.0196
      7 C           1.4593   -0.1583   20.4199 C.ar    1  UNL1       -0.0011
      8 C           1.7418    1.1774   19.7986 C.ar    1  UNL1        0.0023
      9 C           2.8324    1.3141   18.7778 C.ar    1  UNL1       -0.0029
     10 C           3.6403    0.1151   18.3783 C.ar    1  UNL1        0.0170
     11 C           2.8809    2.7481   18.3404 C.3     1  UNL1        0.1211
     12 N           1.8204    3.4977   19.0910 N.am    1  UNL1       -0.2582
     13 C           1.5170    4.9612   18.9629 C.2     1  UNL1        0.3037
     14 O           2.3098    5.8113   18.0148 O.2     1  UNL1       -0.2649
     15 C           1.1164    2.5270   19.9922 C.3     1  UNL1        0.1754
     16 S           4.1657   -2.4196   18.6001 S.O2    1  UNL1        0.0603
     17 O           4.6793   -1.6749   17.4037 O.2     1  UNL1       -0.1530
     18 O           3.6521   -3.1644   19.7966 O.2     1  UNL1       -0.1530
     19 C           4.6442   -4.9678   18.7675 C.3     1  UNL1        0.1102
     20 N           4.9736   -3.6186   18.2007 N.3     1  UNL1       -0.1779
     21 H           4.8994   -3.6992   17.1866 H       1  UNL1        0.1488
     22 C          -0.9224    4.0983   23.0128 C.ar    1  UNL1        0.0503
     23 C          -1.2202    3.1942   24.1720 C.ar    1  UNL1        0.0144
     24 C          -2.3510    3.5164   25.1033 C.ar    1  UNL1       -0.0002
     25 C          -3.1842    4.7427   24.8754 C.ar    1  UNL1        0.0182
     26 C          -2.8864    5.6469   23.7161 C.ar    1  UNL1       -0.0002
     27 C          -1.7555    5.3247   22.7848 C.ar    1  UNL1        0.0144
     28 C          -4.3151    5.0650   25.8067 C.3     1  UNL1        0.2827
     29 O          -3.3493    5.7090   26.7566 O.3     1  UNL1       -0.3692
     30 H          -2.4516    5.6514   26.3936 H       1  UNL1        0.2112
     31 C          -5.4459    5.3872   26.7379 C.3     1  UNL1        0.4311
     32 F          -6.5768    5.7094   27.6692 F       1  UNL1       -0.1669
     33 F          -4.9800    4.3129   27.6754 F       1  UNL1       -0.1669
     34 F          -5.8004    6.0400   26.2555 F       1  UNL1       -0.1669
     35 C          -5.2808    4.4209   24.8567 C.3     1  UNL1        0.4311
     36 F          -6.2466    3.7768   23.9068 F       1  UNL1       -0.1669
     37 F          -5.2454    3.6062   25.2025 F       1  UNL1       -0.1669
     38 F          -5.6884    5.5370   23.9412 F       1  UNL1       -0.1669
@<TRIPOS>BOND
     1    19    20    1
     2    20    16    1
     3    16    17    2
     4    16    18    2
     5    16     5    1
     6     5     6   ar
     7     6     7   ar
     8     7     8   ar
     9     8     9   ar
    10     9    10   ar
    11     9    11    1
    12    11    12    1
    13    12    13   am
    14    13    14    2
    15    12    15    1
    16    15     1    1
    17     1     2    2
    18     1     3   am
    19     3    22    1
    20    22    23   ar
    21    23    24   ar
    22    24    25   ar
    23    25    28    1
    24    28    29    1
    25    28    31    1
    26    31    32    1
    27    31    33    1
    28    31    34    1
    29    28    35    1
    30    35    36    1
    31    35    37    1
    32    35    38    1
    33    25    26   ar
    34    26    27   ar
    35    10     5   ar
    36    27    22   ar
    37    15     8    1
    38    20    21    1
    39     3     4    1
    40    29    30    1
@<TRIPOS>MOLECULE
*****
 38 40 0 0 0
SMALL
GASTEIGER

@<TRIPOS>ATOM
      1 C           7.4385   -3.9583   27.3011 C.2     1  UNL1        0.2486
      2 O           8.7543   -3.6718   26.6404 O.2     1  UNL1       -0.2726
      3 N           6.1718   -3.9167   26.4988 N.am    1  UNL1       -0.2823
      4 H           5.3081   -4.1047   26.9324 H       1  UNL1        0.1549
      5 C           5.5531   -2.3063   32.3362 C.ar    1  UNL1        0.1217
      6 C           5.3503   -1.6116   31.0224 C.ar    1  UNL1        0.0196
      7 C           5.9272   -2.1968   29.7676 C.ar    1  UNL1       -0.0011
      8 C           6.7070   -3.4768   29.8265 C.ar    1  UNL1        0.0023
      9 C           6.9099   -4.1715   31.1403 C.ar    1  UNL1       -0.0029
     10 C           6.3329   -3.5863   32.3952 C.ar    1  UNL1        0.0170
     11 C           7.7176   -5.4105   30.8897 C.3     1  UNL1        0.1211
     12 N           8.0139   -5.4814   29.4210 N.am    1  UNL1       -0.2582
     13 C           8.7973   -6.5583   28.7305 C.2     1  UNL1        0.3037
     14 O           9.3646   -7.6984   29.5231 O.2     1  UNL1       -0.2649
     15 C           7.3894   -4.2863   28.7639 C.3     1  UNL1        0.1754
     16 S           4.9761   -1.7211   33.5911 S.O2    1  UNL1        0.0603
     17 O           3.9179   -2.7841   33.6002 O.2     1  UNL1       -0.1530
     18 O           6.0344   -0.6581   33.5819 O.2     1  UNL1       -0.1530
     19 C           4.8355    0.2222   35.3097 C.3     1  UNL1        0.1102
     20 N           4.3992   -1.1359   34.8459 N.3     1  UNL1       -0.1779
     21 H           3.3889   -1.0910   34.7124 H       1  UNL1        0.1488
     22 C           6.2209   -3.5887   25.0359 C.ar    1  UNL1        0.0503
     23 C           5.7574   -2.2466   24.5523 C.ar    1  UNL1        0.0144
     24 C           5.8066   -1.9185   23.0894 C.ar    1  UNL1       -0.0002
     25 C           6.3192   -2.9325   22.1102 C.ar    1  UNL1        0.0182
     26 C           6.7826   -4.2747   22.5938 C.ar    1  UNL1       -0.0002
     27 C           6.7335   -4.6027   24.0567 C.ar    1  UNL1        0.0144
     28 C           6.3683   -2.6045   20.6473 C.3     1  UNL1        0.2827
     29 O           7.5350   -1.6938   20.8907 O.3     1  UNL1       -0.3692
     30 H           7.7565   -1.6974   21.8351 H       1  UNL1        0.2112
     31 C           6.4174   -2.2765   19.1844 C.3     1  UNL1        0.4311
     32 F           6.4666   -1.9485   17.7216 F       1  UNL1       -0.1669
     33 F           7.8286   -2.7808   19.1188 F       1  UNL1       -0.1669
     34 F           5.5939   -1.9573   19.1177 F       1  UNL1       -0.1669
     35 C           5.2016   -3.5153   20.4039 C.3     1  UNL1        0.4311
     36 F           4.0348   -4.4261   20.1605 F       1  UNL1       -0.1669
     37 F           4.5885   -3.0138   20.8004 F       1  UNL1       -0.1669
     38 F           5.7951   -4.6745   19.6595 F       1  UNL1       -0.1669
@<TRIPOS>BOND
     1    19    20    1
     2    20    16    1
     3    16    17    2
     4    16    18    2
     5    16     5    1
     6     5     6   ar
     7     6     7   ar
     8     7     8   ar
     9     8     9   ar
    10     9    10   ar
    11     9    11    1
    12    11    12    1
    13    12    13   am
    14    13    14    2
    15    12    15    1
    16    15     1    1
    17     1     2    2
    18     1     3   am
    19     3    22    1
    20    22    23   ar
    21    23    24   ar
    22    24    25   ar
    23    25    28    1
    24    28    29    1
    25    28    31    1
    26    31    32    1
    27    31    33    1
    28    31    34    1
    29    28    35    1
    30    35    36    1
    31    35    37    1
    32    35    38    1
    33    25    26   ar
    34    26    27   ar
    35    10     5   ar
    36    27    22   ar
    37    15     8    1
    38    20    21    1
    39     3     4    1
    40    29    30    1
