@<TRIPOS>MOLECULE
*****
 30 34 0 0 0
SMALL
GASTEIGER

@<TRIPOS>ATOM
      1 C          -2.8052    3.4912   21.0766 C.ar    1  UNL1        0.2673
      2 N          -2.5869    4.2380   19.7942 N.ar    1  UNL1       -0.1056
      3 N          -1.4009    3.6342   19.1022 N.ar    1  UNL1       -0.1114
      4 C          -0.8861    2.5142   19.9570 C.ar    1  UNL1        0.2261
      5 O          -1.7540    2.4258   21.1772 O.2     1  UNL1       -0.4182
      6 C          -2.5615    3.7041   25.7572 C.ar    1  UNL1        0.0801
      7 C          -4.0225    4.0037   25.9179 C.ar    1  UNL1        0.0356
      8 C          -4.6392    4.0501   24.5514 C.ar    1  UNL1        0.0842
      9 C          -6.0445    4.3041   24.0925 C.ar    1  UNL1        0.0192
     10 C          -6.3700    4.2871   22.6284 C.ar    1  UNL1        0.0032
     11 C          -5.2903    4.0161   21.6231 C.ar    1  UNL1        0.0240
     12 C          -3.8849    3.7621   22.0819 C.ar    1  UNL1        0.1376
     13 N          -3.5594    3.7791   23.5461 N.ar    1  UNL1       -0.2253
     14 N          -2.2754    3.5653   24.2913 N.ar    1  UNL1       -0.1694
     15 C          -1.1155    2.2057   27.3109 C.3     1  UNL1        0.0064
     16 C          -1.5622    3.5672   26.8675 C.3     1  UNL1        0.0421
     17 C          -1.0096    4.7919   27.5343 C.3     1  UNL1        0.0064
     18 C           0.2900    1.6366   19.6461 C.3     1  UNL1        0.0810
     19 C           0.4137    0.2903   20.2959 C.3     1  UNL1        0.0266
     20 C           1.5898   -0.5872   19.9850 C.3     1  UNL1        0.0726
     21 N           2.6422   -0.1184   19.0244 N.3     1  UNL1       -0.2727
     22 C           2.5184    1.2278   18.3746 C.3     1  UNL1        0.0726
     23 C           1.3423    2.1053   18.6855 C.3     1  UNL1        0.0266
     24 C           3.8184   -0.9960   18.7135 C.3     1  UNL1        0.0722
     25 C           4.0233   -2.2727   19.4738 C.3     1  UNL1        0.0210
     26 C           4.7076   -2.2492   20.8084 C.3     1  UNL1        0.0335
     27 C           4.9125   -3.5260   21.5687 C.3     1  UNL1        0.1422
     28 O           4.4331   -4.8261   20.9944 O.3     1  UNL1       -0.3538
     29 C           3.7488   -4.8495   19.6598 C.3     1  UNL1        0.1422
     30 C           3.5439   -3.5728   18.8995 C.3     1  UNL1        0.0335
@<TRIPOS>BOND
     1    15    16    1
     2    16    17    1
     3    16     6    1
     4     6     7   ar
     5     7     8   ar
     6     8     9   ar
     7     9    10   ar
     8    10    11   ar
     9    11    12   ar
    10    12     1    1
    11     1     2   ar
    12     2     3   ar
    13     3     4   ar
    14     4    18    1
    15    18    19    1
    16    19    20    1
    17    20    21    1
    18    21    24    1
    19    24    25    1
    20    25    26    1
    21    26    27    1
    22    27    28    1
    23    28    29    1
    24    29    30    1
    25    21    22    1
    26    22    23    1
    27     4     5   ar
    28    12    13   ar
    29    13    14   ar
    30    14     6   ar
    31    13     8   ar
    32     5     1   ar
    33    23    18    1
    34    30    25    1
@<TRIPOS>MOLECULE
*****
 30 34 0 0 0
SMALL
GASTEIGER

@<TRIPOS>ATOM
      1 C          -2.5843    3.8188   20.5504 C.ar    1  UNL1        0.2673
      2 N          -1.5658    4.9002   20.3425 N.ar    1  UNL1       -0.1056
      3 N          -0.2698    4.2491   19.9600 N.ar    1  UNL1       -0.1114
      4 C          -0.4873    2.7652   19.9314 C.ar    1  UNL1        0.2261
      5 O          -1.9177    2.4993   20.2964 O.2     1  UNL1       -0.4182
      6 C          -4.4966    4.2295   24.8150 C.ar    1  UNL1        0.0801
      7 C          -5.8895    4.3920   24.2827 C.ar    1  UNL1        0.0356
      8 C          -5.8240    4.3272   22.7855 C.ar    1  UNL1        0.0842
      9 C          -6.8845    4.4264   21.7293 C.ar    1  UNL1        0.0192
     10 C          -6.5115    4.3231   20.2801 C.ar    1  UNL1        0.0032
     11 C          -5.0781    4.1205   19.8871 C.ar    1  UNL1        0.0240
     12 C          -4.0177    4.0213   20.9434 C.ar    1  UNL1        0.1376
     13 N          -4.3907    4.1246   22.3925 N.ar    1  UNL1       -0.2253
     14 N          -3.5703    4.0643   23.6469 N.ar    1  UNL1       -0.1694
     15 C          -2.8971    3.4559   26.7106 C.3     1  UNL1        0.0064
     16 C          -4.0997    4.2319   26.2616 C.3     1  UNL1        0.0421
     17 C          -4.9053    5.0103   27.2591 C.3     1  UNL1        0.0064
     18 C           0.5445    1.7291   19.5968 C.3     1  UNL1        0.0810
     19 C           1.6046    2.0279   18.5785 C.3     1  UNL1        0.0266
     20 C           2.6363    0.9918   18.2439 C.3     1  UNL1        0.0726
     21 N           2.6079   -0.3430   18.9275 N.3     1  UNL1       -0.2727
     22 C           1.5479   -0.6418   19.9458 C.3     1  UNL1        0.0726
     23 C           0.5161    0.3943   20.2804 C.3     1  UNL1        0.0266
     24 C           3.6397   -1.3792   18.5929 C.3     1  UNL1        0.0722
     25 C           3.8199   -2.5730   19.4831 C.3     1  UNL1        0.0210
     26 C           4.4569   -2.4136   20.8317 C.3     1  UNL1        0.0335
     27 C           4.6371   -3.6074   21.7219 C.3     1  UNL1        0.1422
     28 O           4.1803   -4.9606   21.2634 O.3     1  UNL1       -0.3538
     29 C           3.5434   -5.1200   19.9148 C.3     1  UNL1        0.1422
     30 C           3.3632   -3.9262   19.0246 C.3     1  UNL1        0.0335
@<TRIPOS>BOND
     1    15    16    1
     2    16    17    1
     3    16     6    1
     4     6     7   ar
     5     7     8   ar
     6     8     9   ar
     7     9    10   ar
     8    10    11   ar
     9    11    12   ar
    10    12     1    1
    11     1     2   ar
    12     2     3   ar
    13     3     4   ar
    14     4    18    1
    15    18    19    1
    16    19    20    1
    17    20    21    1
    18    21    24    1
    19    24    25    1
    20    25    26    1
    21    26    27    1
    22    27    28    1
    23    28    29    1
    24    29    30    1
    25    21    22    1
    26    22    23    1
    27     4     5   ar
    28    12    13   ar
    29    13    14   ar
    30    14     6   ar
    31    13     8   ar
    32     5     1   ar
    33    23    18    1
    34    30    25    1
@<TRIPOS>MOLECULE
*****
 30 34 0 0 0
SMALL
GASTEIGER

@<TRIPOS>ATOM
      1 C           3.8770   -0.1801   32.9400 C.ar    1  UNL1        0.2673
      2 N           4.1043   -1.0962   34.1059 N.ar    1  UNL1       -0.1056
      3 N           5.0566   -2.1709   33.6723 N.ar    1  UNL1       -0.1114
      4 C           5.4180   -1.9191   32.2384 C.ar    1  UNL1        0.2261
      5 O           4.6890   -0.6888   31.7858 O.2     1  UNL1       -0.4182
      6 C           0.5059    1.0494   29.9173 C.ar    1  UNL1        0.0801
      7 C           0.1827    2.3216   30.6432 C.ar    1  UNL1        0.0356
      8 C           1.0899    2.4194   31.8338 C.ar    1  UNL1        0.0842
      9 C           1.2252    3.4554   32.9100 C.ar    1  UNL1        0.0192
     10 C           2.2445    3.2795   33.9963 C.ar    1  UNL1        0.0032
     11 C           3.1285    2.0676   34.0063 C.ar    1  UNL1        0.0240
     12 C           2.9931    1.0317   32.9300 C.ar    1  UNL1        0.1376
     13 N           1.9738    1.2076   31.8437 N.ar    1  UNL1       -0.2253
     14 N           1.6129    0.3609   30.6593 N.ar    1  UNL1       -0.1694
     15 C           0.2517    1.0943   27.3321 C.3     1  UNL1        0.0064
     16 C          -0.1608    0.5528   28.6688 C.3     1  UNL1        0.0421
     17 C          -1.2399   -0.4853   28.7568 C.3     1  UNL1        0.0064
     18 C           6.3455   -2.7515   31.4036 C.3     1  UNL1        0.0810
     19 C           6.6911   -4.1470   31.8315 C.3     1  UNL1        0.0266
     20 C           7.6186   -4.9793   30.9967 C.3     1  UNL1        0.0726
     21 N           8.2006   -4.4161   29.7341 N.3     1  UNL1       -0.2727
     22 C           7.8550   -3.0206   29.3063 C.3     1  UNL1        0.0726
     23 C           6.9275   -2.1883   30.1411 C.3     1  UNL1        0.0266
     24 C           9.1281   -5.2485   28.8993 C.3     1  UNL1        0.0722
     25 C           8.6001   -6.4338   28.1468 C.3     1  UNL1        0.0210
     26 C           7.5959   -6.2391   27.0497 C.3     1  UNL1        0.0335
     27 C           7.0678   -7.4245   26.2972 C.3     1  UNL1        0.1422
     28 O           7.5440   -8.8045   26.6418 O.3     1  UNL1       -0.3538
     29 C           8.5482   -8.9992   27.7389 C.3     1  UNL1        0.1422
     30 C           9.0763   -7.8139   28.4914 C.3     1  UNL1        0.0335
@<TRIPOS>BOND
     1    15    16    1
     2    16    17    1
     3    16     6    1
     4     6     7   ar
     5     7     8   ar
     6     8     9   ar
     7     9    10   ar
     8    10    11   ar
     9    11    12   ar
    10    12     1    1
    11     1     2   ar
    12     2     3   ar
    13     3     4   ar
    14     4    18    1
    15    18    19    1
    16    19    20    1
    17    20    21    1
    18    21    24    1
    19    24    25    1
    20    25    26    1
    21    26    27    1
    22    27    28    1
    23    28    29    1
    24    29    30    1
    25    21    22    1
    26    22    23    1
    27     4     5   ar
    28    12    13   ar
    29    13    14   ar
    30    14     6   ar
    31    13     8   ar
    32     5     1   ar
    33    23    18    1
    34    30    25    1
@<TRIPOS>MOLECULE
*****
 30 34 0 0 0
SMALL
GASTEIGER

@<TRIPOS>ATOM
      1 C           7.6894   -5.5613   23.4214 C.ar    1  UNL1        0.2673
      2 N           8.6268   -5.7446   22.2648 N.ar    1  UNL1       -0.1056
      3 N           8.1081   -4.9336   21.1145 N.ar    1  UNL1       -0.1114
      4 C           6.8500   -4.2490   21.5602 C.ar    1  UNL1        0.2261
      5 O           6.5913   -4.6369   22.9859 O.2     1  UNL1       -0.4182
      6 C           6.5257   -3.8800   27.6442 C.ar    1  UNL1        0.0801
      7 C           6.9876   -5.1090   28.3697 C.ar    1  UNL1        0.0356
      8 C           7.5137   -6.0776   27.3523 C.ar    1  UNL1        0.0842
      9 C           8.0996   -7.4521   27.4842 C.ar    1  UNL1        0.0192
     10 C           8.5487   -8.1963   26.2618 C.ar    1  UNL1        0.0032
     11 C           8.4120   -7.5661   24.9075 C.ar    1  UNL1        0.0240
     12 C           7.8261   -6.1916   24.7757 C.ar    1  UNL1        0.1376
     13 N           7.3770   -5.4473   25.9981 N.ar    1  UNL1       -0.2253
     14 N           6.7664   -4.0892   26.1784 N.ar    1  UNL1       -0.1694
     15 C           6.3126   -2.2682   29.6706 C.3     1  UNL1        0.0064
     16 C           5.9281   -2.6567   28.2738 C.3     1  UNL1        0.0421
     17 C           4.9460   -1.8220   27.5067 C.3     1  UNL1        0.0064
     18 C           5.9999   -3.3367   20.7265 C.3     1  UNL1        0.0810
     19 C           4.9493   -3.9092   19.8218 C.3     1  UNL1        0.0266
     20 C           4.0993   -2.9968   18.9882 C.3     1  UNL1        0.0726
     21 N           4.2999   -1.5120   19.0592 N.3     1  UNL1       -0.2727
     22 C           5.3504   -0.9395   19.9639 C.3     1  UNL1        0.0726
     23 C           6.2005   -1.8519   20.7976 C.3     1  UNL1        0.0266
     24 C           3.4498   -0.5996   18.2256 C.3     1  UNL1        0.0722
     25 C           2.2936    0.1253   18.8484 C.3     1  UNL1        0.0210
     26 C           1.9513    1.5156   18.4012 C.3     1  UNL1        0.0335
     27 C           0.7952    2.2405   19.0240 C.3     1  UNL1        0.1422
     28 O          -0.0187    1.5751   20.0940 O.3     1  UNL1       -0.3538
     29 C           0.3236    0.1849   20.5412 C.3     1  UNL1        0.1422
     30 C           1.4797   -0.5400   19.9184 C.3     1  UNL1        0.0335
@<TRIPOS>BOND
     1    15    16    1
     2    16    17    1
     3    16     6    1
     4     6     7   ar
     5     7     8   ar
     6     8     9   ar
     7     9    10   ar
     8    10    11   ar
     9    11    12   ar
    10    12     1    1
    11     1     2   ar
    12     2     3   ar
    13     3     4   ar
    14     4    18    1
    15    18    19    1
    16    19    20    1
    17    20    21    1
    18    21    24    1
    19    24    25    1
    20    25    26    1
    21    26    27    1
    22    27    28    1
    23    28    29    1
    24    29    30    1
    25    21    22    1
    26    22    23    1
    27     4     5   ar
    28    12    13   ar
    29    13    14   ar
    30    14     6   ar
    31    13     8   ar
    32     5     1   ar
    33    23    18    1
    34    30    25    1
@<TRIPOS>MOLECULE
*****
 30 34 0 0 0
SMALL
GASTEIGER

@<TRIPOS>ATOM
      1 C          -1.3534    2.9834   20.5358 C.ar    1  UNL1        0.2673
      2 N          -0.1919    3.9286   20.6237 N.ar    1  UNL1       -0.1056
      3 N           1.0541    3.1645   20.2867 N.ar    1  UNL1       -0.1114
      4 C           0.6628    1.7471   19.9905 C.ar    1  UNL1        0.2261
      5 O          -0.8251    1.6352   20.1444 O.2     1  UNL1       -0.4182
      6 C          -3.5731    3.7440   24.5987 C.ar    1  UNL1        0.0801
      7 C          -4.8959    4.0031   23.9407 C.ar    1  UNL1        0.0356
      8 C          -4.7108    3.8675   22.4583 C.ar    1  UNL1        0.0842
      9 C          -5.6652    4.0120   21.3103 C.ar    1  UNL1        0.0192
     10 C          -5.1824    3.8136   19.9041 C.ar    1  UNL1        0.0032
     11 C          -3.7451    3.4708   19.6459 C.ar    1  UNL1        0.0240
     12 C          -2.7907    3.3263   20.7940 C.ar    1  UNL1        0.1376
     13 N          -3.2735    3.5247   22.2002 N.ar    1  UNL1       -0.2253
     14 N          -2.5704    3.4483   23.5230 N.ar    1  UNL1       -0.1694
     15 C          -4.3256    4.3370   27.0137 C.3     1  UNL1        0.0064
     16 C          -3.3008    3.7751   26.0735 C.3     1  UNL1        0.0421
     17 C          -2.0037    3.2444   26.6080 C.3     1  UNL1        0.0064
     18 C           1.5955    0.6366   19.6075 C.3     1  UNL1        0.0810
     19 C           2.4285    0.7515   18.3653 C.3     1  UNL1        0.0266
     20 C           3.3612   -0.3591   17.9824 C.3     1  UNL1        0.0726
     21 N           3.4609   -1.5845   18.8416 N.3     1  UNL1       -0.2727
     22 C           2.6280   -1.6995   20.0837 C.3     1  UNL1        0.0726
     23 C           1.6953   -0.5889   20.4667 C.3     1  UNL1        0.0266
     24 C           4.3937   -2.6952   18.4587 C.3     1  UNL1        0.0722
     25 C           5.7682   -2.7597   19.0560 C.3     1  UNL1        0.0210
     26 C           6.9078   -2.0429   18.3947 C.3     1  UNL1        0.0335
     27 C           8.2822   -2.1075   18.9920 C.3     1  UNL1        0.1422
     28 O           8.5170   -2.8889   20.2507 O.3     1  UNL1       -0.3538
     29 C           7.3774   -3.6057   20.9120 C.3     1  UNL1        0.1422
     30 C           6.0030   -3.5411   20.3147 C.3     1  UNL1        0.0335
@<TRIPOS>BOND
     1    15    16    1
     2    16    17    1
     3    16     6    1
     4     6     7   ar
     5     7     8   ar
     6     8     9   ar
     7     9    10   ar
     8    10    11   ar
     9    11    12   ar
    10    12     1    1
    11     1     2   ar
    12     2     3   ar
    13     3     4   ar
    14     4    18    1
    15    18    19    1
    16    19    20    1
    17    20    21    1
    18    21    24    1
    19    24    25    1
    20    25    26    1
    21    26    27    1
    22    27    28    1
    23    28    29    1
    24    29    30    1
    25    21    22    1
    26    22    23    1
    27     4     5   ar
    28    12    13   ar
    29    13    14   ar
    30    14     6   ar
    31    13     8   ar
    32     5     1   ar
    33    23    18    1
    34    30    25    1
@<TRIPOS>MOLECULE
*****
 30 34 0 0 0
SMALL
GASTEIGER

@<TRIPOS>ATOM
      1 C           6.1430   -3.9880   22.4346 C.ar    1  UNL1        0.2673
      2 N           7.4902   -4.6425   22.3531 N.ar    1  UNL1       -0.1056
      3 N           7.9276   -4.9781   23.7481 N.ar    1  UNL1       -0.1114
      4 C           6.8507   -4.5310   24.6918 C.ar    1  UNL1        0.2261
      5 O           5.7478   -3.9191   23.8799 O.2     1  UNL1       -0.4182
      6 C           2.8309   -0.6679   22.2932 C.ar    1  UNL1        0.0801
      7 C           2.5894   -0.8329   20.8220 C.ar    1  UNL1        0.0356
      8 C           3.5090   -1.9059   20.3187 C.ar    1  UNL1        0.0842
      9 C           3.7135   -2.4936   18.9540 C.ar    1  UNL1        0.0192
     10 C           4.7278   -3.5795   18.7494 C.ar    1  UNL1        0.0032
     11 C           5.5377   -4.0776   19.9096 C.ar    1  UNL1        0.0240
     12 C           5.3331   -3.4899   21.2744 C.ar    1  UNL1        0.1376
     13 N           4.3188   -2.4040   21.4789 N.ar    1  UNL1       -0.2253
     14 N           3.8997   -1.6389   22.6992 N.ar    1  UNL1       -0.1694
     15 C           1.0147    1.1520   22.6666 C.3     1  UNL1        0.0064
     16 C           2.1272    0.2984   23.1993 C.3     1  UNL1        0.0421
     17 C           2.5359    0.4111   24.6381 C.3     1  UNL1        0.0064
     18 C           6.8729   -4.6712   26.1850 C.3     1  UNL1        0.0810
     19 C           6.4753   -3.5142   27.0530 C.3     1  UNL1        0.0266
     20 C           6.4975   -3.6545   28.5461 C.3     1  UNL1        0.0726
     21 N           6.9172   -4.9517   29.1715 N.3     1  UNL1       -0.2727
     22 C           7.3148   -6.1086   28.3036 C.3     1  UNL1        0.0726
     23 C           7.2926   -5.9684   26.8103 C.3     1  UNL1        0.0266
     24 C           6.9394   -5.0919   30.6648 C.3     1  UNL1        0.0722
     25 C           7.2014   -3.8927   31.5269 C.3     1  UNL1        0.0210
     26 C           8.6112   -3.4917   31.8457 C.3     1  UNL1        0.0335
     27 C           8.8731   -2.2925   32.7078 C.3     1  UNL1        0.1422
     28 O           7.7253   -1.4942   33.2511 O.3     1  UNL1       -0.3538
     29 C           6.3155   -1.8952   32.9324 C.3     1  UNL1        0.1422
     30 C           6.0535   -3.0944   32.0703 C.3     1  UNL1        0.0335
@<TRIPOS>BOND
     1    15    16    1
     2    16    17    1
     3    16     6    1
     4     6     7   ar
     5     7     8   ar
     6     8     9   ar
     7     9    10   ar
     8    10    11   ar
     9    11    12   ar
    10    12     1    1
    11     1     2   ar
    12     2     3   ar
    13     3     4   ar
    14     4    18    1
    15    18    19    1
    16    19    20    1
    17    20    21    1
    18    21    24    1
    19    24    25    1
    20    25    26    1
    21    26    27    1
    22    27    28    1
    23    28    29    1
    24    29    30    1
    25    21    22    1
    26    22    23    1
    27     4     5   ar
    28    12    13   ar
    29    13    14   ar
    30    14     6   ar
    31    13     8   ar
    32     5     1   ar
    33    23    18    1
    34    30    25    1
@<TRIPOS>MOLECULE
*****
 30 34 0 0 0
SMALL
GASTEIGER

@<TRIPOS>ATOM
      1 C          -0.9315    2.8323   21.2202 C.ar    1  UNL1        0.2673
      2 N          -0.5652    3.6513   20.0181 N.ar    1  UNL1       -0.1056
      3 N           0.4552    2.8857   19.2290 N.ar    1  UNL1       -0.1114
      4 C           0.7196    1.5935   19.9434 C.ar    1  UNL1        0.2261
      5 O          -0.1375    1.5605   21.1740 O.2     1  UNL1       -0.4182
      6 C          -5.4510    4.0277   20.8235 C.ar    1  UNL1        0.0801
      7 C          -5.6274    4.2353   22.2985 C.ar    1  UNL1        0.0356
      8 C          -4.3157    3.9481   22.9672 C.ar    1  UNL1        0.0842
      9 C          -3.8926    3.9876   24.4057 C.ar    1  UNL1        0.0192
     10 C          -2.4824    3.6419   24.7824 C.ar    1  UNL1        0.0032
     11 C          -1.4954    3.2568   23.7206 C.ar    1  UNL1        0.0240
     12 C          -1.9185    3.2174   22.2821 C.ar    1  UNL1        0.1376
     13 N          -3.3287    3.5630   21.9054 N.ar    1  UNL1       -0.2253
     14 N          -4.0304    3.6122   20.5805 N.ar    1  UNL1       -0.1694
     15 C          -7.4162    5.3986   19.8191 C.3     1  UNL1        0.0064
     16 C          -6.5095    4.2045   19.7755 C.3     1  UNL1        0.0421
     17 C          -6.6614    3.1871   18.6838 C.3     1  UNL1        0.0064
     18 C           1.6735    0.5224   19.5043 C.3     1  UNL1        0.0810
     19 C           2.4717    0.6986   18.2466 C.3     1  UNL1        0.0266
     20 C           3.4256   -0.3726   17.8076 C.3     1  UNL1        0.0726
     21 N           3.5812   -1.6198   18.6262 N.3     1  UNL1       -0.2727
     22 C           2.7829   -1.7960   19.8838 C.3     1  UNL1        0.0726
     23 C           1.8290   -0.7249   20.3229 C.3     1  UNL1        0.0266
     24 C           4.5351   -2.6910   18.1872 C.3     1  UNL1        0.0722
     25 C           5.8648   -2.8355   18.8662 C.3     1  UNL1        0.0210
     26 C           7.0505   -2.0657   18.3649 C.3     1  UNL1        0.0335
     27 C           8.3802   -2.2102   19.0440 C.3     1  UNL1        0.1422
     28 O           8.5241   -3.1245   20.2244 O.3     1  UNL1       -0.3538
     29 C           7.3384   -3.8943   20.7257 C.3     1  UNL1        0.1422
     30 C           6.0087   -3.7498   20.0466 C.3     1  UNL1        0.0335
@<TRIPOS>BOND
     1    15    16    1
     2    16    17    1
     3    16     6    1
     4     6     7   ar
     5     7     8   ar
     6     8     9   ar
     7     9    10   ar
     8    10    11   ar
     9    11    12   ar
    10    12     1    1
    11     1     2   ar
    12     2     3   ar
    13     3     4   ar
    14     4    18    1
    15    18    19    1
    16    19    20    1
    17    20    21    1
    18    21    24    1
    19    24    25    1
    20    25    26    1
    21    26    27    1
    22    27    28    1
    23    28    29    1
    24    29    30    1
    25    21    22    1
    26    22    23    1
    27     4     5   ar
    28    12    13   ar
    29    13    14   ar
    30    14     6   ar
    31    13     8   ar
    32     5     1   ar
    33    23    18    1
    34    30    25    1
@<TRIPOS>MOLECULE
*****
 30 34 0 0 0
SMALL
GASTEIGER

@<TRIPOS>ATOM
      1 C           4.7954   -0.9473   34.4740 C.ar    1  UNL1        0.2673
      2 N           3.7376   -1.9882   34.2560 N.ar    1  UNL1       -0.1056
      3 N           4.2578   -2.9748   33.2530 N.ar    1  UNL1       -0.1114
      4 C           5.6372   -2.5437   32.8512 C.ar    1  UNL1        0.2261
      5 O           5.9694   -1.2906   33.6058 O.2     1  UNL1       -0.4182
      6 C           2.1888    2.9373   34.1151 C.ar    1  UNL1        0.0801
      7 C           2.6976    3.5160   35.4020 C.ar    1  UNL1        0.0356
      8 C           3.6808    2.5473   35.9893 C.ar    1  UNL1        0.0842
      9 C           4.4988    2.5852   37.2460 C.ar    1  UNL1        0.0192
     10 C           5.4156    1.4457   37.5787 C.ar    1  UNL1        0.0032
     11 C           5.5145    0.2682   36.6547 C.ar    1  UNL1        0.0240
     12 C           4.6965    0.2302   35.3980 C.ar    1  UNL1        0.1376
     13 N           3.7796    1.3698   35.0653 N.ar    1  UNL1       -0.2253
     14 N           2.8576    1.6108   33.9070 N.ar    1  UNL1       -0.1694
     15 C           0.5710    4.8924   33.5582 C.3     1  UNL1        0.0064
     16 C           1.1872    3.5733   33.1974 C.3     1  UNL1        0.0421
     17 C           0.8016    2.8902   31.9188 C.3     1  UNL1        0.0064
     18 C           6.5279   -3.2428   31.8675 C.3     1  UNL1        0.0810
     19 C           7.2992   -2.4470   30.8566 C.3     1  UNL1        0.0266
     20 C           8.1899   -3.1462   29.8730 C.3     1  UNL1        0.0726
     21 N           8.3094   -4.6412   29.9001 N.3     1  UNL1       -0.2727
     22 C           7.5382   -5.4370   30.9109 C.3     1  UNL1        0.0726
     23 C           6.6474   -4.7378   31.8946 C.3     1  UNL1        0.0266
     24 C           9.2002   -5.3404   28.9164 C.3     1  UNL1        0.0722
     25 C           8.6852   -6.5186   28.1439 C.3     1  UNL1        0.0210
     26 C           7.6704   -6.3178   27.0577 C.3     1  UNL1        0.0335
     27 C           7.1554   -7.4960   26.2853 C.3     1  UNL1        0.1422
     28 O           7.6553   -8.8751   26.5990 O.3     1  UNL1       -0.3538
     29 C           8.6701   -9.0759   27.6852 C.3     1  UNL1        0.1422
     30 C           9.1851   -7.8977   28.4576 C.3     1  UNL1        0.0335
@<TRIPOS>BOND
     1    15    16    1
     2    16    17    1
     3    16     6    1
     4     6     7   ar
     5     7     8   ar
     6     8     9   ar
     7     9    10   ar
     8    10    11   ar
     9    11    12   ar
    10    12     1    1
    11     1     2   ar
    12     2     3   ar
    13     3     4   ar
    14     4    18    1
    15    18    19    1
    16    19    20    1
    17    20    21    1
    18    21    24    1
    19    24    25    1
    20    25    26    1
    21    26    27    1
    22    27    28    1
    23    28    29    1
    24    29    30    1
    25    21    22    1
    26    22    23    1
    27     4     5   ar
    28    12    13   ar
    29    13    14   ar
    30    14     6   ar
    31    13     8   ar
    32     5     1   ar
    33    23    18    1
    34    30    25    1
@<TRIPOS>MOLECULE
*****
 30 34 0 0 0
SMALL
GASTEIGER

@<TRIPOS>ATOM
      1 C           1.9611    2.0183   32.5112 C.ar    1  UNL1        0.2673
      2 N           1.2232    1.3300   31.4013 N.ar    1  UNL1       -0.1056
      3 N           2.0272    0.1354   30.9811 N.ar    1  UNL1       -0.1114
      4 C           3.2620    0.0854   31.8313 C.ar    1  UNL1        0.2261
      5 O           3.2211    1.2491   32.7769 O.2     1  UNL1       -0.4182
      6 C           2.3479    3.1604   37.0453 C.ar    1  UNL1        0.0801
      7 C           1.6769    4.4903   36.8690 C.ar    1  UNL1        0.0356
      8 C           1.3099    4.6362   35.4220 C.ar    1  UNL1        0.0842
      9 C           0.6286    5.7377   34.6654 C.ar    1  UNL1        0.0192
     10 C           0.3914    5.5994   33.1908 C.ar    1  UNL1        0.0032
     11 C           0.8356    4.3596   32.4727 C.ar    1  UNL1        0.0240
     12 C           1.5169    3.2581   33.2293 C.ar    1  UNL1        0.1376
     13 N           1.7540    3.3964   34.7039 N.ar    1  UNL1       -0.2253
     14 N           2.3956    2.4843   35.7072 N.ar    1  UNL1       -0.1694
     15 C           2.5986    1.1786   38.7065 C.3     1  UNL1        0.0064
     16 C           2.8782    2.6043   38.3336 C.3     1  UNL1        0.0421
     17 C           3.6881    3.4739   39.2489 C.3     1  UNL1        0.0064
     18 C           4.3471   -0.9470   31.7501 C.3     1  UNL1        0.0810
     19 C           4.4100   -2.0504   32.7643 C.3     1  UNL1        0.0266
     20 C           5.4951   -3.0828   32.6830 C.3     1  UNL1        0.0726
     21 N           6.5174   -3.0117   31.5877 N.3     1  UNL1       -0.2727
     22 C           6.4546   -1.9084   30.5735 C.3     1  UNL1        0.0726
     23 C           5.3694   -0.8760   30.6547 C.3     1  UNL1        0.0266
     24 C           7.6026   -4.0442   31.5064 C.3     1  UNL1        0.0722
     25 C           7.6667   -4.9740   30.3311 C.3     1  UNL1        0.0210
     26 C           6.6342   -4.8845   29.2468 C.3     1  UNL1        0.0335
     27 C           6.6982   -5.8144   28.0715 C.3     1  UNL1        0.1422
     28 O           7.7948   -6.8338   27.9806 O.3     1  UNL1       -0.3538
     29 C           8.8273   -6.9234   29.0650 C.3     1  UNL1        0.1422
     30 C           8.7632   -5.9935   30.2402 C.3     1  UNL1        0.0335
@<TRIPOS>BOND
     1    15    16    1
     2    16    17    1
     3    16     6    1
     4     6     7   ar
     5     7     8   ar
     6     8     9   ar
     7     9    10   ar
     8    10    11   ar
     9    11    12   ar
    10    12     1    1
    11     1     2   ar
    12     2     3   ar
    13     3     4   ar
    14     4    18    1
    15    18    19    1
    16    19    20    1
    17    20    21    1
    18    21    24    1
    19    24    25    1
    20    25    26    1
    21    26    27    1
    22    27    28    1
    23    28    29    1
    24    29    30    1
    25    21    22    1
    26    22    23    1
    27     4     5   ar
    28    12    13   ar
    29    13    14   ar
    30    14     6   ar
    31    13     8   ar
    32     5     1   ar
    33    23    18    1
    34    30    25    1
