@<TRIPOS>MOLECULE
*****
 24 26 0 0 0
SMALL
GASTEIGER

@<TRIPOS>ATOM
      1 C          -7.5304  -16.8174   22.6417 C.3     1  UNL1        0.1234
      2 C          -6.9532  -16.2890   23.9215 C.ar    1  UNL1       -0.0022
      3 C          -7.8365  -15.5846   24.9081 C.ar    1  UNL1       -0.0026
      4 C          -7.2593  -15.0563   26.1878 C.ar    1  UNL1       -0.0003
      5 C          -5.7987  -15.2323   26.4808 C.ar    1  UNL1       -0.0000
      6 C          -4.9154  -15.9366   25.4941 C.ar    1  UNL1       -0.0003
      7 C          -5.4926  -16.4650   24.2144 C.ar    1  UNL1       -0.0024
      8 C          -4.6093  -17.1694   23.2277 C.ar    1  UNL1       -0.0003
      9 C          -4.9792  -18.5360   22.7320 C.ar    1  UNL1       -0.0000
     10 C          -4.0960  -19.2404   21.7453 C.ar    1  UNL1       -0.0000
     11 C          -2.8428  -18.5783   21.2542 C.ar    1  UNL1       -0.0000
     12 C          -2.4729  -17.2117   21.7499 C.ar    1  UNL1       -0.0000
     13 C          -3.3562  -16.5073   22.7366 C.ar    1  UNL1       -0.0000
     14 C          -9.9610  -16.7153   21.7294 C.2     1  UNL1        0.4052
     15 O          -9.5891  -15.5437   20.8698 O.2     1  UNL1       -0.2262
     16 N          -8.9316  -17.3522   22.6154 N.am    1  UNL1       -0.2421
     17 C          -9.3035  -18.5238   23.4751 C.3     1  UNL1        0.0959
     18 C          -9.0579  -19.9678   23.1518 C.3     1  UNL1        0.0384
     19 C          -9.5889  -20.7935   24.2859 C.3     1  UNL1        0.0704
     20 N         -10.1626  -19.8598   25.3102 N.3     1  UNL1       -0.2960
     21 C          -9.9862  -18.4570   24.8090 C.3     1  UNL1        0.0888
     22 H          -9.6719  -19.9749   26.1969 H       1  UNL1        0.1233
     23 C         -12.4607  -16.5100   22.4071 C.3     1  UNL1        0.2573
     24 O         -11.3621  -17.2501   21.7032 O.3     1  UNL1       -0.4304
@<TRIPOS>BOND
     1    23    24    1
     2    24    14    1
     3    14    15    2
     4    14    16   am
     5    16     1    1
     6     1     2    1
     7     2     3   ar
     8     3     4   ar
     9     4     5   ar
    10     5     6   ar
    11     6     7   ar
    12     7     8    1
    13     8     9   ar
    14     9    10   ar
    15    10    11   ar
    16    11    12   ar
    17    12    13   ar
    18    17    16    1
    19    17    18    1
    20    18    19    1
    21    19    20    1
    22    20    21    1
    23     7     2   ar
    24    13     8   ar
    25    21    17    1
    26    20    22    1
@<TRIPOS>MOLECULE
*****
 24 26 0 0 0
SMALL
GASTEIGER

@<TRIPOS>ATOM
      1 C          -7.6398  -16.7723   22.3062 C.3     1  UNL1        0.1234
      2 C          -7.4453  -16.3310   23.7266 C.ar    1  UNL1       -0.0022
      3 C          -6.1082  -15.8224   24.1776 C.ar    1  UNL1       -0.0026
      4 C          -5.9139  -15.3812   25.5980 C.ar    1  UNL1       -0.0003
      5 C          -7.0566  -15.4484   26.5673 C.ar    1  UNL1       -0.0000
      6 C          -8.3937  -15.9569   26.1163 C.ar    1  UNL1       -0.0003
      7 C          -8.5881  -16.3982   24.6959 C.ar    1  UNL1       -0.0024
      8 C          -9.9253  -16.9067   24.2448 C.ar    1  UNL1       -0.0003
      9 C         -10.6736  -16.1895   23.1606 C.ar    1  UNL1       -0.0000
     10 C         -12.0107  -16.6979   22.7095 C.ar    1  UNL1       -0.0000
     11 C         -12.5996  -17.9237   23.3426 C.ar    1  UNL1       -0.0000
     12 C         -11.8512  -18.6410   24.4268 C.ar    1  UNL1       -0.0000
     13 C         -10.5141  -18.1324   24.8779 C.ar    1  UNL1       -0.0000
     14 C          -6.3191  -18.9884   21.9981 C.2     1  UNL1        0.4052
     15 O          -5.0493  -18.2839   22.3735 O.2     1  UNL1       -0.2262
     16 N          -7.6144  -18.2326   21.9644 N.am    1  UNL1       -0.2421
     17 C          -8.8843  -18.9371   21.5890 C.3     1  UNL1        0.0959
     18 C          -9.7389  -18.6369   20.3933 C.3     1  UNL1        0.0384
     19 C         -10.9053  -19.5798   20.4087 C.3     1  UNL1        0.0704
     20 N         -10.7717  -20.4628   21.6139 N.3     1  UNL1       -0.2960
     21 C          -9.5227  -20.0656   22.3433 C.3     1  UNL1        0.0888
     22 H         -10.7072  -21.4383   21.3229 H       1  UNL1        0.1233
     23 C          -5.8711  -20.8913   20.2869 C.3     1  UNL1        0.2573
     24 O          -6.2938  -20.4487   21.6563 O.3     1  UNL1       -0.4304
@<TRIPOS>BOND
     1    23    24    1
     2    24    14    1
     3    14    15    2
     4    14    16   am
     5    16     1    1
     6     1     2    1
     7     2     3   ar
     8     3     4   ar
     9     4     5   ar
    10     5     6   ar
    11     6     7   ar
    12     7     8    1
    13     8     9   ar
    14     9    10   ar
    15    10    11   ar
    16    11    12   ar
    17    12    13   ar
    18    17    16    1
    19    17    18    1
    20    18    19    1
    21    19    20    1
    22    20    21    1
    23     7     2   ar
    24    13     8   ar
    25    21    17    1
    26    20    22    1
@<TRIPOS>MOLECULE
*****
 24 26 0 0 0
SMALL
GASTEIGER

@<TRIPOS>ATOM
      1 C          -7.4494  -16.3250   22.6129 C.3     1  UNL1        0.1234
      2 C          -7.1229  -16.0364   24.0483 C.ar    1  UNL1       -0.0022
      3 C          -8.2012  -15.5794   24.9855 C.ar    1  UNL1       -0.0026
      4 C          -7.8746  -15.2908   26.4208 C.ar    1  UNL1       -0.0003
      5 C          -6.4698  -15.4594   26.9189 C.ar    1  UNL1       -0.0000
      6 C          -5.3915  -15.9165   25.9817 C.ar    1  UNL1       -0.0003
      7 C          -5.7181  -16.2050   24.5464 C.ar    1  UNL1       -0.0024
      8 C          -4.6398  -16.6622   23.6091 C.ar    1  UNL1       -0.0003
      9 C          -4.4460  -18.1261   23.3458 C.ar    1  UNL1       -0.0000
     10 C          -3.3678  -18.5832   22.4086 C.ar    1  UNL1       -0.0000
     11 C          -2.4833  -17.5764   21.7346 C.ar    1  UNL1       -0.0000
     12 C          -2.6772  -16.1125   21.9979 C.ar    1  UNL1       -0.0000
     13 C          -3.7555  -15.6554   22.9351 C.ar    1  UNL1       -0.0000
     14 C          -7.7627  -18.4731   21.1855 C.2     1  UNL1        0.4052
     15 O          -6.4747  -18.1868   20.4720 O.2     1  UNL1       -0.2262
     16 N          -8.2501  -17.5422   22.2560 N.am    1  UNL1       -0.2421
     17 C          -9.5380  -17.8285   22.9695 C.3     1  UNL1        0.0959
     18 C          -9.7213  -18.7895   24.1066 C.3     1  UNL1        0.0384
     19 C         -11.1654  -18.7590   24.5110 C.3     1  UNL1        0.0704
     20 N         -11.8747  -17.7792   23.6238 N.3     1  UNL1       -0.2960
     21 C         -10.8689  -17.2042   22.6711 C.3     1  UNL1        0.0888
     22 H         -12.2827  -17.0338   24.1880 H       1  UNL1        0.1233
     23 C          -9.4040  -19.6973   19.5863 C.3     1  UNL1        0.2573
     24 O          -8.5633  -19.6903   20.8285 O.3     1  UNL1       -0.4304
@<TRIPOS>BOND
     1    23    24    1
     2    24    14    1
     3    14    15    2
     4    14    16   am
     5    16     1    1
     6     1     2    1
     7     2     3   ar
     8     3     4   ar
     9     4     5   ar
    10     5     6   ar
    11     6     7   ar
    12     7     8    1
    13     8     9   ar
    14     9    10   ar
    15    10    11   ar
    16    11    12   ar
    17    12    13   ar
    18    17    16    1
    19    17    18    1
    20    18    19    1
    21    19    20    1
    22    20    21    1
    23     7     2   ar
    24    13     8   ar
    25    21    17    1
    26    20    22    1
@<TRIPOS>MOLECULE
*****
 24 26 0 0 0
SMALL
GASTEIGER

@<TRIPOS>ATOM
      1 C          -7.9955  -17.1954   22.1012 C.3     1  UNL1        0.1234
      2 C          -8.5601  -18.1323   21.0746 C.ar    1  UNL1       -0.0022
      3 C         -10.0184  -18.0747   20.7282 C.ar    1  UNL1       -0.0026
      4 C         -10.5829  -19.0115   19.7017 C.ar    1  UNL1       -0.0003
      5 C          -9.6891  -20.0059   19.0217 C.ar    1  UNL1       -0.0000
      6 C          -8.2309  -20.0635   19.3682 C.ar    1  UNL1       -0.0003
      7 C          -7.6664  -19.1267   20.3947 C.ar    1  UNL1       -0.0024
      8 C          -6.2080  -19.1843   20.7412 C.ar    1  UNL1       -0.0003
      9 C          -5.1747  -18.9885   19.6717 C.ar    1  UNL1       -0.0000
     10 C          -3.7164  -19.0461   20.0181 C.ar    1  UNL1       -0.0000
     11 C          -3.2914  -19.2994   21.4342 C.ar    1  UNL1       -0.0000
     12 C          -4.3247  -19.4952   22.5038 C.ar    1  UNL1       -0.0000
     13 C          -5.7831  -19.4376   22.1572 C.ar    1  UNL1       -0.0000
     14 C          -8.0831  -16.1905   24.4954 C.2     1  UNL1        0.4052
     15 O          -7.2124  -15.0532   24.0499 O.2     1  UNL1       -0.2262
     16 N          -8.4746  -17.2617   23.5210 N.am    1  UNL1       -0.2421
     17 C          -9.3453  -18.3989   23.9666 C.3     1  UNL1        0.0959
     18 C          -9.0036  -19.8570   23.8807 C.3     1  UNL1        0.0384
     19 C         -10.1576  -20.6371   24.4372 C.3     1  UNL1        0.0704
     20 N         -11.2125  -19.6611   24.8671 N.3     1  UNL1       -0.2960
     21 C         -10.7104  -18.2779   24.5762 C.3     1  UNL1        0.0888
     22 H         -11.3906  -19.7616   25.8664 H       1  UNL1        0.1233
     23 C          -7.8609  -15.4679   26.9811 C.3     1  UNL1        0.2573
     24 O          -8.5622  -16.2567   25.9153 O.3     1  UNL1       -0.4304
@<TRIPOS>BOND
     1    23    24    1
     2    24    14    1
     3    14    15    2
     4    14    16   am
     5    16     1    1
     6     1     2    1
     7     2     3   ar
     8     3     4   ar
     9     4     5   ar
    10     5     6   ar
    11     6     7   ar
    12     7     8    1
    13     8     9   ar
    14     9    10   ar
    15    10    11   ar
    16    11    12   ar
    17    12    13   ar
    18    17    16    1
    19    17    18    1
    20    18    19    1
    21    19    20    1
    22    20    21    1
    23     7     2   ar
    24    13     8   ar
    25    21    17    1
    26    20    22    1
@<TRIPOS>MOLECULE
*****
 24 26 0 0 0
SMALL
GASTEIGER

@<TRIPOS>ATOM
      1 C          -9.3448  -18.4171   23.1914 C.3     1  UNL1        0.1234
      2 C          -8.4576  -17.3097   23.6778 C.ar    1  UNL1       -0.0022
      3 C          -8.9866  -16.2969   24.6496 C.ar    1  UNL1       -0.0026
      4 C          -8.0994  -15.1895   25.1361 C.ar    1  UNL1       -0.0003
      5 C          -6.6833  -15.0950   24.6507 C.ar    1  UNL1       -0.0000
      6 C          -6.1543  -16.1077   23.6789 C.ar    1  UNL1       -0.0003
      7 C          -7.0415  -17.2151   23.1925 C.ar    1  UNL1       -0.0024
      8 C          -6.5125  -18.2279   22.2206 C.ar    1  UNL1       -0.0003
      9 C          -7.3442  -18.6436   21.0436 C.ar    1  UNL1       -0.0000
     10 C          -6.8153  -19.6564   20.0717 C.ar    1  UNL1       -0.0000
     11 C          -5.4546  -20.2536   20.2770 C.ar    1  UNL1       -0.0000
     12 C          -4.6229  -19.8379   21.4541 C.ar    1  UNL1       -0.0000
     13 C          -5.1519  -18.8250   22.4259 C.ar    1  UNL1       -0.0000
     14 C         -11.8677  -18.4824   23.8085 C.2     1  UNL1        0.4052
     15 O         -11.5292  -19.1157   25.1254 O.2     1  UNL1       -0.2262
     16 N         -10.7755  -18.1331   22.8414 N.am    1  UNL1       -0.2421
     17 C         -11.1140  -17.4998   21.5245 C.3     1  UNL1        0.0959
     18 C         -11.3946  -16.0447   21.2921 C.3     1  UNL1        0.0384
     19 C         -11.6854  -15.8560   19.8327 C.3     1  UNL1        0.0704
     20 N         -11.5845  -17.1946   19.1632 N.3     1  UNL1       -0.2960
     21 C         -11.2314  -18.2105   20.2088 C.3     1  UNL1        0.0888
     22 H         -10.8593  -17.1693   18.4463 H       1  UNL1        0.1233
     23 C         -14.3551  -18.2506   24.5218 C.3     1  UNL1        0.2573
     24 O         -13.2984  -18.1984   23.4586 O.3     1  UNL1       -0.4304
@<TRIPOS>BOND
     1    23    24    1
     2    24    14    1
     3    14    15    2
     4    14    16   am
     5    16     1    1
     6     1     2    1
     7     2     3   ar
     8     3     4   ar
     9     4     5   ar
    10     5     6   ar
    11     6     7   ar
    12     7     8    1
    13     8     9   ar
    14     9    10   ar
    15    10    11   ar
    16    11    12   ar
    17    12    13   ar
    18    17    16    1
    19    17    18    1
    20    18    19    1
    21    19    20    1
    22    20    21    1
    23     7     2   ar
    24    13     8   ar
    25    21    17    1
    26    20    22    1
@<TRIPOS>MOLECULE
*****
 24 26 0 0 0
SMALL
GASTEIGER

@<TRIPOS>ATOM
      1 C          -8.1334  -18.9845   22.5264 C.3     1  UNL1        0.1234
      2 C          -7.7396  -17.6747   23.1425 C.ar    1  UNL1       -0.0022
      3 C          -6.2937  -17.2804   23.2059 C.ar    1  UNL1       -0.0026
      4 C          -5.9000  -15.9707   23.8220 C.ar    1  UNL1       -0.0003
      5 C          -6.9520  -15.0553   24.3745 C.ar    1  UNL1       -0.0000
      6 C          -8.3978  -15.4496   24.3111 C.ar    1  UNL1       -0.0003
      7 C          -8.7916  -16.7593   23.6951 C.ar    1  UNL1       -0.0024
      8 C         -10.2375  -17.1538   23.6316 C.ar    1  UNL1       -0.0003
      9 C         -11.1775  -16.4144   22.7262 C.ar    1  UNL1       -0.0000
     10 C         -12.6233  -16.8087   22.6627 C.ar    1  UNL1       -0.0000
     11 C         -13.1292  -17.9425   23.5046 C.ar    1  UNL1       -0.0000
     12 C         -12.1891  -18.6819   24.4100 C.ar    1  UNL1       -0.0000
     13 C         -10.7433  -18.2875   24.4735 C.ar    1  UNL1       -0.0000
     14 C          -8.9816  -19.1630   20.0772 C.2     1  UNL1        0.4052
     15 O         -10.3705  -18.8279   20.5337 O.2     1  UNL1       -0.2262
     16 N          -7.8630  -19.2414   21.0735 N.am    1  UNL1       -0.2421
     17 C          -6.4741  -19.5765   20.6170 C.3     1  UNL1        0.0959
     18 C          -5.8261  -20.9278   20.6834 C.3     1  UNL1        0.0384
     19 C          -4.4408  -20.8057   20.1213 C.3     1  UNL1        0.0704
     20 N          -4.2325  -19.3790   19.7076 N.3     1  UNL1       -0.2960
     21 C          -5.4892  -18.6194   20.0139 C.3     1  UNL1        0.0888
     22 H          -4.0357  -19.3337   18.7078 H       1  UNL1        0.1233
     23 C          -8.9471  -20.7842   18.0473 C.3     1  UNL1        0.2573
     24 O          -8.7111  -19.4199   18.6243 O.3     1  UNL1       -0.4304
@<TRIPOS>BOND
     1    23    24    1
     2    24    14    1
     3    14    15    2
     4    14    16   am
     5    16     1    1
     6     1     2    1
     7     2     3   ar
     8     3     4   ar
     9     4     5   ar
    10     5     6   ar
    11     6     7   ar
    12     7     8    1
    13     8     9   ar
    14     9    10   ar
    15    10    11   ar
    16    11    12   ar
    17    12    13   ar
    18    17    16    1
    19    17    18    1
    20    18    19    1
    21    19    20    1
    22    20    21    1
    23     7     2   ar
    24    13     8   ar
    25    21    17    1
    26    20    22    1
@<TRIPOS>MOLECULE
*****
 24 26 0 0 0
SMALL
GASTEIGER

@<TRIPOS>ATOM
      1 C          -8.2356  -19.0917   22.8005 C.3     1  UNL1        0.1234
      2 C          -9.6213  -18.6433   22.4413 C.ar    1  UNL1       -0.0022
      3 C         -10.2773  -19.1598   21.1952 C.ar    1  UNL1       -0.0026
      4 C         -11.6629  -18.7114   20.8360 C.ar    1  UNL1       -0.0003
      5 C         -12.3925  -17.7466   21.7231 C.ar    1  UNL1       -0.0000
      6 C         -11.7366  -17.2302   22.9693 C.ar    1  UNL1       -0.0003
      7 C         -10.3510  -17.6786   23.3284 C.ar    1  UNL1       -0.0024
      8 C          -9.6949  -17.1621   24.5746 C.ar    1  UNL1       -0.0003
      9 C          -9.1629  -15.7603   24.6163 C.ar    1  UNL1       -0.0000
     10 C          -8.5069  -15.2439   25.8625 C.ar    1  UNL1       -0.0000
     11 C          -8.3829  -16.1293   27.0670 C.ar    1  UNL1       -0.0000
     12 C          -8.9149  -17.5311   27.0252 C.ar    1  UNL1       -0.0000
     13 C          -9.5709  -18.0476   25.7790 C.ar    1  UNL1       -0.0000
     14 C          -6.4629  -19.0820   20.9012 C.2     1  UNL1        0.4052
     15 O          -7.0662  -20.3318   20.3318 O.2     1  UNL1       -0.2262
     16 N          -7.0476  -18.4620   22.1356 N.am    1  UNL1       -0.2421
     17 C          -6.4444  -17.2122   22.7049 C.3     1  UNL1        0.0959
     18 C          -5.2262  -17.1394   23.5772 C.3     1  UNL1        0.0384
     19 C          -4.9823  -15.6981   23.9134 C.3     1  UNL1        0.0704
     20 N          -6.0498  -14.8801   23.2489 N.3     1  UNL1       -0.2960
     21 C          -6.9534  -15.8159   22.5020 C.3     1  UNL1        0.0888
     22 H          -5.6248  -14.2178   22.5999 H       1  UNL1        0.1233
     23 C          -3.9269  -19.1024   20.3371 C.3     1  UNL1        0.2573
     24 O          -5.2749  -18.4523   20.2362 O.3     1  UNL1       -0.4304
@<TRIPOS>BOND
     1    23    24    1
     2    24    14    1
     3    14    15    2
     4    14    16   am
     5    16     1    1
     6     1     2    1
     7     2     3   ar
     8     3     4   ar
     9     4     5   ar
    10     5     6   ar
    11     6     7   ar
    12     7     8    1
    13     8     9   ar
    14     9    10   ar
    15    10    11   ar
    16    11    12   ar
    17    12    13   ar
    18    17    16    1
    19    17    18    1
    20    18    19    1
    21    19    20    1
    22    20    21    1
    23     7     2   ar
    24    13     8   ar
    25    21    17    1
    26    20    22    1
@<TRIPOS>MOLECULE
*****
 24 26 0 0 0
SMALL
GASTEIGER

@<TRIPOS>ATOM
      1 C          -7.3237  -16.1466   22.4949 C.3     1  UNL1        0.1234
      2 C          -7.0609  -15.9597   23.9599 C.ar    1  UNL1       -0.0022
      3 C          -8.1738  -15.5403   24.8740 C.ar    1  UNL1       -0.0026
      4 C          -7.9110  -15.3534   26.3389 C.ar    1  UNL1       -0.0003
      5 C          -6.5353  -15.5859   26.8897 C.ar    1  UNL1       -0.0000
      6 C          -5.4224  -16.0052   25.9756 C.ar    1  UNL1       -0.0003
      7 C          -5.6852  -16.1921   24.5107 C.ar    1  UNL1       -0.0024
      8 C          -4.5723  -16.6115   23.5966 C.ar    1  UNL1       -0.0003
      9 C          -4.2738  -18.0679   23.3974 C.ar    1  UNL1       -0.0000
     10 C          -3.1610  -18.4873   22.4833 C.ar    1  UNL1       -0.0000
     11 C          -2.3465  -17.4502   21.7683 C.ar    1  UNL1       -0.0000
     12 C          -2.6450  -15.9938   21.9675 C.ar    1  UNL1       -0.0000
     13 C          -3.7579  -15.5744   22.8816 C.ar    1  UNL1       -0.0000
     14 C          -9.5475  -17.3597   21.9176 C.2     1  UNL1        0.4052
     15 O         -10.3176  -16.1318   22.3038 O.2     1  UNL1       -0.2262
     16 N          -8.0505  -17.3671   22.0131 N.am    1  UNL1       -0.2421
     17 C          -7.2804  -18.5949   21.6268 C.3     1  UNL1        0.0959
     18 C          -7.2061  -19.8719   22.4103 C.3     1  UNL1        0.0384
     19 C          -6.3291  -20.8276   21.6569 C.3     1  UNL1        0.0704
     20 N          -5.8614  -20.1412   20.4078 N.3     1  UNL1       -0.2960
     21 C          -6.4493  -18.7614   20.3892 C.3     1  UNL1        0.0888
     22 H          -6.1747  -20.6620   19.5886 H       1  UNL1        0.1233
     23 C         -10.5601  -18.7545   19.9736 C.3     1  UNL1        0.2573
     24 O         -10.2742  -18.5802   21.4357 O.3     1  UNL1       -0.4304
@<TRIPOS>BOND
     1    23    24    1
     2    24    14    1
     3    14    15    2
     4    14    16   am
     5    16     1    1
     6     1     2    1
     7     2     3   ar
     8     3     4   ar
     9     4     5   ar
    10     5     6   ar
    11     6     7   ar
    12     7     8    1
    13     8     9   ar
    14     9    10   ar
    15    10    11   ar
    16    11    12   ar
    17    12    13   ar
    18    17    16    1
    19    17    18    1
    20    18    19    1
    21    19    20    1
    22    20    21    1
    23     7     2   ar
    24    13     8   ar
    25    21    17    1
    26    20    22    1
@<TRIPOS>MOLECULE
*****
 24 26 0 0 0
SMALL
GASTEIGER

@<TRIPOS>ATOM
      1 C          -7.4068  -16.1633   23.4014 C.3     1  UNL1        0.1234
      2 C          -7.7871  -16.2752   24.8481 C.ar    1  UNL1       -0.0022
      3 C          -7.0267  -15.5034   25.8853 C.ar    1  UNL1       -0.0026
      4 C          -7.4070  -15.6154   27.3320 C.ar    1  UNL1       -0.0003
      5 C          -8.5478  -16.4992   27.7413 C.ar    1  UNL1       -0.0000
      6 C          -9.3082  -17.2710   26.7040 C.ar    1  UNL1       -0.0003
      7 C          -8.9279  -17.1590   25.2574 C.ar    1  UNL1       -0.0024
      8 C          -9.6884  -17.9309   24.2200 C.ar    1  UNL1       -0.0003
      9 C         -10.6843  -17.2301   23.3443 C.ar    1  UNL1       -0.0000
     10 C         -11.4448  -18.0018   22.3070 C.ar    1  UNL1       -0.0000
     11 C         -11.2093  -19.4744   22.1453 C.ar    1  UNL1       -0.0000
     12 C         -10.2133  -20.1752   23.0211 C.ar    1  UNL1       -0.0000
     13 C          -9.4528  -19.4034   24.0585 C.ar    1  UNL1       -0.0000
     14 C          -4.8351  -16.3820   23.1038 C.2     1  UNL1        0.4052
     15 O          -4.6391  -15.0975   23.8532 O.2     1  UNL1       -0.2262
     16 N          -6.2190  -16.9149   22.8778 N.am    1  UNL1       -0.2421
     17 C          -6.4150  -18.1993   22.1284 C.3     1  UNL1        0.0959
     18 C          -7.4914  -18.4772   21.1213 C.3     1  UNL1        0.0384
     19 C          -7.3106  -19.8810   20.6249 C.3     1  UNL1        0.0704
     20 N          -6.1224  -20.4709   21.3252 N.3     1  UNL1       -0.2960
     21 C          -5.5689  -19.4315   22.2543 C.3     1  UNL1        0.0888
     22 H          -5.4139  -20.7361   20.6410 H       1  UNL1        0.1233
     23 C          -2.4530  -16.3853   22.0666 C.3     1  UNL1        0.2573
     24 O          -3.6473  -17.1336   22.5802 O.3     1  UNL1       -0.4304
@<TRIPOS>BOND
     1    23    24    1
     2    24    14    1
     3    14    15    2
     4    14    16   am
     5    16     1    1
     6     1     2    1
     7     2     3   ar
     8     3     4   ar
     9     4     5   ar
    10     5     6   ar
    11     6     7   ar
    12     7     8    1
    13     8     9   ar
    14     9    10   ar
    15    10    11   ar
    16    11    12   ar
    17    12    13   ar
    18    17    16    1
    19    17    18    1
    20    18    19    1
    21    19    20    1
    22    20    21    1
    23     7     2   ar
    24    13     8   ar
    25    21    17    1
    26    20    22    1
