@<TRIPOS>MOLECULE
*****
 27 30 0 0 0
SMALL
GASTEIGER

@<TRIPOS>ATOM
      1 C          -8.1313  -18.5480   21.5708 C.ar    1  UNL1        0.1215
      2 N          -9.3493  -19.3814   21.3023 N.ar    1  UNL1       -0.2309
      3 C         -10.5580  -18.5497   21.6142 C.ar    1  UNL1        0.0983
      4 C         -12.0266  -18.8451   21.5378 C.ar    1  UNL1        0.0206
      5 C         -13.0243  -17.7932   21.9227 C.ar    1  UNL1        0.0016
      6 C         -12.5533  -16.4459   22.3840 C.ar    1  UNL1        0.0016
      7 C         -11.0847  -16.1504   22.4604 C.ar    1  UNL1        0.0188
      8 C         -10.0871  -17.2023   22.0755 C.ar    1  UNL1        0.0789
      9 N          -8.5873  -17.2013   22.0486 N.ar    1  UNL1       -0.3106
     10 N          -4.1941  -18.7724   22.0157 N.3     1  UNL1       -0.2702
     11 C          -3.8596  -19.8582   21.0364 C.3     1  UNL1        0.0722
     12 C          -4.9489  -20.5073   20.2353 C.3     1  UNL1        0.0178
     13 C          -6.3729  -20.0706   20.4134 C.3     1  UNL1        0.0103
     14 C          -6.7074  -18.9848   21.3927 C.3     1  UNL1        0.0729
     15 C          -5.6180  -18.3356   22.1938 C.3     1  UNL1        0.0796
     16 C          -3.1047  -18.1232   22.8169 C.3     1  UNL1        0.1042
     17 O          -2.9100  -15.6810   21.9521 O.3     1  UNL1       -0.3805
     18 C          -2.2865  -17.0198   22.2144 C.3     1  UNL1        0.1544
     19 H          -2.2489  -15.0869   21.5638 H       1  UNL1        0.2105
     20 C          -7.6994  -16.0548   22.4323 C.3     1  UNL1        0.1339
     21 C          -7.3964  -15.7918   23.8775 C.ar    1  UNL1        0.0006
     22 C          -5.9916  -15.4865   24.3059 C.ar    1  UNL1       -0.0001
     23 C          -5.6886  -15.2234   25.7512 C.ar    1  UNL1        0.0294
     24 C          -6.7904  -15.2657   26.7683 C.ar    1  UNL1        0.1401
     25 F          -6.4873  -15.0026   28.2136 F       1  UNL1       -0.2042
     26 C          -8.1951  -15.5709   26.3399 C.ar    1  UNL1        0.0294
     27 C          -8.4982  -15.8340   24.8946 C.ar    1  UNL1       -0.0001
@<TRIPOS>BOND
     1    17    18    1
     2    18    16    1
     3    16    10    1
     4    10    11    1
     5    11    12    1
     6    12    13    1
     7    13    14    1
     8    14     1    1
     9     1     2   ar
    10     2     3   ar
    11     3     4   ar
    12     4     5   ar
    13     5     6   ar
    14     6     7   ar
    15     7     8   ar
    16     8     9   ar
    17     9    20    1
    18    20    21    1
    19    21    22   ar
    20    22    23   ar
    21    23    24   ar
    22    24    25    1
    23    24    26   ar
    24    26    27   ar
    25    14    15    1
    26    15    10    1
    27     9     1   ar
    28    27    21   ar
    29     8     3   ar
    30    17    19    1
@<TRIPOS>MOLECULE
*****
 27 30 0 0 0
SMALL
GASTEIGER

@<TRIPOS>ATOM
      1 C          -7.6128  -18.3232   21.5109 C.ar    1  UNL1        0.1215
      2 N          -8.6825  -19.2852   21.0862 N.ar    1  UNL1       -0.2309
      3 C         -10.0099  -18.6084   21.2590 C.ar    1  UNL1        0.0983
      4 C         -11.4134  -19.0707   21.0010 C.ar    1  UNL1        0.0206
      5 C         -12.5676  -18.1526   21.2745 C.ar    1  UNL1        0.0016
      6 C         -12.3183  -16.7722   21.8061 C.ar    1  UNL1        0.0016
      7 C         -10.9149  -16.3100   22.0640 C.ar    1  UNL1        0.0188
      8 C          -9.7607  -17.2281   21.7905 C.ar    1  UNL1        0.0789
      9 N          -8.2792  -17.0518   21.9462 N.ar    1  UNL1       -0.3106
     10 N          -3.8979  -18.8071   20.2014 N.3     1  UNL1       -0.2702
     11 C          -3.1827  -19.1128   21.4840 C.3     1  UNL1        0.0722
     12 C          -3.9443  -19.1552   22.7755 C.3     1  UNL1        0.0178
     13 C          -5.4210  -18.8920   22.7845 C.3     1  UNL1        0.0103
     14 C          -6.1361  -18.5864   21.5019 C.3     1  UNL1        0.0729
     15 C          -5.3746  -18.5439   20.2104 C.3     1  UNL1        0.0796
     16 C          -3.1363  -18.7646   18.9097 C.3     1  UNL1        0.1042
     17 O          -0.7432  -17.8737   18.4310 O.3     1  UNL1       -0.3805
     18 C          -2.2092  -17.6209   18.6229 C.3     1  UNL1        0.1544
     19 H          -0.2906  -17.0339   18.2553 H       1  UNL1        0.2105
     20 C          -7.5859  -15.8203   22.4489 C.3     1  UNL1        0.1339
     21 C          -7.3109  -15.6599   23.9147 C.ar    1  UNL1        0.0006
     22 C          -8.4464  -15.6573   24.8949 C.ar    1  UNL1       -0.0001
     23 C          -8.1715  -15.4969   26.3608 C.ar    1  UNL1        0.0294
     24 C          -6.7610  -15.3391   26.8464 C.ar    1  UNL1        0.1401
     25 F          -6.4861  -15.1787   28.3123 F       1  UNL1       -0.2042
     26 C          -5.6256  -15.3418   25.8662 C.ar    1  UNL1        0.0294
     27 C          -5.9005  -15.5022   24.4004 C.ar    1  UNL1       -0.0001
@<TRIPOS>BOND
     1    17    18    1
     2    18    16    1
     3    16    10    1
     4    10    11    1
     5    11    12    1
     6    12    13    1
     7    13    14    1
     8    14     1    1
     9     1     2   ar
    10     2     3   ar
    11     3     4   ar
    12     4     5   ar
    13     5     6   ar
    14     6     7   ar
    15     7     8   ar
    16     8     9   ar
    17     9    20    1
    18    20    21    1
    19    21    22   ar
    20    22    23   ar
    21    23    24   ar
    22    24    25    1
    23    24    26   ar
    24    26    27   ar
    25    14    15    1
    26    15    10    1
    27     9     1   ar
    28    27    21   ar
    29     8     3   ar
    30    17    19    1
@<TRIPOS>MOLECULE
*****
 27 30 0 0 0
SMALL
GASTEIGER

@<TRIPOS>ATOM
      1 C          -6.9101  -18.2029   22.5715 C.ar    1  UNL1        0.1215
      2 N          -6.2730  -19.4505   22.0353 N.ar    1  UNL1       -0.2309
      3 C          -4.7876  -19.2418   22.0180 C.ar    1  UNL1        0.0983
      4 C          -3.6546  -20.1274   21.5916 C.ar    1  UNL1        0.0206
      5 C          -2.2407  -19.6365   21.6908 C.ar    1  UNL1        0.0016
      6 C          -1.9599  -18.2599   22.2163 C.ar    1  UNL1        0.0016
      7 C          -3.0929  -17.3743   22.6427 C.ar    1  UNL1        0.0188
      8 C          -4.5068  -17.8652   22.5435 C.ar    1  UNL1        0.0789
      9 N          -5.8186  -17.2232   22.8856 N.ar    1  UNL1       -0.3106
     10 N         -10.5819  -16.7872   22.0581 N.3     1  UNL1       -0.2702
     11 C         -11.3216  -17.5193   23.1383 C.3     1  UNL1        0.0722
     12 C         -10.5908  -18.4792   24.0296 C.3     1  UNL1        0.0178
     13 C          -9.1203  -18.7071   23.8406 C.3     1  UNL1        0.0103
     14 C          -8.3806  -17.9750   22.7605 C.3     1  UNL1        0.0729
     15 C          -9.1114  -17.0151   21.8692 C.3     1  UNL1        0.0796
     16 C         -11.3127  -15.8272   21.1668 C.3     1  UNL1        0.1042
     17 O         -12.4975  -15.4198   18.8908 O.3     1  UNL1       -0.3805
     18 C         -11.4453  -16.1171   19.7011 C.3     1  UNL1        0.1544
     19 H         -12.4473  -15.7191   17.9695 H       1  UNL1        0.2105
     20 C          -6.0059  -15.8435   23.4438 C.3     1  UNL1        0.1339
     21 C          -6.7639  -15.6486   24.7233 C.ar    1  UNL1        0.0006
     22 C          -6.0577  -15.7773   26.0405 C.ar    1  UNL1       -0.0001
     23 C          -6.8157  -15.5824   27.3201 C.ar    1  UNL1        0.0294
     24 C          -8.2799  -15.2588   27.2826 C.ar    1  UNL1        0.1401
     25 F          -9.0379  -15.0639   28.5622 F       1  UNL1       -0.2042
     26 C          -8.9861  -15.1302   25.9655 C.ar    1  UNL1        0.0294
     27 C          -8.2281  -15.3251   24.6859 C.ar    1  UNL1       -0.0001
@<TRIPOS>BOND
     1    17    18    1
     2    18    16    1
     3    16    10    1
     4    10    11    1
     5    11    12    1
     6    12    13    1
     7    13    14    1
     8    14     1    1
     9     1     2   ar
    10     2     3   ar
    11     3     4   ar
    12     4     5   ar
    13     5     6   ar
    14     6     7   ar
    15     7     8   ar
    16     8     9   ar
    17     9    20    1
    18    20    21    1
    19    21    22   ar
    20    22    23   ar
    21    23    24   ar
    22    24    25    1
    23    24    26   ar
    24    26    27   ar
    25    14    15    1
    26    15    10    1
    27     9     1   ar
    28    27    21   ar
    29     8     3   ar
    30    17    19    1
@<TRIPOS>MOLECULE
*****
 27 30 0 0 0
SMALL
GASTEIGER

@<TRIPOS>ATOM
      1 C          -4.3927  -16.7976   23.0869 C.ar    1  UNL1        0.1215
      2 N          -3.2395  -15.9621   22.6159 N.ar    1  UNL1       -0.2309
      3 C          -2.4347  -16.7835   21.6527 C.ar    1  UNL1        0.0983
      4 C          -1.1895  -16.4818   20.8727 C.ar    1  UNL1        0.0206
      5 C          -0.6002  -17.5235   19.9686 C.ar    1  UNL1        0.0016
      6 C          -1.2560  -18.8668   19.8443 C.ar    1  UNL1        0.0016
      7 C          -2.5012  -19.1684   20.6243 C.ar    1  UNL1        0.0188
      8 C          -3.0906  -18.1268   21.5285 C.ar    1  UNL1        0.0789
      9 N          -4.3006  -18.1355   22.4149 N.ar    1  UNL1       -0.3106
     10 N          -7.9521  -15.9345   24.6152 N.3     1  UNL1       -0.2702
     11 C          -7.5703  -15.5159   26.0040 C.3     1  UNL1        0.0722
     12 C          -6.1294  -15.5245   26.4205 C.3     1  UNL1        0.0178
     13 C          -5.0702  -15.9517   25.4482 C.3     1  UNL1        0.0103
     14 C          -5.4519  -16.3704   24.0593 C.3     1  UNL1        0.0729
     15 C          -6.8928  -16.3618   23.6428 C.3     1  UNL1        0.0796
     16 C          -9.3931  -15.9259   24.1986 C.3     1  UNL1        0.1042
     17 O          -9.7292  -15.5085   21.6565 O.3     1  UNL1       -0.3805
     18 C          -9.7841  -16.4279   22.8403 C.3     1  UNL1        0.1544
     19 H         -10.0120  -15.9874   20.8617 H       1  UNL1        0.2105
     20 C          -5.2517  -19.2810   22.5972 C.3     1  UNL1        0.1339
     21 C          -6.4896  -19.3695   21.7549 C.ar    1  UNL1        0.0006
     22 C          -7.8284  -19.5535   22.4061 C.ar    1  UNL1       -0.0001
     23 C          -9.0664  -19.6419   21.5638 C.ar    1  UNL1        0.0294
     24 C          -8.9657  -19.5463   20.0702 C.ar    1  UNL1        0.1401
     25 F         -10.2037  -19.6348   19.2279 F       1  UNL1       -0.2042
     26 C          -7.6270  -19.3623   19.4190 C.ar    1  UNL1        0.0294
     27 C          -6.3890  -19.2739   20.2613 C.ar    1  UNL1       -0.0001
@<TRIPOS>BOND
     1    17    18    1
     2    18    16    1
     3    16    10    1
     4    10    11    1
     5    11    12    1
     6    12    13    1
     7    13    14    1
     8    14     1    1
     9     1     2   ar
    10     2     3   ar
    11     3     4   ar
    12     4     5   ar
    13     5     6   ar
    14     6     7   ar
    15     7     8   ar
    16     8     9   ar
    17     9    20    1
    18    20    21    1
    19    21    22   ar
    20    22    23   ar
    21    23    24   ar
    22    24    25    1
    23    24    26   ar
    24    26    27   ar
    25    14    15    1
    26    15    10    1
    27     9     1   ar
    28    27    21   ar
    29     8     3   ar
    30    17    19    1
@<TRIPOS>MOLECULE
*****
 27 30 0 0 0
SMALL
GASTEIGER

@<TRIPOS>ATOM
      1 C          -8.7344  -18.7435   21.4851 C.ar    1  UNL1        0.1215
      2 N          -8.2699  -20.0683   20.9568 N.ar    1  UNL1       -0.2309
      3 C          -6.7812  -20.0027   20.7851 C.ar    1  UNL1        0.0983
      4 C          -5.7817  -21.0099   20.2989 C.ar    1  UNL1        0.0206
      5 C          -4.3265  -20.6517   20.2350 C.ar    1  UNL1        0.0016
      6 C          -3.8709  -19.2864   20.6573 C.ar    1  UNL1        0.0016
      7 C          -4.8704  -18.2793   21.1435 C.ar    1  UNL1        0.0188
      8 C          -6.3256  -18.6374   21.2075 C.ar    1  UNL1        0.0789
      9 N          -7.5328  -17.8592   21.6401 N.ar    1  UNL1       -0.3106
     10 N         -12.1411  -18.3020   23.4724 N.3     1  UNL1       -0.2702
     11 C         -12.9863  -17.6194   22.4381 C.3     1  UNL1        0.0722
     12 C         -12.4141  -17.3115   21.0862 C.3     1  UNL1        0.0178
     13 C         -10.9968  -17.6862   20.7685 C.3     1  UNL1        0.0103
     14 C         -10.1517  -18.3688   21.8028 C.3     1  UNL1        0.0729
     15 C         -10.7239  -18.6767   23.1547 C.3     1  UNL1        0.0796
     16 C         -12.7133  -18.6099   24.8244 C.3     1  UNL1        0.1042
     17 O         -14.7558  -18.7522   26.4238 O.3     1  UNL1       -0.3805
     18 C         -14.1868  -18.4665   25.0656 C.3     1  UNL1        0.1544
     19 H         -15.7155  -18.6122   26.4082 H       1  UNL1        0.2105
     20 C          -7.5374  -16.4449   22.1399 C.3     1  UNL1        0.1339
     21 C          -7.2954  -16.1621   23.5929 C.ar    1  UNL1        0.0006
     22 C          -8.4345  -16.2157   24.5673 C.ar    1  UNL1       -0.0001
     23 C          -8.1926  -15.9329   26.0204 C.ar    1  UNL1        0.0294
     24 C          -6.8113  -15.5965   26.4991 C.ar    1  UNL1        0.1401
     25 F          -6.5694  -15.3136   27.9522 F       1  UNL1       -0.2042
     26 C          -5.6722  -15.5429   25.5247 C.ar    1  UNL1        0.0294
     27 C          -5.9142  -15.8257   24.0716 C.ar    1  UNL1       -0.0001
@<TRIPOS>BOND
     1    17    18    1
     2    18    16    1
     3    16    10    1
     4    10    11    1
     5    11    12    1
     6    12    13    1
     7    13    14    1
     8    14     1    1
     9     1     2   ar
    10     2     3   ar
    11     3     4   ar
    12     4     5   ar
    13     5     6   ar
    14     6     7   ar
    15     7     8   ar
    16     8     9   ar
    17     9    20    1
    18    20    21    1
    19    21    22   ar
    20    22    23   ar
    21    23    24   ar
    22    24    25    1
    23    24    26   ar
    24    26    27   ar
    25    14    15    1
    26    15    10    1
    27     9     1   ar
    28    27    21   ar
    29     8     3   ar
    30    17    19    1
@<TRIPOS>MOLECULE
*****
 27 30 0 0 0
SMALL
GASTEIGER

@<TRIPOS>ATOM
      1 C          -7.2305  -18.8989   21.8614 C.ar    1  UNL1        0.1215
      2 N          -6.2326  -19.9709   21.5373 N.ar    1  UNL1       -0.2309
      3 C          -4.8652  -19.4427   21.8554 C.ar    1  UNL1        0.0983
      4 C          -3.5006  -20.0544   21.7382 C.ar    1  UNL1        0.0206
      5 C          -2.2889  -19.2677   22.1417 C.ar    1  UNL1        0.0016
      6 C          -2.4417  -17.8693   22.6624 C.ar    1  UNL1        0.0016
      7 C          -3.8063  -17.2576   22.7796 C.ar    1  UNL1        0.0188
      8 C          -5.0180  -18.0443   22.3761 C.ar    1  UNL1        0.0789
      9 N          -6.4799  -17.7083   22.3798 N.ar    1  UNL1       -0.3106
     10 N         -11.1095  -18.8356   22.6980 N.3     1  UNL1       -0.2702
     11 C         -11.6929  -19.2020   21.3655 C.3     1  UNL1        0.0722
     12 C         -10.7888  -19.4674   20.1984 C.3     1  UNL1        0.0178
     13 C          -9.3014  -19.3664   20.3637 C.3     1  UNL1        0.0103
     14 C          -8.7180  -19.0000   21.6961 C.3     1  UNL1        0.0729
     15 C          -9.6220  -18.7346   22.8632 C.3     1  UNL1        0.0796
     16 C         -12.0135  -18.5702   23.8652 C.3     1  UNL1        0.1042
     17 O         -14.4514  -18.1269   24.6463 O.3     1  UNL1       -0.3805
     18 C         -13.3510  -17.9270   23.6469 C.3     1  UNL1        0.1544
     19 H         -15.2428  -17.6469   24.3562 H       1  UNL1        0.2105
     20 C          -7.0848  -16.4095   22.8240 C.3     1  UNL1        0.1339
     21 C          -6.9809  -15.9856   24.2590 C.ar    1  UNL1        0.0006
     22 C          -5.6845  -15.4502   24.7909 C.ar    1  UNL1       -0.0001
     23 C          -5.5805  -15.0262   26.2260 C.ar    1  UNL1        0.0294
     24 C          -6.7730  -15.1377   27.1292 C.ar    1  UNL1        0.1401
     25 F          -6.6690  -14.7137   28.5643 F       1  UNL1       -0.2042
     26 C          -8.0693  -15.6730   26.5973 C.ar    1  UNL1        0.0294
     27 C          -8.1733  -16.0970   25.1622 C.ar    1  UNL1       -0.0001
@<TRIPOS>BOND
     1    17    18    1
     2    18    16    1
     3    16    10    1
     4    10    11    1
     5    11    12    1
     6    12    13    1
     7    13    14    1
     8    14     1    1
     9     1     2   ar
    10     2     3   ar
    11     3     4   ar
    12     4     5   ar
    13     5     6   ar
    14     6     7   ar
    15     7     8   ar
    16     8     9   ar
    17     9    20    1
    18    20    21    1
    19    21    22   ar
    20    22    23   ar
    21    23    24   ar
    22    24    25    1
    23    24    26   ar
    24    26    27   ar
    25    14    15    1
    26    15    10    1
    27     9     1   ar
    28    27    21   ar
    29     8     3   ar
    30    17    19    1
@<TRIPOS>MOLECULE
*****
 27 30 0 0 0
SMALL
GASTEIGER

@<TRIPOS>ATOM
      1 C          -9.0425  -17.2566   23.9605 C.ar    1  UNL1        0.1215
      2 N          -9.4603  -16.9842   25.3751 N.ar    1  UNL1       -0.2309
      3 C          -8.3452  -16.2455   26.0539 C.ar    1  UNL1        0.0983
      4 C          -8.1948  -15.7167   27.4495 C.ar    1  UNL1        0.0206
      5 C          -6.9373  -15.0038   27.8499 C.ar    1  UNL1        0.0016
      6 C          -5.8302  -14.8195   26.8547 C.ar    1  UNL1        0.0016
      7 C          -5.9806  -15.3483   25.4591 C.ar    1  UNL1        0.0188
      8 C          -7.2381  -16.0612   25.0587 C.ar    1  UNL1        0.0789
      9 N          -7.6690  -16.6862   23.7650 N.ar    1  UNL1       -0.3106
     10 N         -11.1715  -17.9491   20.6837 N.3     1  UNL1       -0.2702
     11 C         -11.4810  -19.4074   20.8496 C.3     1  UNL1        0.0722
     12 C         -10.9776  -20.1487   22.0525 C.3     1  UNL1        0.0178
     13 C         -10.1648  -19.4318   23.0894 C.3     1  UNL1        0.0103
     14 C          -9.8553  -17.9735   22.9235 C.3     1  UNL1        0.0729
     15 C         -10.3586  -17.2322   21.7207 C.3     1  UNL1        0.0796
     16 C         -11.6749  -17.2076   19.4808 C.3     1  UNL1        0.1042
     17 O         -10.7262  -14.9146   18.7113 O.3     1  UNL1       -0.3805
     18 C         -11.7305  -15.7087   19.4927 C.3     1  UNL1        0.1544
     19 H         -10.9024  -13.9677   18.8264 H       1  UNL1        0.2105
     20 C          -6.8673  -16.7325   22.4980 C.3     1  UNL1        0.1339
     21 C          -6.5168  -18.0535   21.8801 C.ar    1  UNL1        0.0006
     22 C          -5.3156  -18.8119   22.3621 C.ar    1  UNL1       -0.0001
     23 C          -4.9650  -20.1329   21.7442 C.ar    1  UNL1        0.0294
     24 C          -5.8156  -20.6957   20.6442 C.ar    1  UNL1        0.1401
     25 F          -5.4651  -22.0168   20.0263 F       1  UNL1       -0.2042
     26 C          -7.0167  -19.9374   20.1623 C.ar    1  UNL1        0.0294
     27 C          -7.3673  -18.6163   20.7802 C.ar    1  UNL1       -0.0001
@<TRIPOS>BOND
     1    17    18    1
     2    18    16    1
     3    16    10    1
     4    10    11    1
     5    11    12    1
     6    12    13    1
     7    13    14    1
     8    14     1    1
     9     1     2   ar
    10     2     3   ar
    11     3     4   ar
    12     4     5   ar
    13     5     6   ar
    14     6     7   ar
    15     7     8   ar
    16     8     9   ar
    17     9    20    1
    18    20    21    1
    19    21    22   ar
    20    22    23   ar
    21    23    24   ar
    22    24    25    1
    23    24    26   ar
    24    26    27   ar
    25    14    15    1
    26    15    10    1
    27     9     1   ar
    28    27    21   ar
    29     8     3   ar
    30    17    19    1
@<TRIPOS>MOLECULE
*****
 27 30 0 0 0
SMALL
GASTEIGER

@<TRIPOS>ATOM
      1 C          -8.3334  -18.6051   21.2682 C.ar    1  UNL1        0.1215
      2 N          -9.3531  -18.6581   20.1694 N.ar    1  UNL1       -0.2309
      3 C          -9.0102  -19.8117   19.2740 C.ar    1  UNL1        0.0983
      4 C          -9.6603  -20.3464   18.0325 C.ar    1  UNL1        0.0206
      5 C          -9.0788  -21.5411   17.3365 C.ar    1  UNL1        0.0016
      6 C          -7.8471  -22.2011   17.8820 C.ar    1  UNL1        0.0016
      7 C          -7.1970  -21.6664   19.1235 C.ar    1  UNL1        0.0188
      8 C          -7.7785  -20.4717   19.8195 C.ar    1  UNL1        0.0789
      9 N          -7.3603  -19.7260   21.0520 N.ar    1  UNL1       -0.3106
     10 N          -6.9524  -15.9768   23.9017 N.3     1  UNL1       -0.2702
     11 C          -8.2145  -15.6096   24.6242 C.3     1  UNL1        0.0722
     12 C          -9.5163  -16.2409   24.2281 C.3     1  UNL1        0.0178
     13 C          -9.5559  -17.2394   23.1095 C.3     1  UNL1        0.0103
     14 C          -8.2938  -17.6066   22.3869 C.3     1  UNL1        0.0729
     15 C          -6.9920  -16.9753   22.7830 C.3     1  UNL1        0.0796
     16 C          -5.6506  -15.3455   24.2977 C.3     1  UNL1        0.1042
     17 O          -5.8134  -14.2521   26.6489 O.3     1  UNL1       -0.3805
     18 C          -5.2462  -15.3033   25.7416 C.3     1  UNL1        0.1544
     19 H          -5.4513  -14.3658   27.5415 H       1  UNL1        0.2105
     20 C          -6.1767  -20.0451   21.9164 C.3     1  UNL1        0.1339
     21 C          -4.8151  -19.5412   21.5396 C.ar    1  UNL1        0.0006
     22 C          -3.9030  -18.9856   22.5930 C.ar    1  UNL1       -0.0001
     23 C          -2.5413  -18.4816   22.2162 C.ar    1  UNL1        0.0294
     24 C          -2.0917  -18.5334   20.7861 C.ar    1  UNL1        0.1401
     25 F          -0.7301  -18.0295   20.4094 F       1  UNL1       -0.2042
     26 C          -3.0038  -19.0890   19.7328 C.ar    1  UNL1        0.0294
     27 C          -4.3654  -19.5929   20.1095 C.ar    1  UNL1       -0.0001
@<TRIPOS>BOND
     1    17    18    1
     2    18    16    1
     3    16    10    1
     4    10    11    1
     5    11    12    1
     6    12    13    1
     7    13    14    1
     8    14     1    1
     9     1     2   ar
    10     2     3   ar
    11     3     4   ar
    12     4     5   ar
    13     5     6   ar
    14     6     7   ar
    15     7     8   ar
    16     8     9   ar
    17     9    20    1
    18    20    21    1
    19    21    22   ar
    20    22    23   ar
    21    23    24   ar
    22    24    25    1
    23    24    26   ar
    24    26    27   ar
    25    14    15    1
    26    15    10    1
    27     9     1   ar
    28    27    21   ar
    29     8     3   ar
    30    17    19    1
@<TRIPOS>MOLECULE
*****
 27 30 0 0 0
SMALL
GASTEIGER

@<TRIPOS>ATOM
      1 C          -7.9207  -16.9731   22.6802 C.ar    1  UNL1        0.1215
      2 N          -9.1285  -16.2840   22.1177 N.ar    1  UNL1       -0.2309
      3 C          -9.7912  -17.2232   21.1540 C.ar    1  UNL1        0.0983
      4 C         -11.0184  -17.0863   20.3024 C.ar    1  UNL1        0.0206
      5 C         -11.4473  -18.2190   19.4176 C.ar    1  UNL1        0.0016
      6 C         -10.6492  -19.4886   19.3844 C.ar    1  UNL1        0.0016
      7 C          -9.4220  -19.6254   20.2361 C.ar    1  UNL1        0.0188
      8 C          -8.9931  -18.4927   21.1209 C.ar    1  UNL1        0.0789
      9 N          -7.8370  -18.3382   22.0641 N.ar    1  UNL1       -0.3106
     10 N          -6.5057  -15.3863   26.0313 N.3     1  UNL1       -0.2702
     11 C          -5.0522  -15.2481   25.6879 C.3     1  UNL1        0.0722
     12 C          -4.5548  -15.6849   24.3419 C.3     1  UNL1        0.0178
     13 C          -5.5110  -16.2599   23.3393 C.3     1  UNL1        0.0103
     14 C          -6.9645  -16.3981   23.6828 C.3     1  UNL1        0.0729
     15 C          -7.4619  -15.9613   25.0288 C.3     1  UNL1        0.0796
     16 C          -7.0032  -14.9495   27.3774 C.3     1  UNL1        0.1042
     17 O          -8.8450  -16.6924   27.9430 O.3     1  UNL1       -0.3805
     18 C          -8.4086  -15.2649   27.7961 C.3     1  UNL1        0.1544
     19 H          -9.7749  -16.7196   28.2177 H       1  UNL1        0.2105
     20 C          -6.7824  -19.3679   22.3424 C.3     1  UNL1        0.1339
     21 C          -5.4419  -19.2673   21.6772 C.ar    1  UNL1        0.0006
     22 C          -4.1890  -19.3544   22.4975 C.ar    1  UNL1       -0.0001
     23 C          -2.8484  -19.2538   21.8324 C.ar    1  UNL1        0.0294
     24 C          -2.7605  -19.0661   20.3467 C.ar    1  UNL1        0.1401
     25 F          -1.4198  -18.9656   19.6815 F       1  UNL1       -0.2042
     26 C          -4.0132  -18.9791   19.5264 C.ar    1  UNL1        0.0294
     27 C          -5.3539  -19.0797   20.1915 C.ar    1  UNL1       -0.0001
@<TRIPOS>BOND
     1    17    18    1
     2    18    16    1
     3    16    10    1
     4    10    11    1
     5    11    12    1
     6    12    13    1
     7    13    14    1
     8    14     1    1
     9     1     2   ar
    10     2     3   ar
    11     3     4   ar
    12     4     5   ar
    13     5     6   ar
    14     6     7   ar
    15     7     8   ar
    16     8     9   ar
    17     9    20    1
    18    20    21    1
    19    21    22   ar
    20    22    23   ar
    21    23    24   ar
    22    24    25    1
    23    24    26   ar
    24    26    27   ar
    25    14    15    1
    26    15    10    1
    27     9     1   ar
    28    27    21   ar
    29     8     3   ar
    30    17    19    1
