@<TRIPOS>MOLECULE
*****
 31 35 0 0 0
SMALL
GASTEIGER

@<TRIPOS>ATOM
      1 C           6.8393   -4.2618   22.7932 C.ar    1  UNL1        0.1383
      2 C           7.6751   -5.0204   23.7812 C.ar    1  UNL1        0.0400
      3 C           7.5722   -4.7103   25.2451 C.ar    1  UNL1        0.0397
      4 C           6.6335   -3.6415   25.7212 C.ar    1  UNL1        0.1344
      5 C           5.7977   -2.8829   24.7333 C.ar    1  UNL1        0.0149
      6 C           5.9006   -3.1931   23.2693 C.ar    1  UNL1        0.0356
      7 C           4.8591   -1.8142   25.2093 C.3     1  UNL1        0.0331
      8 C           4.7562   -1.5039   26.6733 C.3     1  UNL1        0.0449
      9 C           5.5920   -2.2625   27.6612 C.3     1  UNL1        0.1361
     10 C           4.6533   -1.1938   28.1373 C.3     1  UNL1        0.0574
     11 C           4.5504   -0.8836   29.6012 C.3     1  UNL1        0.0756
     12 N           5.3862   -1.6422   30.5891 N.3     1  UNL1       -0.2737
     13 C           6.3249   -2.7109   30.1131 C.3     1  UNL1        0.0756
     14 C           6.4278   -3.0211   28.6492 C.3     1  UNL1        0.0574
     15 O           6.5307   -3.3313   27.1851 O.3     1  UNL1       -0.4828
     16 C           5.2833   -1.3320   32.0531 C.3     1  UNL1        0.0575
     17 C           4.6233   -1.9841   33.2317 C.3     1  UNL1        0.0160
     18 C           5.1379   -0.8932   34.1235 C.3     1  UNL1        0.0028
     19 C           5.7979   -0.2411   32.9449 C.3     1  UNL1        0.0160
     20 O           6.9422   -4.5720   21.3293 O.3     1  UNL1       -0.4791
     21 C           5.0319   -0.5819   17.2759 C.2     1  UNL1        0.2251
     22 O           3.9258   -0.9447   16.3299 O.2     1  UNL1       -0.2749
     23 N           5.5095   -1.5794   18.2893 N.am    1  UNL1       -0.2793
     24 C           6.6156   -1.2167   19.2352 C.3     1  UNL1        0.0971
     25 C           7.0931   -2.2142   20.2486 C.3     1  UNL1        0.0650
     26 C           6.4646   -3.5745   20.3159 C.3     1  UNL1        0.1693
     27 C           5.3585   -3.9372   19.3699 C.3     1  UNL1        0.0650
     28 C           4.8810   -2.9397   18.3566 C.3     1  UNL1        0.0971
     29 C           5.0867    1.9102   18.0083 C.3     1  UNL1        0.0096
     30 C           5.6605    0.7784   17.2085 C.3     1  UNL1        0.0767
     31 C           6.8629    1.0069   16.3413 C.3     1  UNL1        0.0096
@<TRIPOS>BOND
     1    29    30    1
     2    30    31    1
     3    30    21    1
     4    21    22    2
     5    21    23   am
     6    23    24    1
     7    24    25    1
     8    25    26    1
     9    26    20    1
    10    20     1    1
    11     1     2   ar
    12     2     3   ar
    13     3     4   ar
    14     4     5   ar
    15     5     6   ar
    16     5     7    1
    17     7     8    1
    18     8     9    1
    19     9    10    1
    20    10    11    1
    21    11    12    1
    22    12    16    1
    23    16    17    1
    24    17    18    1
    25    18    19    1
    26    12    13    1
    27    13    14    1
    28     9    15    1
    29    26    27    1
    30    27    28    1
    31    28    23    1
    32     6     1   ar
    33    14     9    1
    34    15     4    1
    35    19    16    1
@<TRIPOS>MOLECULE
*****
 31 35 0 0 0
SMALL
GASTEIGER

@<TRIPOS>ATOM
      1 C           6.2166   -3.5966   23.3529 C.ar    1  UNL1        0.1383
      2 C           5.4307   -2.3445   23.6070 C.ar    1  UNL1        0.0400
      3 C           5.2204   -1.8631   25.0120 C.ar    1  UNL1        0.0397
      4 C           5.7960   -2.6339   26.1629 C.ar    1  UNL1        0.1344
      5 C           6.5819   -3.8860   25.9088 C.ar    1  UNL1        0.0149
      6 C           6.7922   -4.3674   24.5038 C.ar    1  UNL1        0.0356
      7 C           7.1575   -4.6568   27.0597 C.3     1  UNL1        0.0331
      8 C           6.9472   -4.1754   28.4648 C.3     1  UNL1        0.0449
      9 C           6.1613   -2.9233   28.7189 C.3     1  UNL1        0.1361
     10 C           6.7369   -3.6941   29.8698 C.3     1  UNL1        0.0574
     11 C           6.5266   -3.2127   31.2747 C.3     1  UNL1        0.0756
     12 N           5.7407   -1.9606   31.5288 N.3     1  UNL1       -0.2737
     13 C           5.1651   -1.1898   30.3780 C.3     1  UNL1        0.0756
     14 C           5.3754   -1.6712   28.9730 C.3     1  UNL1        0.0574
     15 O           5.5857   -2.1525   27.5679 O.3     1  UNL1       -0.4828
     16 C           5.5304   -1.4793   32.9339 C.3     1  UNL1        0.0575
     17 C           6.3379   -0.6803   33.9135 C.3     1  UNL1        0.0160
     18 C           5.2329   -0.7986   34.9209 C.3     1  UNL1        0.0028
     19 C           4.4254   -1.5976   33.9414 C.3     1  UNL1        0.0160
     20 O           6.4269   -4.0780   21.9479 O.3     1  UNL1       -0.4791
     21 C           5.0170   -0.5307   17.3187 C.2     1  UNL1        0.2251
     22 O           4.0014   -0.9810   16.3109 O.2     1  UNL1       -0.2749
     23 N           5.3695   -1.4175   18.4760 N.am    1  UNL1       -0.2793
     24 C           6.3851   -0.9672   19.4838 C.3     1  UNL1        0.0971
     25 C           6.7376   -1.8540   20.6411 C.3     1  UNL1        0.0650
     26 C           6.0744   -3.1911   20.7906 C.3     1  UNL1        0.1693
     27 C           5.0588   -3.6414   19.7828 C.3     1  UNL1        0.0650
     28 C           4.7063   -2.7546   18.6255 C.3     1  UNL1        0.0971
     29 C           5.0916    2.0143   17.8359 C.3     1  UNL1        0.0096
     30 C           5.6802    0.8064   17.1692 C.3     1  UNL1        0.0767
     31 C           6.9321    0.9356   16.3530 C.3     1  UNL1        0.0096
@<TRIPOS>BOND
     1    29    30    1
     2    30    31    1
     3    30    21    1
     4    21    22    2
     5    21    23   am
     6    23    24    1
     7    24    25    1
     8    25    26    1
     9    26    20    1
    10    20     1    1
    11     1     2   ar
    12     2     3   ar
    13     3     4   ar
    14     4     5   ar
    15     5     6   ar
    16     5     7    1
    17     7     8    1
    18     8     9    1
    19     9    10    1
    20    10    11    1
    21    11    12    1
    22    12    16    1
    23    16    17    1
    24    17    18    1
    25    18    19    1
    26    12    13    1
    27    13    14    1
    28     9    15    1
    29    26    27    1
    30    27    28    1
    31    28    23    1
    32     6     1   ar
    33    14     9    1
    34    15     4    1
    35    19    16    1
@<TRIPOS>MOLECULE
*****
 31 35 0 0 0
SMALL
GASTEIGER

@<TRIPOS>ATOM
      1 C           0.7721    2.7809   19.6719 C.ar    1  UNL1        0.1383
      2 C           1.3441    3.3094   20.9539 C.ar    1  UNL1        0.0400
      3 C           0.4303    3.8094   22.0331 C.ar    1  UNL1        0.0397
      4 C          -1.0557    3.7811   21.8303 C.ar    1  UNL1        0.1344
      5 C          -1.6278    3.2526   20.5483 C.ar    1  UNL1        0.0149
      6 C          -0.7138    2.7525   19.4691 C.ar    1  UNL1        0.0356
      7 C          -3.1137    3.2243   20.3455 C.3     1  UNL1        0.0331
      8 C          -4.0277    3.7244   21.4248 C.3     1  UNL1        0.0449
      9 C          -3.4556    4.2528   22.7067 C.3     1  UNL1        0.1361
     10 C          -4.9415    4.2244   22.5040 C.3     1  UNL1        0.0574
     11 C          -5.8554    4.7245   23.5832 C.3     1  UNL1        0.0756
     12 N          -5.2834    5.2530   24.8651 N.3     1  UNL1       -0.2737
     13 C          -3.7974    5.2813   25.0679 C.3     1  UNL1        0.0756
     14 C          -2.8836    4.7813   23.9887 C.3     1  UNL1        0.0574
     15 O          -1.9696    4.2812   22.9095 O.3     1  UNL1       -0.4828
     16 C          -6.1973    5.7531   25.9444 C.3     1  UNL1        0.0575
     17 C          -6.0801    5.9497   27.4268 C.3     1  UNL1        0.0160
     18 C          -7.4899    6.4603   27.4705 C.3     1  UNL1        0.0028
     19 C          -7.6071    6.2637   25.9881 C.3     1  UNL1        0.0160
     20 O           1.6860    2.2808   18.5927 O.3     1  UNL1       -0.4791
     21 C           4.8893   -2.7192   19.4525 C.2     1  UNL1        0.2251
     22 O           6.2667   -2.8367   18.8705 O.2     1  UNL1       -0.2749
     23 N           4.0884   -1.4691   19.2375 N.am    1  UNL1       -0.2793
     24 C           2.7110   -1.3515   19.8196 C.3     1  UNL1        0.0971
     25 C           1.9102   -0.1016   19.6046 C.3     1  UNL1        0.0650
     26 C           2.4868    1.0308   18.8076 C.3     1  UNL1        0.1693
     27 C           3.8643    0.9132   18.2256 C.3     1  UNL1        0.0650
     28 C           4.6651   -0.3367   18.4405 C.3     1  UNL1        0.0971
     29 C           3.5432   -4.9387   19.5596 C.3     1  UNL1        0.0096
     30 C           4.3126   -3.8515   20.2495 C.3     1  UNL1        0.0767
     31 C           4.5055   -3.8967   21.7364 C.3     1  UNL1        0.0096
@<TRIPOS>BOND
     1    29    30    1
     2    30    31    1
     3    30    21    1
     4    21    22    2
     5    21    23   am
     6    23    24    1
     7    24    25    1
     8    25    26    1
     9    26    20    1
    10    20     1    1
    11     1     2   ar
    12     2     3   ar
    13     3     4   ar
    14     4     5   ar
    15     5     6   ar
    16     5     7    1
    17     7     8    1
    18     8     9    1
    19     9    10    1
    20    10    11    1
    21    11    12    1
    22    12    16    1
    23    16    17    1
    24    17    18    1
    25    18    19    1
    26    12    13    1
    27    13    14    1
    28     9    15    1
    29    26    27    1
    30    27    28    1
    31    28    23    1
    32     6     1   ar
    33    14     9    1
    34    15     4    1
    35    19    16    1
@<TRIPOS>MOLECULE
*****
 31 35 0 0 0
SMALL
GASTEIGER

@<TRIPOS>ATOM
      1 C           1.1712    1.5034   23.3496 C.ar    1  UNL1        0.1383
      2 C           2.5902    1.8006   23.7345 C.ar    1  UNL1        0.0400
      3 C           2.9597    1.9484   25.1807 C.ar    1  UNL1        0.0397
      4 C           1.9103    1.7990   26.2420 C.ar    1  UNL1        0.1344
      5 C           0.4913    1.5018   25.8571 C.ar    1  UNL1        0.0149
      6 C           0.1218    1.3540   24.4108 C.ar    1  UNL1        0.0356
      7 C          -0.5581    1.3523   26.9184 C.3     1  UNL1        0.0331
      8 C          -0.1886    1.5001   28.3647 C.3     1  UNL1        0.0449
      9 C           1.2304    1.7974   28.7496 C.3     1  UNL1        0.1361
     10 C           0.1810    1.6479   29.8109 C.3     1  UNL1        0.0574
     11 C           0.5505    1.7957   31.2571 C.3     1  UNL1        0.0756
     12 N           1.9695    2.0930   31.6420 N.3     1  UNL1       -0.2737
     13 C           3.0189    2.2424   30.5807 C.3     1  UNL1        0.0756
     14 C           2.6494    2.0946   29.1345 C.3     1  UNL1        0.0574
     15 O           2.2798    1.9468   27.6882 O.3     1  UNL1       -0.4828
     16 C           2.3390    2.2408   33.0883 C.3     1  UNL1        0.0575
     17 C           3.2613    1.5202   34.0264 C.3     1  UNL1        0.0160
     18 C           2.8615    2.4499   35.1336 C.3     1  UNL1        0.0028
     19 C           1.9392    3.1705   34.1955 C.3     1  UNL1        0.0160
     20 O           0.8017    1.3556   21.9034 O.3     1  UNL1       -0.4791
     21 C           4.2612   -1.9030   18.2408 C.2     1  UNL1        0.2251
     22 O           4.4407   -1.4864   16.8111 O.2     1  UNL1       -0.2749
     23 N           3.3963   -1.0883   19.1565 N.am    1  UNL1       -0.2793
     24 C           3.2168   -1.5050   20.5862 C.3     1  UNL1        0.0971
     25 C           2.3519   -0.6903   21.5018 C.3     1  UNL1        0.0650
     26 C           1.6666    0.5409   20.9877 C.3     1  UNL1        0.1693
     27 C           1.8461    0.9576   19.5580 C.3     1  UNL1        0.0650
     28 C           2.7110    0.1429   18.6424 C.3     1  UNL1        0.0971
     29 C           6.3472   -3.0472   19.2846 C.3     1  UNL1        0.0096
     30 C           4.9465   -3.1342   18.7550 C.3     1  UNL1        0.0767
     31 C           4.2311   -4.4526   18.7395 C.3     1  UNL1        0.0096
@<TRIPOS>BOND
     1    29    30    1
     2    30    31    1
     3    30    21    1
     4    21    22    2
     5    21    23   am
     6    23    24    1
     7    24    25    1
     8    25    26    1
     9    26    20    1
    10    20     1    1
    11     1     2   ar
    12     2     3   ar
    13     3     4   ar
    14     4     5   ar
    15     5     6   ar
    16     5     7    1
    17     7     8    1
    18     8     9    1
    19     9    10    1
    20    10    11    1
    21    11    12    1
    22    12    16    1
    23    16    17    1
    24    17    18    1
    25    18    19    1
    26    12    13    1
    27    13    14    1
    28     9    15    1
    29    26    27    1
    30    27    28    1
    31    28    23    1
    32     6     1   ar
    33    14     9    1
    34    15     4    1
    35    19    16    1
@<TRIPOS>MOLECULE
*****
 31 35 0 0 0
SMALL
GASTEIGER

@<TRIPOS>ATOM
      1 C           0.1527    1.6581   21.2650 C.ar    1  UNL1        0.1383
      2 C          -0.6702    2.8930   21.4837 C.ar    1  UNL1        0.0400
      3 C          -0.7488    3.5099   22.8487 C.ar    1  UNL1        0.0397
      4 C          -0.0045    2.8919   23.9951 C.ar    1  UNL1        0.1344
      5 C           0.8184    1.6570   23.7764 C.ar    1  UNL1        0.0149
      6 C           0.8969    1.0401   22.4113 C.ar    1  UNL1        0.0356
      7 C           1.5626    1.0390   24.9227 C.3     1  UNL1        0.0331
      8 C           1.4841    1.6558   26.2877 C.3     1  UNL1        0.0449
      9 C           0.6612    2.8908   26.5064 C.3     1  UNL1        0.1361
     10 C           1.4054    2.2727   27.6527 C.3     1  UNL1        0.0574
     11 C           1.3268    2.8896   29.0177 C.3     1  UNL1        0.0756
     12 N           0.5039    4.1245   29.2364 N.3     1  UNL1       -0.2737
     13 C          -0.2403    4.7426   28.0901 C.3     1  UNL1        0.0756
     14 C          -0.1617    4.1257   26.7251 C.3     1  UNL1        0.0574
     15 O          -0.0831    3.5088   25.3600 O.3     1  UNL1       -0.4828
     16 C           0.4254    4.7414   30.6015 C.3     1  UNL1        0.0575
     17 C           0.5015    6.1395   31.1396 C.3     1  UNL1        0.0160
     18 C           0.3142    5.6137   32.5319 C.3     1  UNL1        0.0028
     19 C           0.2380    4.2157   31.9938 C.3     1  UNL1        0.0160
     20 O           0.2313    1.0412   19.9000 O.3     1  UNL1       -0.4791
     21 C           4.9852   -2.2901   18.3827 C.2     1  UNL1        0.2251
     22 O           5.8897   -1.8444   17.2722 O.2     1  UNL1       -0.2749
     23 N           3.7967   -1.4573   18.7621 N.am    1  UNL1       -0.2793
     24 C           2.8923   -1.9030   19.8726 C.3     1  UNL1        0.0971
     25 C           1.7038   -1.0702   20.2519 C.3     1  UNL1        0.0650
     26 C           1.4198    0.2084   19.5207 C.3     1  UNL1        0.1693
     27 C           2.3242    0.6541   18.4102 C.3     1  UNL1        0.0650
     28 C           3.5127   -0.1788   18.0308 C.3     1  UNL1        0.0971
     29 C           6.2527   -3.5824   20.2464 C.3     1  UNL1        0.0096
     30 C           5.2692   -3.5687   19.1139 C.3     1  UNL1        0.0767
     31 C           4.5698   -4.8335   18.7126 C.3     1  UNL1        0.0096
@<TRIPOS>BOND
     1    29    30    1
     2    30    31    1
     3    30    21    1
     4    21    22    2
     5    21    23   am
     6    23    24    1
     7    24    25    1
     8    25    26    1
     9    26    20    1
    10    20     1    1
    11     1     2   ar
    12     2     3   ar
    13     3     4   ar
    14     4     5   ar
    15     5     6   ar
    16     5     7    1
    17     7     8    1
    18     8     9    1
    19     9    10    1
    20    10    11    1
    21    11    12    1
    22    12    16    1
    23    16    17    1
    24    17    18    1
    25    18    19    1
    26    12    13    1
    27    13    14    1
    28     9    15    1
    29    26    27    1
    30    27    28    1
    31    28    23    1
    32     6     1   ar
    33    14     9    1
    34    15     4    1
    35    19    16    1
@<TRIPOS>MOLECULE
*****
 31 35 0 0 0
SMALL
GASTEIGER

@<TRIPOS>ATOM
      1 C          -0.1372    3.1541   18.8577 C.ar    1  UNL1        0.1383
      2 C           1.1831    3.7438   18.4587 C.ar    1  UNL1        0.0400
      3 C           2.4414    2.9436   18.6201 C.ar    1  UNL1        0.0397
      4 C           2.3795    1.5535   19.1806 C.ar    1  UNL1        0.1344
      5 C           1.0593    0.9638   19.5796 C.ar    1  UNL1        0.0149
      6 C          -0.1991    1.7642   19.4181 C.ar    1  UNL1        0.0356
      7 C           0.9974   -0.4261   20.1400 C.3     1  UNL1        0.0331
      8 C           2.2558   -1.2265   20.3015 C.3     1  UNL1        0.0449
      9 C           3.5760   -0.6368   19.9025 C.3     1  UNL1        0.1361
     10 C           3.5141   -2.0267   20.4629 C.3     1  UNL1        0.0574
     11 C           4.7725   -2.8270   20.6243 C.3     1  UNL1        0.0756
     12 N           6.0927   -2.2373   20.2253 N.3     1  UNL1       -0.2737
     13 C           6.1546   -0.8473   19.6649 C.3     1  UNL1        0.0756
     14 C           4.8963   -0.0471   19.5035 C.3     1  UNL1        0.0574
     15 O           3.6379    0.7533   19.3420 O.3     1  UNL1       -0.4828
     16 C           7.3511   -3.0376   20.3868 C.3     1  UNL1        0.0575
     17 C           7.7112   -4.3205   21.0756 C.3     1  UNL1        0.0160
     18 C           9.1307   -4.1694   20.6151 C.3     1  UNL1        0.0028
     19 C           8.7707   -2.8864   19.9263 C.3     1  UNL1        0.0160
     20 O          -1.3955    3.9544   18.6962 O.3     1  UNL1       -0.4791
     21 C          -5.3471    4.2725   23.2000 C.2     1  UNL1        0.2251
     22 O          -6.7753    3.8736   22.9742 O.2     1  UNL1       -0.2749
     23 N          -4.3592    4.1930   22.0741 N.am    1  UNL1       -0.2793
     24 C          -2.9310    4.5918   22.2999 C.3     1  UNL1        0.0971
     25 C          -1.9431    4.5123   21.1739 C.3     1  UNL1        0.0650
     26 C          -2.3835    4.0339   19.8222 C.3     1  UNL1        0.1693
     27 C          -3.8117    3.6350   19.5964 C.3     1  UNL1        0.0650
     28 C          -4.7995    3.7146   20.7223 C.3     1  UNL1        0.0971
     29 C          -4.4460    3.7641   25.5832 C.3     1  UNL1        0.0096
     30 C          -4.9067    4.7509   24.5518 C.3     1  UNL1        0.0767
     31 C          -4.9272    6.2162   24.8721 C.3     1  UNL1        0.0096
@<TRIPOS>BOND
     1    29    30    1
     2    30    31    1
     3    30    21    1
     4    21    22    2
     5    21    23   am
     6    23    24    1
     7    24    25    1
     8    25    26    1
     9    26    20    1
    10    20     1    1
    11     1     2   ar
    12     2     3   ar
    13     3     4   ar
    14     4     5   ar
    15     5     6   ar
    16     5     7    1
    17     7     8    1
    18     8     9    1
    19     9    10    1
    20    10    11    1
    21    11    12    1
    22    12    16    1
    23    16    17    1
    24    17    18    1
    25    18    19    1
    26    12    13    1
    27    13    14    1
    28     9    15    1
    29    26    27    1
    30    27    28    1
    31    28    23    1
    32     6     1   ar
    33    14     9    1
    34    15     4    1
    35    19    16    1
@<TRIPOS>MOLECULE
*****
 31 35 0 0 0
SMALL
GASTEIGER

@<TRIPOS>ATOM
      1 C           8.4930   -3.5626   25.3298 C.ar    1  UNL1        0.1383
      2 C           8.7659   -2.1056   25.5592 C.ar    1  UNL1        0.0400
      3 C           8.4305   -1.4786   26.8799 C.ar    1  UNL1        0.0397
      4 C           7.8221   -2.3086   27.9713 C.ar    1  UNL1        0.1344
      5 C           7.5492   -3.7656   27.7419 C.ar    1  UNL1        0.0149
      6 C           7.8846   -4.3926   26.4211 C.ar    1  UNL1        0.0356
      7 C           6.9408   -4.5956   28.8332 C.3     1  UNL1        0.0331
      8 C           6.6053   -3.9686   30.1540 C.3     1  UNL1        0.0449
      9 C           6.8783   -2.5116   30.3834 C.3     1  UNL1        0.1361
     10 C           6.2699   -3.3416   31.4747 C.3     1  UNL1        0.0574
     11 C           5.9345   -2.7145   32.7954 C.3     1  UNL1        0.0756
     12 N           6.2074   -1.2575   33.0248 N.3     1  UNL1       -0.2737
     13 C           6.8158   -0.4275   31.9335 C.3     1  UNL1        0.0756
     14 C           7.1512   -1.0546   30.6128 C.3     1  UNL1        0.0574
     15 O           7.4867   -1.6816   29.2920 O.3     1  UNL1       -0.4828
     16 C           5.8720   -0.6305   34.3456 C.3     1  UNL1        0.0575
     17 C           4.8207   -0.8578   35.3911 C.3     1  UNL1        0.0160
     18 C           5.3976    0.2562   36.2134 C.3     1  UNL1        0.0028
     19 C           6.4489    0.4835   35.1678 C.3     1  UNL1        0.0160
     20 O           8.8284   -4.1896   24.0091 O.3     1  UNL1       -0.4791
     21 C           5.3746   -3.1256   19.2196 C.2     1  UNL1        0.2251
     22 O           6.0043   -2.7785   17.9031 O.2     1  UNL1       -0.2749
     23 N           6.2381   -3.3916   20.4170 N.am    1  UNL1       -0.2793
     24 C           5.6085   -3.7387   21.7334 C.3     1  UNL1        0.0971
     25 C           6.4719   -4.0047   22.9308 C.3     1  UNL1        0.0650
     26 C           7.9650   -3.9236   22.8117 C.3     1  UNL1        0.1693
     27 C           8.5946   -3.5765   21.4953 C.3     1  UNL1        0.0650
     28 C           7.7312   -3.3105   20.2979 C.3     1  UNL1        0.0971
     29 C           3.1772   -4.5037   19.0714 C.3     1  UNL1        0.0096
     30 C           3.8816   -3.2067   19.3387 C.3     1  UNL1        0.0767
     31 C           3.0929   -1.9906   19.7250 C.3     1  UNL1        0.0096
@<TRIPOS>BOND
     1    29    30    1
     2    30    31    1
     3    30    21    1
     4    21    22    2
     5    21    23   am
     6    23    24    1
     7    24    25    1
     8    25    26    1
     9    26    20    1
    10    20     1    1
    11     1     2   ar
    12     2     3   ar
    13     3     4   ar
    14     4     5   ar
    15     5     6   ar
    16     5     7    1
    17     7     8    1
    18     8     9    1
    19     9    10    1
    20    10    11    1
    21    11    12    1
    22    12    16    1
    23    16    17    1
    24    17    18    1
    25    18    19    1
    26    12    13    1
    27    13    14    1
    28     9    15    1
    29    26    27    1
    30    27    28    1
    31    28    23    1
    32     6     1   ar
    33    14     9    1
    34    15     4    1
    35    19    16    1
@<TRIPOS>MOLECULE
*****
 31 35 0 0 0
SMALL
GASTEIGER

@<TRIPOS>ATOM
      1 C           1.4953    0.8796   23.4477 C.ar    1  UNL1        0.1383
      2 C           0.5410    1.5060   24.4207 C.ar    1  UNL1        0.0400
      3 C           0.7825    1.3787   25.8957 C.ar    1  UNL1        0.0397
      4 C           1.9784    0.6250   26.3976 C.ar    1  UNL1        0.1344
      5 C           2.9327   -0.0013   25.4245 C.ar    1  UNL1        0.0149
      6 C           2.6912    0.1260   23.9495 C.ar    1  UNL1        0.0356
      7 C           4.1286   -0.7550   25.9264 C.3     1  UNL1        0.0331
      8 C           4.3701   -0.8823   27.4013 C.3     1  UNL1        0.0449
      9 C           3.4158   -0.2560   28.3744 C.3     1  UNL1        0.1361
     10 C           4.6116   -1.0096   28.8763 C.3     1  UNL1        0.0574
     11 C           4.8531   -1.1369   30.3512 C.3     1  UNL1        0.0756
     12 N           3.8987   -0.5106   31.3243 N.3     1  UNL1       -0.2737
     13 C           2.7029    0.2431   30.8224 C.3     1  UNL1        0.0756
     14 C           2.4614    0.3704   29.3475 C.3     1  UNL1        0.0574
     15 O           2.2198    0.4977   27.8725 O.3     1  UNL1       -0.4828
     16 C           4.1403   -0.6379   32.7992 C.3     1  UNL1        0.0575
     17 C           4.0977    0.3036   33.9662 C.3     1  UNL1        0.0160
     18 C           4.4819   -0.8180   34.8851 C.3     1  UNL1        0.0028
     19 C           4.5244   -1.7595   33.7181 C.3     1  UNL1        0.0160
     20 O           1.2538    1.0069   21.9728 O.3     1  UNL1       -0.4791
     21 C           5.3495   -1.0061   18.0774 C.2     1  UNL1        0.2251
     22 O           5.2235   -2.3859   17.5028 O.2     1  UNL1       -0.2749
     23 N           4.3256   -0.5028   19.0513 N.am    1  UNL1       -0.2793
     24 C           4.4516    0.8769   19.6259 C.3     1  UNL1        0.0971
     25 C           3.4277    1.3802   20.5997 C.3     1  UNL1        0.0650
     26 C           2.2778    0.5036   20.9989 C.3     1  UNL1        0.1693
     27 C           2.1517   -0.8762   20.4243 C.3     1  UNL1        0.0650
     28 C           3.1756   -1.3794   19.4505 C.3     1  UNL1        0.0971
     29 C           6.3811    0.7626   16.4783 C.3     1  UNL1        0.0096
     30 C           6.4994   -0.1296   17.6783 C.3     1  UNL1        0.0767
     31 C           7.7677   -0.1453   18.4791 C.3     1  UNL1        0.0096
@<TRIPOS>BOND
     1    29    30    1
     2    30    31    1
     3    30    21    1
     4    21    22    2
     5    21    23   am
     6    23    24    1
     7    24    25    1
     8    25    26    1
     9    26    20    1
    10    20     1    1
    11     1     2   ar
    12     2     3   ar
    13     3     4   ar
    14     4     5   ar
    15     5     6   ar
    16     5     7    1
    17     7     8    1
    18     8     9    1
    19     9    10    1
    20    10    11    1
    21    11    12    1
    22    12    16    1
    23    16    17    1
    24    17    18    1
    25    18    19    1
    26    12    13    1
    27    13    14    1
    28     9    15    1
    29    26    27    1
    30    27    28    1
    31    28    23    1
    32     6     1   ar
    33    14     9    1
    34    15     4    1
    35    19    16    1
@<TRIPOS>MOLECULE
*****
 31 35 0 0 0
SMALL
GASTEIGER

@<TRIPOS>ATOM
      1 C           1.3609    2.9070   18.8453 C.ar    1  UNL1        0.1383
      2 C           0.1871    3.2460   17.9750 C.ar    1  UNL1        0.0400
      3 C          -1.1314    3.5977   18.5976 C.ar    1  UNL1        0.0397
      4 C          -1.2762    3.6105   20.0906 C.ar    1  UNL1        0.1344
      5 C          -0.1025    3.2715   20.9609 C.ar    1  UNL1        0.0149
      6 C           1.2161    2.9197   20.3382 C.ar    1  UNL1        0.0356
      7 C          -0.2473    3.2842   22.4538 C.3     1  UNL1        0.0331
      8 C          -1.5658    3.6360   23.0765 C.3     1  UNL1        0.0449
      9 C          -2.7396    3.9750   22.2063 C.3     1  UNL1        0.1361
     10 C          -2.8843    3.9877   23.6992 C.3     1  UNL1        0.0574
     11 C          -4.2029    4.3395   24.3218 C.3     1  UNL1        0.0756
     12 N          -5.3766    4.6785   23.4515 N.3     1  UNL1       -0.2737
     13 C          -5.2319    4.6658   21.9586 C.3     1  UNL1        0.0756
     14 C          -3.9133    4.3140   21.3360 C.3     1  UNL1        0.0574
     15 O          -2.5948    3.9623   20.7133 O.3     1  UNL1       -0.4828
     16 C          -6.6952    5.0303   24.0743 C.3     1  UNL1        0.0575
     17 C          -7.1311    5.9042   25.2128 C.3     1  UNL1        0.0160
     18 C          -8.5599    5.5277   24.9548 C.3     1  UNL1        0.0028
     19 C          -8.1241    4.6537   23.8163 C.3     1  UNL1        0.0160
     20 O           2.6794    2.5552   18.2226 O.3     1  UNL1       -0.4791
     21 C           5.3658   -2.6268   19.6120 C.2     1  UNL1        0.2251
     22 O           6.8497   -2.7704   19.4460 O.2     1  UNL1       -0.2749
     23 N           4.6942   -1.3312   19.2647 N.am    1  UNL1       -0.2793
     24 C           3.2104   -1.1876   19.4306 C.3     1  UNL1        0.0971
     25 C           2.5388    0.1078   19.0833 C.3     1  UNL1        0.0650
     26 C           3.3510    1.2597   18.5700 C.3     1  UNL1        0.1693
     27 C           4.8349    1.1161   18.4040 C.3     1  UNL1        0.0650
     28 C           5.5064   -0.1794   18.7513 C.3     1  UNL1        0.0971
     29 C           3.9044   -4.7270   19.1615 C.3     1  UNL1        0.0096
     30 C           4.5536   -3.7786   20.1253 C.3     1  UNL1        0.0767
     31 C           4.3906   -3.9821   21.6025 C.3     1  UNL1        0.0096
@<TRIPOS>BOND
     1    29    30    1
     2    30    31    1
     3    30    21    1
     4    21    22    2
     5    21    23   am
     6    23    24    1
     7    24    25    1
     8    25    26    1
     9    26    20    1
    10    20     1    1
    11     1     2   ar
    12     2     3   ar
    13     3     4   ar
    14     4     5   ar
    15     5     6   ar
    16     5     7    1
    17     7     8    1
    18     8     9    1
    19     9    10    1
    20    10    11    1
    21    11    12    1
    22    12    16    1
    23    16    17    1
    24    17    18    1
    25    18    19    1
    26    12    13    1
    27    13    14    1
    28     9    15    1
    29    26    27    1
    30    27    28    1
    31    28    23    1
    32     6     1   ar
    33    14     9    1
    34    15     4    1
    35    19    16    1
