@<TRIPOS>MOLECULE
*****
 28 30 0 0 0
SMALL
GASTEIGER

@<TRIPOS>ATOM
      1 O         -11.5812  -17.8358   19.3484 O.2     1  UNL1       -0.2727
      2 C         -10.6722  -17.7242   20.5364 C.2     1  UNL1        0.2507
      3 N          -9.3555  -18.4429   20.5435 N.am    1  UNL1       -0.2751
      4 C          -8.9479  -19.2730   19.3626 C.3     1  UNL1        0.1108
      5 C          -7.6313  -19.9916   19.3696 C.3     1  UNL1        0.0942
      6 N          -6.7223  -19.8800   20.5576 N.3     1  UNL1       -0.2660
      7 C          -7.1299  -19.0499   21.7385 C.3     1  UNL1        0.0942
      8 C          -8.4466  -18.3313   21.7314 C.3     1  UNL1        0.1108
      9 C         -11.0799  -16.8941   21.7173 C.3     1  UNL1        0.2140
     10 N         -11.7187  -17.5459   22.9077 N.ar    1  UNL1       -0.2155
     11 C         -10.9973  -18.2260   24.0334 C.ar    1  UNL1        0.2037
     12 N         -12.0239  -18.7326   25.0029 N.ar    1  UNL1       -0.1391
     13 C         -13.3796  -18.3655   24.4763 C.ar    1  UNL1        0.4880
     14 N         -13.1910  -17.6322   23.1814 N.ar    1  UNL1       -0.0790
     15 N         -14.6933  -18.6771   25.1297 N.pl3   1  UNL1        0.1230
     16 O         -14.7757  -18.8117   26.6214 O.2     1  UNL1        0.0448
     17 O         -15.9246  -18.8542   24.2917 O.co2   1  UNL1       -0.5734
     18 C          -5.4056  -20.5987   20.5646 C.3     1  UNL1        0.0992
     19 C          -4.1268  -19.8222   20.4562 C.ar    1  UNL1       -0.0062
     20 C          -3.0609  -19.9832   21.4992 C.ar    1  UNL1       -0.0030
     21 C          -1.7820  -19.2067   21.3907 C.ar    1  UNL1        0.0036
     22 C          -1.5692  -18.2693   20.2392 C.ar    1  UNL1        0.0714
     23 C          -2.6351  -18.1083   19.1962 C.ar    1  UNL1        0.0036
     24 C          -3.9139  -18.8848   19.3047 C.ar    1  UNL1       -0.0030
     25 C          -0.2904  -17.4929   20.1307 C.3     1  UNL1        0.4186
     26 F           0.9884  -16.7163   20.0223 F       1  UNL1       -0.1659
     27 F           0.4203  -18.7285   19.6639 F       1  UNL1       -0.1659
     28 F          -1.0011  -16.2572   20.5976 F       1  UNL1       -0.1659
@<TRIPOS>UNITY_ATOM_ATTR
15 1
charge 1
17 1
charge -1
@<TRIPOS>BOND
     1     1     2    2
     2     2     9    1
     3     9    10    1
     4    10    11   ar
     5    11    12   ar
     6    12    13   ar
     7    13    15    1
     8    15    16    2
     9    15    17    1
    10    13    14   ar
    11     2     3   am
    12     3     4    1
    13     4     5    1
    14     5     6    1
    15     6    18    1
    16    18    19    1
    17    19    20   ar
    18    20    21   ar
    19    21    22   ar
    20    22    25    1
    21    25    26    1
    22    25    27    1
    23    25    28    1
    24    22    23   ar
    25    23    24   ar
    26     6     7    1
    27     7     8    1
    28    14    10   ar
    29     8     3    1
    30    24    19   ar
@<TRIPOS>MOLECULE
*****
 28 30 0 0 0
SMALL
GASTEIGER

@<TRIPOS>ATOM
      1 O         -11.8663  -17.8046   20.6590 O.2     1  UNL1       -0.2727
      2 C         -10.6378  -17.4779   21.4553 C.2     1  UNL1        0.2507
      3 N          -9.3608  -18.2238   21.2040 N.am    1  UNL1       -0.2751
      4 C          -9.3124  -19.2962   20.1564 C.3     1  UNL1        0.1108
      5 C          -8.0355  -20.0420   19.9051 C.3     1  UNL1        0.0942
      6 N          -6.8070  -19.7153   20.7014 N.3     1  UNL1       -0.2660
      7 C          -6.8554  -18.6429   21.7489 C.3     1  UNL1        0.0942
      8 C          -8.1323  -17.8971   22.0002 C.3     1  UNL1        0.1108
      9 C         -10.6862  -16.4054   22.5028 C.3     1  UNL1        0.2140
     10 N         -10.0409  -16.6314   23.8380 N.ar    1  UNL1       -0.2155
     11 C         -10.1440  -17.8770   24.6674 C.ar    1  UNL1        0.2037
     12 N          -9.3461  -17.6670   25.9202 N.ar    1  UNL1       -0.1391
     13 C          -8.7500  -16.2916   25.8650 C.ar    1  UNL1        0.4880
     14 N          -9.1795  -15.6516   24.5781 N.ar    1  UNL1       -0.0790
     15 N          -7.8777  -15.6660   26.9126 N.pl3   1  UNL1        0.1230
     16 O          -8.4744  -14.7393   27.9299 O.2     1  UNL1        0.0448
     17 O          -6.4085  -15.9671   26.9430 O.co2   1  UNL1       -0.5734
     18 C          -5.5300  -20.4612   20.4500 C.3     1  UNL1        0.0992
     19 C          -4.2274  -19.7197   20.3912 C.ar    1  UNL1       -0.0062
     20 C          -3.3129  -19.7145   21.5801 C.ar    1  UNL1       -0.0030
     21 C          -2.0103  -18.9730   21.5212 C.ar    1  UNL1        0.0036
     22 C          -1.6223  -18.2366   20.2734 C.ar    1  UNL1        0.0714
     23 C          -2.5368  -18.2417   19.0844 C.ar    1  UNL1        0.0036
     24 C          -3.8394  -18.9832   19.1433 C.ar    1  UNL1       -0.0030
     25 C          -0.3198  -17.4951   20.2145 C.3     1  UNL1        0.4186
     26 F           0.9828  -16.7535   20.1556 F       1  UNL1       -0.1659
     27 F          -0.9526  -16.3281   20.9128 F       1  UNL1       -0.1659
     28 F           0.3130  -18.6620   19.5162 F       1  UNL1       -0.1659
@<TRIPOS>UNITY_ATOM_ATTR
15 1
charge 1
17 1
charge -1
@<TRIPOS>BOND
     1     1     2    2
     2     2     9    1
     3     9    10    1
     4    10    11   ar
     5    11    12   ar
     6    12    13   ar
     7    13    15    1
     8    15    16    2
     9    15    17    1
    10    13    14   ar
    11     2     3   am
    12     3     4    1
    13     4     5    1
    14     5     6    1
    15     6    18    1
    16    18    19    1
    17    19    20   ar
    18    20    21   ar
    19    21    22   ar
    20    22    25    1
    21    25    26    1
    22    25    27    1
    23    25    28    1
    24    22    23   ar
    25    23    24   ar
    26     6     7    1
    27     7     8    1
    28    14    10   ar
    29     8     3    1
    30    24    19   ar
@<TRIPOS>MOLECULE
*****
 28 30 0 0 0
SMALL
GASTEIGER

@<TRIPOS>ATOM
      1 O          -9.9078  -19.9048   25.3072 O.2     1  UNL1       -0.2727
      2 C          -9.6213  -18.9625   24.1757 C.2     1  UNL1        0.2507
      3 N          -8.5755  -19.3091   23.1576 N.am    1  UNL1       -0.2751
      4 C          -7.8163  -20.5977   23.2711 C.3     1  UNL1        0.1108
      5 C          -6.7706  -20.9442   22.2530 C.3     1  UNL1        0.0942
      6 N          -6.4841  -20.0020   21.1216 N.3     1  UNL1       -0.2660
      7 C          -7.2434  -18.7133   21.0081 C.3     1  UNL1        0.0942
      8 C          -8.2891  -18.3669   22.0262 C.3     1  UNL1        0.1108
      9 C         -10.3805  -17.6739   24.0623 C.3     1  UNL1        0.2140
     10 N         -11.1351  -17.3561   22.8054 N.ar    1  UNL1       -0.2155
     11 C         -12.4061  -18.0103   22.3510 C.ar    1  UNL1        0.2037
     12 N         -12.8078  -17.3868   21.0470 N.ar    1  UNL1       -0.1391
     13 C         -11.7849  -16.3473   20.6958 C.ar    1  UNL1        0.4880
     14 N         -10.7512  -16.3284   21.7825 N.ar    1  UNL1       -0.0790
     15 N         -11.7942  -15.4793   19.4726 N.pl3   1  UNL1        0.1230
     16 O         -10.5079  -14.9223   18.9384 O.2     1  UNL1        0.0448
     17 O         -13.0896  -15.1681   18.7834 O.co2   1  UNL1       -0.5734
     18 C          -5.4384  -20.3485   20.1035 C.3     1  UNL1        0.0992
     19 C          -4.1181  -19.6366   20.1123 C.ar    1  UNL1       -0.0062
     20 C          -3.0772  -19.9995   21.1295 C.ar    1  UNL1       -0.0030
     21 C          -1.7568  -19.2875   21.1382 C.ar    1  UNL1        0.0036
     22 C          -1.4776  -18.2128   20.1299 C.ar    1  UNL1        0.0714
     23 C          -2.5186  -17.8499   19.1127 C.ar    1  UNL1        0.0036
     24 C          -3.8388  -18.5618   19.1039 C.ar    1  UNL1       -0.0030
     25 C          -0.1573  -17.5009   20.1387 C.3     1  UNL1        0.4186
     26 F           1.1630  -16.7890   20.1474 F       1  UNL1       -0.1659
     27 F          -0.8382  -16.2437   20.5922 F       1  UNL1       -0.1659
     28 F           0.5236  -18.7581   19.6851 F       1  UNL1       -0.1659
@<TRIPOS>UNITY_ATOM_ATTR
15 1
charge 1
17 1
charge -1
@<TRIPOS>BOND
     1     1     2    2
     2     2     9    1
     3     9    10    1
     4    10    11   ar
     5    11    12   ar
     6    12    13   ar
     7    13    15    1
     8    15    16    2
     9    15    17    1
    10    13    14   ar
    11     2     3   am
    12     3     4    1
    13     4     5    1
    14     5     6    1
    15     6    18    1
    16    18    19    1
    17    19    20   ar
    18    20    21   ar
    19    21    22   ar
    20    22    25    1
    21    25    26    1
    22    25    27    1
    23    25    28    1
    24    22    23   ar
    25    23    24   ar
    26     6     7    1
    27     7     8    1
    28    14    10   ar
    29     8     3    1
    30    24    19   ar
@<TRIPOS>MOLECULE
*****
 28 30 0 0 0
SMALL
GASTEIGER

@<TRIPOS>ATOM
      1 O          -3.8548  -16.8721   24.0676 O.2     1  UNL1       -0.2727
      2 C          -4.3386  -17.9075   23.0961 C.2     1  UNL1        0.2507
      3 N          -5.7645  -17.8909   22.6306 N.am    1  UNL1       -0.2751
      4 C          -6.7065  -16.8389   23.1365 C.3     1  UNL1        0.1108
      5 C          -8.1323  -16.8224   22.6710 C.3     1  UNL1        0.0942
      6 N          -8.6161  -17.8578   21.6995 N.3     1  UNL1       -0.2660
      7 C          -7.6742  -18.9098   21.1936 C.3     1  UNL1        0.0942
      8 C          -6.2484  -18.9264   21.6591 C.3     1  UNL1        0.1108
      9 C          -3.3967  -18.9595   22.5901 C.3     1  UNL1        0.2140
     10 N          -2.6013  -18.7164   21.3418 N.ar    1  UNL1       -0.2155
     11 C          -1.1718  -19.1110   21.1164 C.ar    1  UNL1        0.2037
     12 N          -0.7828  -18.6745   19.7349 N.ar    1  UNL1       -0.1391
     13 C          -1.9719  -18.0101   19.1067 C.ar    1  UNL1        0.4880
     14 N          -3.0958  -18.0360   20.0998 N.ar    1  UNL1       -0.0790
     15 N          -2.0274  -17.4229   17.7276 N.pl3   1  UNL1        0.1230
     16 O          -3.0623  -16.3898   17.3934 O.2     1  UNL1        0.0448
     17 O          -1.0480  -17.8687   16.6826 O.co2   1  UNL1       -0.5734
     18 C         -10.0420  -17.8412   21.2340 C.3     1  UNL1        0.0992
     19 C         -11.1561  -18.0126   22.2236 C.ar    1  UNL1       -0.0062
     20 C         -10.8978  -18.6981   23.5326 C.ar    1  UNL1       -0.0030
     21 C         -12.0120  -18.8695   24.5222 C.ar    1  UNL1        0.0036
     22 C         -13.3844  -18.3552   24.2029 C.ar    1  UNL1        0.0714
     23 C         -13.6427  -17.6697   22.8940 C.ar    1  UNL1        0.0036
     24 C         -12.5286  -17.4983   21.9044 C.ar    1  UNL1       -0.0030
     25 C         -14.4985  -18.5266   25.1925 C.3     1  UNL1        0.4186
     26 F         -15.6126  -18.6979   26.1823 F       1  UNL1       -0.1659
     27 F         -15.4767  -18.6764   24.0654 F       1  UNL1       -0.1659
     28 F         -13.5202  -18.3767   26.3197 F       1  UNL1       -0.1659
@<TRIPOS>UNITY_ATOM_ATTR
15 1
charge 1
17 1
charge -1
@<TRIPOS>BOND
     1     1     2    2
     2     2     9    1
     3     9    10    1
     4    10    11   ar
     5    11    12   ar
     6    12    13   ar
     7    13    15    1
     8    15    16    2
     9    15    17    1
    10    13    14   ar
    11     2     3   am
    12     3     4    1
    13     4     5    1
    14     5     6    1
    15     6    18    1
    16    18    19    1
    17    19    20   ar
    18    20    21   ar
    19    21    22   ar
    20    22    25    1
    21    25    26    1
    22    25    27    1
    23    25    28    1
    24    22    23   ar
    25    23    24   ar
    26     6     7    1
    27     7     8    1
    28    14    10   ar
    29     8     3    1
    30    24    19   ar
@<TRIPOS>MOLECULE
*****
 28 30 0 0 0
SMALL
GASTEIGER

@<TRIPOS>ATOM
      1 O          -8.3913  -14.8758   27.2416 O.2     1  UNL1       -0.2727
      2 C          -8.2061  -15.3056   25.8164 C.2     1  UNL1        0.2507
      3 N          -6.8953  -15.8837   25.3717 N.am    1  UNL1       -0.2751
      4 C          -5.7698  -16.0319   26.3520 C.3     1  UNL1        0.1108
      5 C          -4.4591  -16.6099   25.9072 C.3     1  UNL1        0.0942
      6 N          -4.2739  -17.0397   24.4821 N.3     1  UNL1       -0.2660
      7 C          -5.3995  -16.8916   23.5018 C.3     1  UNL1        0.0942
      8 C          -6.7102  -16.3135   23.9466 C.3     1  UNL1        0.1108
      9 C          -9.3317  -15.1575   24.8361 C.3     1  UNL1        0.2140
     10 N          -9.8790  -16.3650   24.1344 N.ar    1  UNL1       -0.2155
     11 C          -9.8476  -17.7735   24.6492 C.ar    1  UNL1        0.2037
     12 N         -10.5030  -18.6551   23.6277 N.ar    1  UNL1       -0.1391
     13 C         -10.9393  -17.7913   22.4815 C.ar    1  UNL1        0.4880
     14 N         -10.5537  -16.3760   22.7947 N.ar    1  UNL1       -0.0790
     15 N         -11.6385  -18.2605   21.2403 N.pl3   1  UNL1        0.1230
     16 O         -12.5392  -17.3261   20.4881 O.2     1  UNL1        0.0448
     17 O         -11.4372  -19.6641   20.7510 O.co2   1  UNL1       -0.5734
     18 C          -2.9631  -17.6178   24.0374 C.3     1  UNL1        0.0992
     19 C          -2.6059  -17.6331   22.5806 C.ar    1  UNL1       -0.0062
     20 C          -2.1077  -16.3833   21.9174 C.ar    1  UNL1       -0.0030
     21 C          -1.7504  -16.3987   20.4606 C.ar    1  UNL1        0.0036
     22 C          -1.8913  -17.6637   19.6671 C.ar    1  UNL1        0.0714
     23 C          -2.3895  -18.9135   20.3303 C.ar    1  UNL1        0.0036
     24 C          -2.7468  -18.8982   21.7871 C.ar    1  UNL1       -0.0030
     25 C          -1.5341  -17.6790   18.2104 C.3     1  UNL1        0.4186
     26 F          -1.1768  -17.6943   16.7536 F       1  UNL1       -0.1659
     27 F          -0.1666  -18.1926   18.5512 F       1  UNL1       -0.1659
     28 F          -2.9016  -17.1655   17.8696 F       1  UNL1       -0.1659
@<TRIPOS>UNITY_ATOM_ATTR
15 1
charge 1
17 1
charge -1
@<TRIPOS>BOND
     1     1     2    2
     2     2     9    1
     3     9    10    1
     4    10    11   ar
     5    11    12   ar
     6    12    13   ar
     7    13    15    1
     8    15    16    2
     9    15    17    1
    10    13    14   ar
    11     2     3   am
    12     3     4    1
    13     4     5    1
    14     5     6    1
    15     6    18    1
    16    18    19    1
    17    19    20   ar
    18    20    21   ar
    19    21    22   ar
    20    22    25    1
    21    25    26    1
    22    25    27    1
    23    25    28    1
    24    22    23   ar
    25    23    24   ar
    26     6     7    1
    27     7     8    1
    28    14    10   ar
    29     8     3    1
    30    24    19   ar
@<TRIPOS>MOLECULE
*****
 28 30 0 0 0
SMALL
GASTEIGER

@<TRIPOS>ATOM
      1 O          -2.2469    3.4045   23.7944 O.2     1  UNL1       -0.2727
      2 C          -0.7485    3.3931   23.8624 C.2     1  UNL1        0.2507
      3 N           0.0532    2.9652   22.6689 N.am    1  UNL1       -0.2751
      4 C          -0.6436    2.5489   21.4075 C.3     1  UNL1        0.1108
      5 C           0.1581    2.1211   20.2141 C.3     1  UNL1        0.0942
      6 N           1.6565    2.1097   20.2820 N.3     1  UNL1       -0.2660
      7 C           2.3532    2.5261   21.5434 C.3     1  UNL1        0.0942
      8 C           1.5516    2.9539   22.7368 C.3     1  UNL1        0.1108
      9 C          -0.0517    3.8095   25.1237 C.3     1  UNL1        0.2140
     10 N           0.2616    2.7904   26.1790 N.ar    1  UNL1       -0.2155
     11 C           1.4720    1.9053   26.2181 C.ar    1  UNL1        0.2037
     12 N           1.3780    1.0454   27.4436 N.ar    1  UNL1       -0.1391
     13 C           0.1095    1.3992   28.1619 C.ar    1  UNL1        0.4880
     14 N          -0.5805    2.4776   27.3802 N.ar    1  UNL1       -0.0790
     15 N          -0.3826    0.7827   29.4376 N.pl3   1  UNL1        0.1230
     16 O          -1.1995   -0.4746   29.3967 O.2     1  UNL1        0.0448
     17 O          -0.0578    1.4235   30.7544 O.co2   1  UNL1       -0.5734
     18 C           2.4582    1.6819   19.0885 C.3     1  UNL1        0.0992
     19 C           2.9345    0.2642   18.9740 C.ar    1  UNL1       -0.0062
     20 C           3.6967   -0.1752   17.7591 C.ar    1  UNL1       -0.0030
     21 C           4.1731   -1.5930   17.6446 C.ar    1  UNL1        0.0036
     22 C           3.8872   -2.5714   18.7451 C.ar    1  UNL1        0.0714
     23 C           3.1250   -2.1320   19.9600 C.ar    1  UNL1        0.0036
     24 C           2.6486   -0.7143   20.0745 C.ar    1  UNL1       -0.0030
     25 C           4.3635   -3.9891   18.6306 C.3     1  UNL1        0.4186
     26 F           4.8398   -5.4069   18.5161 F       1  UNL1       -0.1659
     27 F           5.7788   -3.5046   18.5200 F       1  UNL1       -0.1659
     28 F           2.9483   -4.4735   18.7412 F       1  UNL1       -0.1659
@<TRIPOS>UNITY_ATOM_ATTR
15 1
charge 1
17 1
charge -1
@<TRIPOS>BOND
     1     1     2    2
     2     2     9    1
     3     9    10    1
     4    10    11   ar
     5    11    12   ar
     6    12    13   ar
     7    13    15    1
     8    15    16    2
     9    15    17    1
    10    13    14   ar
    11     2     3   am
    12     3     4    1
    13     4     5    1
    14     5     6    1
    15     6    18    1
    16    18    19    1
    17    19    20   ar
    18    20    21   ar
    19    21    22   ar
    20    22    25    1
    21    25    26    1
    22    25    27    1
    23    25    28    1
    24    22    23   ar
    25    23    24   ar
    26     6     7    1
    27     7     8    1
    28    14    10   ar
    29     8     3    1
    30    24    19   ar
@<TRIPOS>MOLECULE
*****
 28 30 0 0 0
SMALL
GASTEIGER

@<TRIPOS>ATOM
      1 O           7.8796    0.0934   28.9272 O.2     1  UNL1       -0.2727
      2 C           6.6465   -0.7493   28.7884 C.2     1  UNL1        0.2507
      3 N           5.8377   -0.6929   27.5263 N.am    1  UNL1       -0.2751
      4 C           6.2620    0.2063   26.4032 C.3     1  UNL1        0.1108
      5 C           5.4531    0.2627   25.1413 C.3     1  UNL1        0.0942
      6 N           4.2200   -0.5800   25.0025 N.3     1  UNL1       -0.2660
      7 C           3.7957   -1.4792   26.1256 C.3     1  UNL1        0.0942
      8 C           4.6046   -1.5356   27.3875 C.3     1  UNL1        0.1108
      9 C           6.2223   -1.6485   29.9115 C.3     1  UNL1        0.2140
     10 N           5.1600   -1.2000   30.8710 N.ar    1  UNL1       -0.2155
     11 C           4.8399   -1.8350   32.1917 C.ar    1  UNL1        0.2037
     12 N           3.7134   -1.0653   32.8152 N.ar    1  UNL1       -0.1391
     13 C           3.3374    0.0454   31.8797 C.ar    1  UNL1        0.4880
     14 N           4.2314   -0.0379   30.6781 N.ar    1  UNL1       -0.0790
     15 N           2.2570    1.0610   32.1060 N.pl3   1  UNL1        0.1230
     16 O           1.1972    1.2731   31.0659 O.2     1  UNL1        0.0448
     17 O           2.2363    1.8646   33.3725 O.co2   1  UNL1       -0.5734
     18 C           3.4112   -0.5235   23.7404 C.3     1  UNL1        0.0992
     19 C           3.6662   -1.5119   22.6413 C.ar    1  UNL1       -0.0062
     20 C           4.4171   -2.7778   22.9304 C.ar    1  UNL1       -0.0030
     21 C           4.6721   -3.7662   21.8312 C.ar    1  UNL1        0.0036
     22 C           4.1761   -3.4886   20.4430 C.ar    1  UNL1        0.0714
     23 C           3.4252   -2.2227   20.1540 C.ar    1  UNL1        0.0036
     24 C           3.1702   -1.2344   21.2531 C.ar    1  UNL1       -0.0030
     25 C           4.4311   -4.4770   19.3439 C.3     1  UNL1        0.4186
     26 F           4.6861   -5.4654   18.2448 F       1  UNL1       -0.1659
     27 F           5.8834   -4.5172   19.7170 F       1  UNL1       -0.1659
     28 F           2.9789   -4.4368   18.9709 F       1  UNL1       -0.1659
@<TRIPOS>UNITY_ATOM_ATTR
15 1
charge 1
17 1
charge -1
@<TRIPOS>BOND
     1     1     2    2
     2     2     9    1
     3     9    10    1
     4    10    11   ar
     5    11    12   ar
     6    12    13   ar
     7    13    15    1
     8    15    16    2
     9    15    17    1
    10    13    14   ar
    11     2     3   am
    12     3     4    1
    13     4     5    1
    14     5     6    1
    15     6    18    1
    16    18    19    1
    17    19    20   ar
    18    20    21   ar
    19    21    22   ar
    20    22    25    1
    21    25    26    1
    22    25    27    1
    23    25    28    1
    24    22    23   ar
    25    23    24   ar
    26     6     7    1
    27     7     8    1
    28    14    10   ar
    29     8     3    1
    30    24    19   ar
@<TRIPOS>MOLECULE
*****
 28 30 0 0 0
SMALL
GASTEIGER

@<TRIPOS>ATOM
      1 O          -2.7337    4.0847   23.2038 O.2     1  UNL1       -0.2727
      2 C          -2.6120    3.5074   21.8247 C.2     1  UNL1        0.2507
      3 N          -1.2622    3.1448   21.2798 N.am    1  UNL1       -0.2751
      4 C          -0.0343    3.3595   22.1140 C.3     1  UNL1        0.1108
      5 C           1.3154    2.9969   21.5692 C.3     1  UNL1        0.0942
      6 N           1.4371    2.4196   20.1901 N.3     1  UNL1       -0.2660
      7 C           0.2091    2.2050   19.3558 C.3     1  UNL1        0.0942
      8 C          -1.1405    2.5675   19.9007 C.3     1  UNL1        0.1108
      9 C          -3.8399    3.2927   20.9904 C.3     1  UNL1        0.2140
     10 N          -5.1510    3.8813   21.4203 N.ar    1  UNL1       -0.2155
     11 C          -6.1079    4.6356   20.5454 C.ar    1  UNL1        0.2037
     12 N          -7.2837    5.0394   21.3848 N.ar    1  UNL1       -0.1391
     13 C          -7.0534    4.5345   22.7784 C.ar    1  UNL1        0.4880
     14 N          -5.7354    3.8187   22.8003 N.ar    1  UNL1       -0.0790
     15 N          -7.9787    4.7138   23.9452 N.pl3   1  UNL1        0.1230
     16 O          -9.3204    4.0430   23.9485 O.2     1  UNL1        0.0448
     17 O          -7.5625    5.5640   25.1089 O.co2   1  UNL1       -0.5734
     18 C           2.7868    2.0570   19.6452 C.3     1  UNL1        0.0992
     19 C           3.1318    0.6195   19.3918 C.ar    1  UNL1       -0.0062
     20 C           2.9723   -0.3942   20.4859 C.ar    1  UNL1       -0.0030
     21 C           3.3174   -1.8319   20.2324 C.ar    1  UNL1        0.0036
     22 C           3.8219   -2.2558   18.8850 C.ar    1  UNL1        0.0714
     23 C           3.9815   -1.2421   17.7909 C.ar    1  UNL1        0.0036
     24 C           3.6364    0.1955   18.0443 C.ar    1  UNL1       -0.0030
     25 C           4.1670   -3.6934   18.6316 C.3     1  UNL1        0.4186
     26 F           4.5120   -5.1310   18.3782 F       1  UNL1       -0.1659
     27 F           5.4454   -3.2701   17.9710 F       1  UNL1       -0.1659
     28 F           2.8885   -4.1166   19.2921 F       1  UNL1       -0.1659
@<TRIPOS>UNITY_ATOM_ATTR
15 1
charge 1
17 1
charge -1
@<TRIPOS>BOND
     1     1     2    2
     2     2     9    1
     3     9    10    1
     4    10    11   ar
     5    11    12   ar
     6    12    13   ar
     7    13    15    1
     8    15    16    2
     9    15    17    1
    10    13    14   ar
    11     2     3   am
    12     3     4    1
    13     4     5    1
    14     5     6    1
    15     6    18    1
    16    18    19    1
    17    19    20   ar
    18    20    21   ar
    19    21    22   ar
    20    22    25    1
    21    25    26    1
    22    25    27    1
    23    25    28    1
    24    22    23   ar
    25    23    24   ar
    26     6     7    1
    27     7     8    1
    28    14    10   ar
    29     8     3    1
    30    24    19   ar
@<TRIPOS>MOLECULE
*****
 28 30 0 0 0
SMALL
GASTEIGER

@<TRIPOS>ATOM
      1 O           6.3611    2.6823   34.9422 O.2     1  UNL1       -0.2727
      2 C           4.8891    2.7003   34.6545 C.2     1  UNL1        0.2507
      3 N           4.3364    1.8876   33.5213 N.am    1  UNL1       -0.2751
      4 C           5.2557    1.0569   32.6759 C.3     1  UNL1        0.1108
      5 C           4.7030    0.2442   31.5428 C.3     1  UNL1        0.0942
      6 N           3.2309    0.2622   31.2551 N.3     1  UNL1       -0.2660
      7 C           2.3116    1.0930   32.1004 C.3     1  UNL1        0.0942
      8 C           2.8643    1.9056   33.2336 C.3     1  UNL1        0.1108
      9 C           3.9697    3.5311   35.4999 C.3     1  UNL1        0.2140
     10 N           3.5199    3.0253   36.8385 N.ar    1  UNL1       -0.2155
     11 C           4.4114    2.6646   37.9897 C.ar    1  UNL1        0.2037
     12 N           3.5421    2.2078   39.1237 N.ar    1  UNL1       -0.1391
     13 C           2.1134    2.2862   38.6732 C.ar    1  UNL1        0.4880
     14 N           2.0998    2.7914   37.2609 N.ar    1  UNL1       -0.0790
     15 N           0.9099    1.9231   39.4914 N.pl3   1  UNL1        0.1230
     16 O          -0.2022    1.1260   38.8766 O.2     1  UNL1        0.0448
     17 O           0.8183    2.3570   40.9243 O.co2   1  UNL1       -0.5734
     18 C           2.6782   -0.5505   30.1219 C.3     1  UNL1        0.0992
     19 C           1.7798    0.0916   29.1067 C.ar    1  UNL1       -0.0062
     20 C           0.2994   -0.1443   29.1595 C.ar    1  UNL1       -0.0030
     21 C          -0.5990    0.4978   28.1443 C.ar    1  UNL1        0.0036
     22 C          -0.0170    1.3758   27.0764 C.ar    1  UNL1        0.0714
     23 C           1.4634    1.6118   27.0237 C.ar    1  UNL1        0.0036
     24 C           2.3618    0.9697   28.0388 C.ar    1  UNL1       -0.0030
     25 C          -0.9154    2.0179   26.0613 C.3     1  UNL1        0.4186
     26 F          -1.8139    2.6601   25.0461 F       1  UNL1       -0.1659
     27 F          -0.1719    1.3196   24.9616 F       1  UNL1       -0.1659
     28 F          -1.6589    2.7163   27.1610 F       1  UNL1       -0.1659
@<TRIPOS>UNITY_ATOM_ATTR
15 1
charge 1
17 1
charge -1
@<TRIPOS>BOND
     1     1     2    2
     2     2     9    1
     3     9    10    1
     4    10    11   ar
     5    11    12   ar
     6    12    13   ar
     7    13    15    1
     8    15    16    2
     9    15    17    1
    10    13    14   ar
    11     2     3   am
    12     3     4    1
    13     4     5    1
    14     5     6    1
    15     6    18    1
    16    18    19    1
    17    19    20   ar
    18    20    21   ar
    19    21    22   ar
    20    22    25    1
    21    25    26    1
    22    25    27    1
    23    25    28    1
    24    22    23   ar
    25    23    24   ar
    26     6     7    1
    27     7     8    1
    28    14    10   ar
    29     8     3    1
    30    24    19   ar
