@<TRIPOS>MOLECULE
*****
 45 50 0 0 0
SMALL
GASTEIGER

@<TRIPOS>ATOM
      1 N           2.9353    0.8486   31.5040 N.am    1  UNL1       -0.2222
      2 C           2.3972    0.7994   30.1046 C.2     1  UNL1        0.3219
      3 O           2.7971   -0.1787   29.0401 O.2     1  UNL1       -0.2512
      4 N           1.3890    1.9003   29.9568 N.am    1  UNL1       -0.1907
      5 C           1.3040    2.6297   31.2647 C.2     1  UNL1        0.2529
      6 O           0.4188    3.8031   31.5639 O.2     1  UNL1       -0.2724
      7 C           2.2597    1.9798   32.2210 C.3     1  UNL1        0.1391
      8 C           3.2519    1.2311   33.0606 C.3     1  UNL1        0.0449
      9 C           3.4901    1.6405   34.4839 C.3     1  UNL1        0.0746
     10 N           2.7361    2.7985   35.0674 N.3     1  UNL1       -0.2676
     11 C           1.7439    3.5471   34.2278 C.3     1  UNL1        0.0746
     12 C           1.5057    3.1377   32.8045 C.3     1  UNL1        0.0449
     13 C           6.4558   -0.6434   32.5671 C.ar    1  UNL1        0.2293
     14 C           5.4233    0.2771   31.9867 C.ar    1  UNL1        0.0924
     15 C           3.9678   -0.0718   32.0844 C.ar    1  UNL1        0.1453
     16 N           3.5446   -1.3411   32.7626 N.ar    1  UNL1       -0.2084
     17 C           4.5770   -2.2615   33.3430 C.ar    1  UNL1        0.2027
     18 N           6.0326   -1.9126   33.2453 N.ar    1  UNL1       -0.1892
     19 C           8.4794    0.7992   33.3244 C.3     1  UNL1        0.2542
     20 O           7.9113   -0.2946   32.4694 O.3     1  UNL1       -0.4560
     21 C           0.6037    2.2161   28.7185 C.ar    1  UNL1        0.0622
     22 C          -0.1412    1.1273   28.0047 C.ar    1  UNL1        0.0154
     23 C          -0.9265    1.4432   26.7663 C.ar    1  UNL1        0.0013
     24 C          -0.9669    2.8479   26.2418 C.ar    1  UNL1        0.0001
     25 C          -0.2219    3.9368   26.9556 C.ar    1  UNL1        0.0013
     26 C           0.5634    3.6208   28.1939 C.ar    1  UNL1        0.0154
     27 C          -1.7522    3.1638   25.0034 C.ar    1  UNL1        0.0000
     28 C          -3.2383    3.3501   25.0849 C.ar    1  UNL1        0.0001
     29 C          -4.0236    3.6660   23.8465 C.ar    1  UNL1        0.0045
     30 C          -3.3227    3.7955   22.5267 C.ar    1  UNL1        0.0531
     31 C          -1.8366    3.6092   22.4452 C.ar    1  UNL1        0.0045
     32 C          -1.0513    3.2933   23.6835 C.ar    1  UNL1        0.0001
     33 C          -4.1080    4.1114   21.2883 C.2     1  UNL1        0.2427
     34 N          -4.6329    2.9994   20.4291 N.am    1  UNL1       -0.3253
     35 O          -4.3684    5.5391   20.9092 O.2     1  UNL1       -0.2704
     36 H          -4.4620    2.0624   20.6780 H       1  UNL1        0.1453
     37 H          -5.1484    3.2068   19.6163 H       1  UNL1        0.1453
     38 C           2.9743    3.2078   36.4908 C.3     1  UNL1        0.1183
     39 C           2.2323    2.5256   37.6016 C.ar    1  UNL1        0.0712
     40 N           0.9369    3.0953   38.0989 N.ar    1  UNL1       -0.2471
     41 C           0.1948    2.4131   39.2098 C.ar    1  UNL1        0.0985
     42 C           0.7482    1.1611   39.8233 C.ar    1  UNL1        0.0203
     43 C           2.0436    0.5914   39.3259 C.ar    1  UNL1       -0.0015
     44 C           2.7856    1.2736   38.2151 C.ar    1  UNL1       -0.0069
     45 C           4.0810    0.7038   37.7178 C.3     1  UNL1        0.0323
@<TRIPOS>BOND
     1    19    20    1
     2    20    13    1
     3    13    14   ar
     4    14    15   ar
     5    15     1    1
     6     1     2   am
     7     2     3    2
     8     2     4   am
     9     4    21    1
    10    21    22   ar
    11    22    23   ar
    12    23    24   ar
    13    24    27    1
    14    27    28   ar
    15    28    29   ar
    16    29    30   ar
    17    30    33    1
    18    33    34   am
    19    33    35    2
    20    30    31   ar
    21    31    32   ar
    22    24    25   ar
    23    25    26   ar
    24     4     5   am
    25     5     6    2
    26     5     7    1
    27     7     8    1
    28     8     9    1
    29     9    10    1
    30    10    38    1
    31    38    39    1
    32    39    40   ar
    33    40    41   ar
    34    41    42   ar
    35    42    43   ar
    36    43    44   ar
    37    44    45    1
    38    10    11    1
    39    11    12    1
    40    15    16   ar
    41    16    17   ar
    42    17    18   ar
    43    18    13   ar
    44     7     1    1
    45    44    39   ar
    46    26    21   ar
    47    12     7    1
    48    32    27   ar
    49    34    36    1
    50    34    37    1
@<TRIPOS>MOLECULE
*****
 45 50 0 0 0
SMALL
GASTEIGER

@<TRIPOS>ATOM
      1 N           3.1576    0.3190   31.5127 N.am    1  UNL1       -0.2222
      2 C           2.4832    0.4239   30.1769 C.2     1  UNL1        0.3219
      3 O           2.7871   -0.4103   28.9679 O.2     1  UNL1       -0.2512
      4 N           1.4516    1.5095   30.2624 N.am    1  UNL1       -0.1907
      5 C           1.4884    2.0756   31.6510 C.2     1  UNL1        0.2529
      6 O           0.6229    3.1829   32.1750 O.2     1  UNL1       -0.2724
      7 C           2.5428    1.3398   32.4238 C.3     1  UNL1        0.1391
      8 C           3.6231    0.5209   33.0658 C.3     1  UNL1        0.0449
      9 C           3.9970    0.7634   34.4981 C.3     1  UNL1        0.0746
     10 N           3.2905    1.8247   35.2883 N.3     1  UNL1       -0.2676
     11 C           2.2102    2.6436   34.6462 C.3     1  UNL1        0.0746
     12 C           1.8364    2.4012   33.2140 C.3     1  UNL1        0.0449
     13 C           6.7786   -1.2505   31.9311 C.ar    1  UNL1        0.2293
     14 C           5.6819   -0.2930   31.5699 C.ar    1  UNL1        0.0924
     15 C           4.2543   -0.6385   31.8739 C.ar    1  UNL1        0.1453
     16 N           3.9233   -1.9415   32.5392 N.ar    1  UNL1       -0.2084
     17 C           5.0198   -2.8990   32.9005 C.ar    1  UNL1        0.2027
     18 N           6.4476   -2.5535   32.5964 N.ar    1  UNL1       -0.1892
     19 C           9.2632   -1.9679   31.6835 C.3     1  UNL1        0.2542
     20 O           8.2062   -0.9051   31.6271 O.3     1  UNL1       -0.4560
     21 C           0.5428    1.9515   29.1540 C.ar    1  UNL1        0.0622
     22 C           0.6294    3.3531   28.6269 C.ar    1  UNL1        0.0154
     23 C          -0.2794    3.7951   27.5185 C.ar    1  UNL1        0.0013
     24 C          -1.2749    2.8354   26.9371 C.ar    1  UNL1        0.0001
     25 C          -1.3616    1.4337   27.4642 C.ar    1  UNL1        0.0013
     26 C          -0.4527    0.9918   28.5727 C.ar    1  UNL1        0.0154
     27 C          -2.1837    3.2773   25.8286 C.ar    1  UNL1        0.0000
     28 C          -3.6042    3.6543   26.1287 C.ar    1  UNL1        0.0001
     29 C          -4.5131    4.0963   25.0202 C.ar    1  UNL1        0.0045
     30 C          -4.0013    4.1612   23.6117 C.ar    1  UNL1        0.0531
     31 C          -2.5808    3.7842   23.3116 C.ar    1  UNL1        0.0045
     32 C          -1.6720    3.3423   24.4200 C.ar    1  UNL1        0.0001
     33 C          -4.9102    4.6032   22.5032 C.2     1  UNL1        0.2427
     34 N          -4.3811    5.4722   21.4009 N.am    1  UNL1       -0.3253
     35 O          -6.3481    4.1762   22.4970 O.2     1  UNL1       -0.2704
     36 H          -3.4373    5.7524   21.4050 H       1  UNL1        0.1453
     37 H          -4.9775    5.7622   20.6734 H       1  UNL1        0.1453
     38 C           3.6645    2.0671   36.7206 C.3     1  UNL1        0.1183
     39 C           2.6570    1.8374   37.8079 C.ar    1  UNL1        0.0712
     40 N           2.5537    0.4918   38.4626 N.ar    1  UNL1       -0.2471
     41 C           1.5462    0.2621   39.5500 C.ar    1  UNL1        0.0985
     42 C           0.6421    1.3781   39.9826 C.ar    1  UNL1        0.0203
     43 C           0.7455    2.7237   39.3280 C.ar    1  UNL1       -0.0015
     44 C           1.7529    2.9534   38.2407 C.ar    1  UNL1       -0.0069
     45 C           1.8563    4.2991   37.5860 C.3     1  UNL1        0.0323
@<TRIPOS>BOND
     1    19    20    1
     2    20    13    1
     3    13    14   ar
     4    14    15   ar
     5    15     1    1
     6     1     2   am
     7     2     3    2
     8     2     4   am
     9     4    21    1
    10    21    22   ar
    11    22    23   ar
    12    23    24   ar
    13    24    27    1
    14    27    28   ar
    15    28    29   ar
    16    29    30   ar
    17    30    33    1
    18    33    34   am
    19    33    35    2
    20    30    31   ar
    21    31    32   ar
    22    24    25   ar
    23    25    26   ar
    24     4     5   am
    25     5     6    2
    26     5     7    1
    27     7     8    1
    28     8     9    1
    29     9    10    1
    30    10    38    1
    31    38    39    1
    32    39    40   ar
    33    40    41   ar
    34    41    42   ar
    35    42    43   ar
    36    43    44   ar
    37    44    45    1
    38    10    11    1
    39    11    12    1
    40    15    16   ar
    41    16    17   ar
    42    17    18   ar
    43    18    13   ar
    44     7     1    1
    45    44    39   ar
    46    26    21   ar
    47    12     7    1
    48    32    27   ar
    49    34    36    1
    50    34    37    1
@<TRIPOS>MOLECULE
*****
 45 50 0 0 0
SMALL
GASTEIGER

@<TRIPOS>ATOM
      1 N           3.8583    0.4012   31.5896 N.am    1  UNL1       -0.2222
      2 C           3.1757    0.5515   30.2623 C.2     1  UNL1        0.3219
      3 O           3.6202   -0.0620   28.9677 O.2     1  UNL1       -0.2512
      4 N           1.9703    1.4229   30.4570 N.am    1  UNL1       -0.1907
      5 C           1.9081    1.8113   31.9045 C.2     1  UNL1        0.2529
      6 O           0.8626    2.6787   32.5405 O.2     1  UNL1       -0.2724
      7 C           3.0749    1.1798   32.6045 C.3     1  UNL1        0.1391
      8 C           4.2818    0.4877   33.1653 C.3     1  UNL1        0.0449
      9 C           4.6079    0.6129   34.6240 C.3     1  UNL1        0.0746
     10 N           3.7271    1.4302   35.5220 N.3     1  UNL1       -0.2676
     11 C           2.5203    2.1223   34.9612 C.3     1  UNL1        0.0746
     12 C           2.1942    1.9971   33.5025 C.3     1  UNL1        0.0449
     13 C           6.2709   -2.6627   32.3253 C.ar    1  UNL1        0.2293
     14 C           5.0238   -1.8726   32.0597 C.ar    1  UNL1        0.0924
     15 C           5.1054   -0.3889   31.8552 C.ar    1  UNL1        0.1453
     16 N           6.4340    0.3048   31.9163 N.ar    1  UNL1       -0.2084
     17 C           7.6810   -0.4852   32.1819 C.ar    1  UNL1        0.2027
     18 N           7.5995   -1.9691   32.3864 N.ar    1  UNL1       -0.1892
     19 C           6.9422   -5.0713   31.6197 C.3     1  UNL1        0.2542
     20 O           6.1895   -4.1464   32.5298 O.3     1  UNL1       -0.4560
     21 C           0.9981    1.8339   29.3914 C.ar    1  UNL1        0.0622
     22 C           0.1001    0.8112   28.7607 C.ar    1  UNL1        0.0154
     23 C          -0.8722    1.2222   27.6949 C.ar    1  UNL1        0.0013
     24 C          -0.9465    2.6558   27.2599 C.ar    1  UNL1        0.0001
     25 C          -0.0485    3.6785   27.8906 C.ar    1  UNL1        0.0013
     26 C           0.9237    3.2675   28.9564 C.ar    1  UNL1        0.0154
     27 C          -1.9188    3.0667   26.1942 C.ar    1  UNL1        0.0000
     28 C          -3.3177    3.4601   26.5664 C.ar    1  UNL1        0.0001
     29 C          -4.2900    3.8710   25.5007 C.ar    1  UNL1        0.0045
     30 C          -3.8633    3.8886   24.0627 C.ar    1  UNL1        0.0531
     31 C          -2.4645    3.4953   23.6905 C.ar    1  UNL1        0.0045
     32 C          -1.4923    3.0844   24.7562 C.ar    1  UNL1        0.0001
     33 C          -4.8356    4.2996   22.9970 C.2     1  UNL1        0.2427
     34 N          -6.2616    3.8389   23.0647 N.am    1  UNL1       -0.3253
     35 O          -4.3821    5.1711   21.8636 O.2     1  UNL1       -0.2704
     36 H          -6.5593    3.2669   23.8086 H       1  UNL1        0.1453
     37 H          -6.8998    4.1087   22.3653 H       1  UNL1        0.1453
     38 C           4.0533    1.5554   36.9808 C.3     1  UNL1        0.1183
     39 C           2.9511    1.5582   37.9982 C.ar    1  UNL1        0.0712
     40 N           2.3615    0.2617   38.4688 N.ar    1  UNL1       -0.2471
     41 C           1.2593    0.2646   39.4863 C.ar    1  UNL1        0.0985
     42 C           0.7467    1.5640   40.0330 C.ar    1  UNL1        0.0203
     43 C           1.3363    2.8604   39.5624 C.ar    1  UNL1       -0.0015
     44 C           2.4385    2.8576   38.5450 C.ar    1  UNL1       -0.0069
     45 C           3.0281    4.1541   38.0744 C.3     1  UNL1        0.0323
@<TRIPOS>BOND
     1    19    20    1
     2    20    13    1
     3    13    14   ar
     4    14    15   ar
     5    15     1    1
     6     1     2   am
     7     2     3    2
     8     2     4   am
     9     4    21    1
    10    21    22   ar
    11    22    23   ar
    12    23    24   ar
    13    24    27    1
    14    27    28   ar
    15    28    29   ar
    16    29    30   ar
    17    30    33    1
    18    33    34   am
    19    33    35    2
    20    30    31   ar
    21    31    32   ar
    22    24    25   ar
    23    25    26   ar
    24     4     5   am
    25     5     6    2
    26     5     7    1
    27     7     8    1
    28     8     9    1
    29     9    10    1
    30    10    38    1
    31    38    39    1
    32    39    40   ar
    33    40    41   ar
    34    41    42   ar
    35    42    43   ar
    36    43    44   ar
    37    44    45    1
    38    10    11    1
    39    11    12    1
    40    15    16   ar
    41    16    17   ar
    42    17    18   ar
    43    18    13   ar
    44     7     1    1
    45    44    39   ar
    46    26    21   ar
    47    12     7    1
    48    32    27   ar
    49    34    36    1
    50    34    37    1
@<TRIPOS>MOLECULE
*****
 45 50 0 0 0
SMALL
GASTEIGER

@<TRIPOS>ATOM
      1 N           3.6335   -1.0889   21.6703 N.am    1  UNL1       -0.2222
      2 C           2.4227   -0.2111   21.7874 C.2     1  UNL1        0.3219
      3 O           1.5553    0.2504   20.6539 O.2     1  UNL1       -0.2512
      4 N           2.2318    0.1243   23.2369 N.am    1  UNL1       -0.1907
      5 C           3.3244   -0.5463   24.0157 C.2     1  UNL1        0.2529
      6 O           3.5170   -0.4790   25.5017 O.2     1  UNL1       -0.2724
      7 C           4.1907   -1.2961   23.0474 C.3     1  UNL1        0.1391
      8 C           4.9616   -1.9935   21.9661 C.3     1  UNL1        0.0449
      9 C           6.1725   -2.8075   22.3139 C.3     1  UNL1        0.0746
     10 N           6.6125   -2.9242   23.7432 N.3     1  UNL1       -0.2676
     11 C           5.8417   -2.2268   24.8246 C.3     1  UNL1        0.0746
     12 C           4.6308   -1.4128   24.4767 C.3     1  UNL1        0.0449
     13 C           5.7384   -1.4438   18.3247 C.ar    1  UNL1        0.2293
     14 C           5.1825   -0.8734   19.5957 C.ar    1  UNL1        0.0924
     15 C           4.1893   -1.6594   20.3992 C.ar    1  UNL1        0.1453
     16 N           3.7519   -3.0159   19.9316 N.ar    1  UNL1       -0.2084
     17 C           4.3076   -3.5864   18.6606 C.ar    1  UNL1        0.2027
     18 N           5.3009   -2.8003   17.8571 N.ar    1  UNL1       -0.1892
     19 C           6.2990    0.5861   16.8032 C.3     1  UNL1        0.2542
     20 O           6.7316   -0.6579   17.5211 O.3     1  UNL1       -0.4560
     21 C           1.1399    0.9799   23.8075 C.ar    1  UNL1        0.0622
     22 C           0.5580    2.0960   22.9917 C.ar    1  UNL1        0.0154
     23 C          -0.5339    2.9517   23.5623 C.ar    1  UNL1        0.0013
     24 C          -1.0439    2.6912   24.9487 C.ar    1  UNL1        0.0001
     25 C          -0.4620    1.5750   25.7646 C.ar    1  UNL1        0.0013
     26 C           0.6300    0.7194   25.1939 C.ar    1  UNL1        0.0154
     27 C          -2.1358    3.5469   25.5193 C.ar    1  UNL1        0.0000
     28 C          -1.8129    4.5838   26.5540 C.ar    1  UNL1        0.0001
     29 C          -2.9048    5.4395   27.1246 C.ar    1  UNL1        0.0045
     30 C          -4.3197    5.2581   26.6604 C.ar    1  UNL1        0.0531
     31 C          -4.6426    4.2212   25.6258 C.ar    1  UNL1        0.0045
     32 C          -3.5507    3.3656   25.0552 C.ar    1  UNL1        0.0001
     33 C          -5.4116    6.1138   27.2310 C.2     1  UNL1        0.2427
     34 N          -5.1461    6.9610   28.4401 N.am    1  UNL1       -0.3253
     35 O          -6.7689    6.1223   26.5926 O.2     1  UNL1       -0.2704
     36 H          -4.2553    6.9555   28.8592 H       1  UNL1        0.1453
     37 H          -5.8628    7.5226   28.8147 H       1  UNL1        0.1453
     38 C           7.8235   -3.7382   24.0910 C.3     1  UNL1        0.1183
     39 C           7.6665   -5.0514   24.7987 C.ar    1  UNL1        0.0712
     40 N           6.9831   -5.1075   26.1328 N.ar    1  UNL1       -0.2471
     41 C           6.8260   -6.4208   26.8404 C.ar    1  UNL1        0.0985
     42 C           7.3524   -7.6779   26.2140 C.ar    1  UNL1        0.0203
     43 C           8.0358   -7.6219   24.8799 C.ar    1  UNL1       -0.0015
     44 C           8.1929   -6.3087   24.1722 C.ar    1  UNL1       -0.0069
     45 C           8.8763   -6.2526   22.8381 C.3     1  UNL1        0.0323
@<TRIPOS>BOND
     1    19    20    1
     2    20    13    1
     3    13    14   ar
     4    14    15   ar
     5    15     1    1
     6     1     2   am
     7     2     3    2
     8     2     4   am
     9     4    21    1
    10    21    22   ar
    11    22    23   ar
    12    23    24   ar
    13    24    27    1
    14    27    28   ar
    15    28    29   ar
    16    29    30   ar
    17    30    33    1
    18    33    34   am
    19    33    35    2
    20    30    31   ar
    21    31    32   ar
    22    24    25   ar
    23    25    26   ar
    24     4     5   am
    25     5     6    2
    26     5     7    1
    27     7     8    1
    28     8     9    1
    29     9    10    1
    30    10    38    1
    31    38    39    1
    32    39    40   ar
    33    40    41   ar
    34    41    42   ar
    35    42    43   ar
    36    43    44   ar
    37    44    45    1
    38    10    11    1
    39    11    12    1
    40    15    16   ar
    41    16    17   ar
    42    17    18   ar
    43    18    13   ar
    44     7     1    1
    45    44    39   ar
    46    26    21   ar
    47    12     7    1
    48    32    27   ar
    49    34    36    1
    50    34    37    1
@<TRIPOS>MOLECULE
*****
 45 50 0 0 0
SMALL
GASTEIGER

@<TRIPOS>ATOM
      1 N           3.4124    2.0878   31.1481 N.am    1  UNL1       -0.2222
      2 C           2.7485    2.0755   29.8030 C.2     1  UNL1        0.3219
      3 O           3.3337    1.5259   28.5360 O.2     1  UNL1       -0.2512
      4 N           1.3967    2.7094   29.9476 N.am    1  UNL1       -0.1907
      5 C           1.2251    3.1135   31.3819 C.2     1  UNL1        0.2529
      6 O           0.0195    3.7840   31.9709 O.2     1  UNL1       -0.2724
      7 C           2.4709    2.7293   32.1239 C.3     1  UNL1        0.1391
      8 C           3.7710    2.2898   32.7294 C.3     1  UNL1        0.0449
      9 C           4.0298    2.5087   34.1905 C.3     1  UNL1        0.0746
     10 N           2.9885    3.1671   35.0463 N.3     1  UNL1       -0.2676
     11 C           1.6885    3.6066   34.4408 C.3     1  UNL1        0.0746
     12 C           1.4297    3.3877   32.9797 C.3     1  UNL1        0.0449
     13 C           6.3159   -0.4245   32.1518 C.ar    1  UNL1        0.2293
     14 C           4.9503    0.1107   31.8377 C.ar    1  UNL1        0.0924
     15 C           4.7780    1.5526   31.4622 C.ar    1  UNL1        0.1453
     16 N           5.9713    2.4594   31.4008 N.ar    1  UNL1       -0.2084
     17 C           7.3369    1.9243   31.7149 C.ar    1  UNL1        0.2027
     18 N           7.5092    0.4822   32.0904 N.ar    1  UNL1       -0.1892
     19 C           5.2864   -2.7115   32.8296 C.3     1  UNL1        0.2542
     20 O           6.4883   -1.8665   32.5274 O.3     1  UNL1       -0.4560
     21 C           0.3928    2.9049   28.8504 C.ar    1  UNL1        0.0622
     22 C          -0.2998    1.7189   28.2475 C.ar    1  UNL1        0.0154
     23 C          -1.3038    1.9144   27.1503 C.ar    1  UNL1        0.0013
     24 C          -1.6152    3.2960   26.6560 C.ar    1  UNL1        0.0001
     25 C          -0.9226    4.4821   27.2590 C.ar    1  UNL1        0.0013
     26 C           0.0814    4.2865   28.3562 C.ar    1  UNL1        0.0154
     27 C          -2.6192    3.4915   25.5588 C.ar    1  UNL1        0.0000
     28 C          -2.1621    3.5977   24.1341 C.ar    1  UNL1        0.0001
     29 C          -3.1661    3.7932   23.0369 C.ar    1  UNL1        0.0045
     30 C          -4.6271    3.8825   23.3646 C.ar    1  UNL1        0.0531
     31 C          -5.0842    3.7763   24.7892 C.ar    1  UNL1        0.0045
     32 C          -4.0803    3.5808   25.8864 C.ar    1  UNL1        0.0001
     33 C          -5.6311    4.0780   22.2674 C.2     1  UNL1        0.2427
     34 N          -7.0927    4.1624   22.5944 N.am    1  UNL1       -0.3253
     35 O          -5.1736    4.1891   20.8432 O.2     1  UNL1       -0.2704
     36 H          -7.3929    4.0894   23.5292 H       1  UNL1        0.1453
     37 H          -7.7516    4.2907   21.8743 H       1  UNL1        0.1453
     38 C           3.2474    3.3860   36.5075 C.3     1  UNL1        0.1183
     39 C           2.4409    2.6437   37.5315 C.ar    1  UNL1        0.0712
     40 N           1.1605    3.2308   38.0472 N.ar    1  UNL1       -0.2471
     41 C           0.3540    2.4884   39.0712 C.ar    1  UNL1        0.0985
     42 C           0.8279    1.1591   39.5795 C.ar    1  UNL1        0.0203
     43 C           2.1083    0.5721   39.0638 C.ar    1  UNL1       -0.0015
     44 C           2.9148    1.3144   38.0398 C.ar    1  UNL1       -0.0069
     45 C           4.1952    0.7273   37.5241 C.3     1  UNL1        0.0323
@<TRIPOS>BOND
     1    19    20    1
     2    20    13    1
     3    13    14   ar
     4    14    15   ar
     5    15     1    1
     6     1     2   am
     7     2     3    2
     8     2     4   am
     9     4    21    1
    10    21    22   ar
    11    22    23   ar
    12    23    24   ar
    13    24    27    1
    14    27    28   ar
    15    28    29   ar
    16    29    30   ar
    17    30    33    1
    18    33    34   am
    19    33    35    2
    20    30    31   ar
    21    31    32   ar
    22    24    25   ar
    23    25    26   ar
    24     4     5   am
    25     5     6    2
    26     5     7    1
    27     7     8    1
    28     8     9    1
    29     9    10    1
    30    10    38    1
    31    38    39    1
    32    39    40   ar
    33    40    41   ar
    34    41    42   ar
    35    42    43   ar
    36    43    44   ar
    37    44    45    1
    38    10    11    1
    39    11    12    1
    40    15    16   ar
    41    16    17   ar
    42    17    18   ar
    43    18    13   ar
    44     7     1    1
    45    44    39   ar
    46    26    21   ar
    47    12     7    1
    48    32    27   ar
    49    34    36    1
    50    34    37    1
@<TRIPOS>MOLECULE
*****
 45 50 0 0 0
SMALL
GASTEIGER

@<TRIPOS>ATOM
      1 N           3.5304   -0.8026   23.1965 N.am    1  UNL1       -0.2222
      2 C           2.3028    0.0563   23.1208 C.2     1  UNL1        0.3219
      3 O           1.5739    0.4441   21.8685 O.2     1  UNL1       -0.2512
      4 N           1.9322    0.4592   24.5174 N.am    1  UNL1       -0.1907
      5 C           2.9306   -0.1506   25.4562 C.2     1  UNL1        0.2529
      6 O           2.9398   -0.0060   26.9491 O.2     1  UNL1       -0.2724
      7 C           3.9184   -0.9304   24.6398 C.3     1  UNL1        0.1391
      8 C           4.8244   -1.6654   23.6971 C.3     1  UNL1        0.0449
      9 C           5.9946   -2.4375   24.2304 C.3     1  UNL1        0.0746
     10 N           6.2588   -2.4746   25.7065 N.3     1  UNL1       -0.2676
     11 C           5.3527   -1.7396   26.6492 C.3     1  UNL1        0.0746
     12 C           4.1825   -0.9675   26.1159 C.3     1  UNL1        0.0449
     13 C           4.6400   -3.4533   20.4593 C.ar    1  UNL1        0.2293
     14 C           3.9259   -2.8315   21.6227 C.ar    1  UNL1        0.0924
     15 C           4.2444   -1.4244   22.0331 C.ar    1  UNL1        0.1453
     16 N           5.2771   -0.6390   21.2802 N.ar    1  UNL1       -0.2084
     17 C           5.9912   -1.2607   20.1168 C.ar    1  UNL1        0.2027
     18 N           5.6726   -2.6679   19.7064 N.ar    1  UNL1       -0.1892
     19 C           4.6620   -5.3337   18.6668 C.3     1  UNL1        0.2542
     20 O           4.3215   -4.8604   20.0488 O.3     1  UNL1       -0.4560
     21 C           0.7677    1.3206   24.9068 C.ar    1  UNL1        0.0622
     22 C           0.1636    1.1921   26.2737 C.ar    1  UNL1        0.0154
     23 C          -1.0010    2.0536   26.6631 C.ar    1  UNL1        0.0013
     24 C          -1.5615    3.0436   25.6856 C.ar    1  UNL1        0.0001
     25 C          -0.9574    3.1722   24.3186 C.ar    1  UNL1        0.0013
     26 C           0.2072    2.3107   23.9292 C.ar    1  UNL1        0.0154
     27 C          -2.7261    3.9051   26.0750 C.ar    1  UNL1        0.0000
     28 C          -2.5425    5.0062   27.0769 C.ar    1  UNL1        0.0001
     29 C          -3.7071    5.8677   27.4663 C.ar    1  UNL1        0.0045
     30 C          -5.0552    5.6280   26.8537 C.ar    1  UNL1        0.0531
     31 C          -5.2387    4.5269   25.8518 C.ar    1  UNL1        0.0045
     32 C          -4.0742    3.6654   25.4624 C.ar    1  UNL1        0.0001
     33 C          -6.2198    6.4895   27.2431 C.2     1  UNL1        0.2427
     34 N          -6.9832    6.1951   28.5004 N.am    1  UNL1       -0.3253
     35 O          -6.6210    7.6453   26.3753 O.2     1  UNL1       -0.2704
     36 H          -6.7198    5.4365   29.0700 H       1  UNL1        0.1453
     37 H          -7.7475    6.7605   28.7560 H       1  UNL1        0.1453
     38 C           7.4290   -3.2467   26.2398 C.3     1  UNL1        0.1183
     39 C           7.5880   -4.6987   25.8984 C.ar    1  UNL1        0.0712
     40 N           8.3452   -5.1012   24.6678 N.ar    1  UNL1       -0.2471
     41 C           8.5041   -6.5533   24.3264 C.ar    1  UNL1        0.0985
     42 C           7.9058   -7.6026   25.2157 C.ar    1  UNL1        0.0203
     43 C           7.1486   -7.2000   26.4464 C.ar    1  UNL1       -0.0015
     44 C           6.9897   -5.7481   26.7877 C.ar    1  UNL1       -0.0069
     45 C           6.2325   -5.3455   28.0184 C.3     1  UNL1        0.0323
@<TRIPOS>BOND
     1    19    20    1
     2    20    13    1
     3    13    14   ar
     4    14    15   ar
     5    15     1    1
     6     1     2   am
     7     2     3    2
     8     2     4   am
     9     4    21    1
    10    21    22   ar
    11    22    23   ar
    12    23    24   ar
    13    24    27    1
    14    27    28   ar
    15    28    29   ar
    16    29    30   ar
    17    30    33    1
    18    33    34   am
    19    33    35    2
    20    30    31   ar
    21    31    32   ar
    22    24    25   ar
    23    25    26   ar
    24     4     5   am
    25     5     6    2
    26     5     7    1
    27     7     8    1
    28     8     9    1
    29     9    10    1
    30    10    38    1
    31    38    39    1
    32    39    40   ar
    33    40    41   ar
    34    41    42   ar
    35    42    43   ar
    36    43    44   ar
    37    44    45    1
    38    10    11    1
    39    11    12    1
    40    15    16   ar
    41    16    17   ar
    42    17    18   ar
    43    18    13   ar
    44     7     1    1
    45    44    39   ar
    46    26    21   ar
    47    12     7    1
    48    32    27   ar
    49    34    36    1
    50    34    37    1
@<TRIPOS>MOLECULE
*****
 45 50 0 0 0
SMALL
GASTEIGER

@<TRIPOS>ATOM
      1 N           1.4436    1.9018   24.2042 N.am    1  UNL1       -0.2222
      2 C           1.5607    2.1369   25.6811 C.2     1  UNL1        0.3219
      3 O           0.9625    3.2831   26.4416 O.2     1  UNL1       -0.2512
      4 N           2.3811    1.0245   26.2640 N.am    1  UNL1       -0.1907
      5 C           2.7710    0.1020   25.1474 C.2     1  UNL1        0.2529
      6 O           3.5955   -1.1440   25.2803 O.2     1  UNL1       -0.2724
      7 C           2.1916    0.6441   23.8743 C.3     1  UNL1        0.1391
      8 C           1.5529    1.3031   22.6879 C.3     1  UNL1        0.0449
      9 C           1.6963    0.6944   21.3245 C.3     1  UNL1        0.0746
     10 N           2.4785   -0.5732   21.1475 N.3     1  UNL1       -0.2676
     11 C           3.1172   -1.2322   22.3340 C.3     1  UNL1        0.0746
     12 C           2.9738   -0.6235   23.6974 C.3     1  UNL1        0.0449
     13 C          -1.4769    3.3833   21.9625 C.ar    1  UNL1        0.2293
     14 C          -0.7410    2.5135   22.9382 C.ar    1  UNL1        0.0924
     15 C           0.7078    2.7716   23.2286 C.ar    1  UNL1        0.1453
     16 N           1.4207    3.8996   22.5434 N.ar    1  UNL1       -0.2084
     17 C           0.6849    4.7694   21.5678 C.ar    1  UNL1        0.2027
     18 N          -0.7640    4.5113   21.2773 N.ar    1  UNL1       -0.1892
     19 C          -3.5023    3.5032   20.3399 C.3     1  UNL1        0.2542
     20 O          -2.9257    3.1253   21.6721 O.3     1  UNL1       -0.4560
     21 C           2.7473    0.8631   27.7095 C.ar    1  UNL1        0.0622
     22 C           3.8287    1.7126   28.3087 C.ar    1  UNL1        0.0154
     23 C           4.1948    1.5511   29.7543 C.ar    1  UNL1        0.0013
     24 C           3.4796    0.5402   30.6008 C.ar    1  UNL1        0.0001
     25 C           2.3982   -0.3093   30.0017 C.ar    1  UNL1        0.0013
     26 C           2.0321   -0.1478   28.5560 C.ar    1  UNL1        0.0154
     27 C           3.8458    0.3788   32.0465 C.ar    1  UNL1        0.0000
     28 C           4.0795    1.5895   32.9007 C.ar    1  UNL1        0.0001
     29 C           4.4456    1.4280   34.3463 C.ar    1  UNL1        0.0045
     30 C           4.5781    0.0559   34.9377 C.ar    1  UNL1        0.0531
     31 C           4.3445   -1.1548   34.0835 C.ar    1  UNL1        0.0045
     32 C           3.9783   -0.9934   32.6379 C.ar    1  UNL1        0.0001
     33 C           4.9443   -0.1056   36.3833 C.2     1  UNL1        0.2427
     34 N           3.9680    0.2866   37.4526 N.am    1  UNL1       -0.3253
     35 O           6.2866   -0.6592   36.7597 O.2     1  UNL1       -0.2704
     36 H           3.0870    0.6500   37.2055 H       1  UNL1        0.1453
     37 H           4.2084    0.1807   38.4014 H       1  UNL1        0.1453
     38 C           2.6219   -1.1818   19.7840 C.3     1  UNL1        0.1183
     39 C           3.9853   -1.4889   19.2394 C.ar    1  UNL1        0.0712
     40 N           4.9592   -0.3768   18.9850 N.ar    1  UNL1       -0.2471
     41 C           6.3228   -0.6839   18.4404 C.ar    1  UNL1        0.0985
     42 C           6.7123   -2.1030   18.1500 C.ar    1  UNL1        0.0203
     43 C           5.7383   -3.2151   18.4043 C.ar    1  UNL1       -0.0015
     44 C           4.3749   -2.9081   18.9490 C.ar    1  UNL1       -0.0069
     45 C           3.4009   -4.0201   19.2033 C.3     1  UNL1        0.0323
@<TRIPOS>BOND
     1    19    20    1
     2    20    13    1
     3    13    14   ar
     4    14    15   ar
     5    15     1    1
     6     1     2   am
     7     2     3    2
     8     2     4   am
     9     4    21    1
    10    21    22   ar
    11    22    23   ar
    12    23    24   ar
    13    24    27    1
    14    27    28   ar
    15    28    29   ar
    16    29    30   ar
    17    30    33    1
    18    33    34   am
    19    33    35    2
    20    30    31   ar
    21    31    32   ar
    22    24    25   ar
    23    25    26   ar
    24     4     5   am
    25     5     6    2
    26     5     7    1
    27     7     8    1
    28     8     9    1
    29     9    10    1
    30    10    38    1
    31    38    39    1
    32    39    40   ar
    33    40    41   ar
    34    41    42   ar
    35    42    43   ar
    36    43    44   ar
    37    44    45    1
    38    10    11    1
    39    11    12    1
    40    15    16   ar
    41    16    17   ar
    42    17    18   ar
    43    18    13   ar
    44     7     1    1
    45    44    39   ar
    46    26    21   ar
    47    12     7    1
    48    32    27   ar
    49    34    36    1
    50    34    37    1
@<TRIPOS>MOLECULE
*****
 45 50 0 0 0
SMALL
GASTEIGER

@<TRIPOS>ATOM
      1 N           3.5287   -0.1530   30.5658 N.am    1  UNL1       -0.2222
      2 C           2.2631    0.6106   30.3101 C.2     1  UNL1        0.3219
      3 O           1.3903    1.2451   31.3520 O.2     1  UNL1       -0.2512
      4 N           2.0236    0.6283   28.8294 N.am    1  UNL1       -0.1907
      5 C           3.1411   -0.1243   28.1701 C.2     1  UNL1        0.2529
      6 O           3.3005   -0.3538   26.6964 O.2     1  UNL1       -0.2724
      7 C           4.0714   -0.6072   29.2432 C.3     1  UNL1        0.1391
      8 C           4.9052   -1.0210   30.4194 C.3     1  UNL1        0.0449
      9 C           6.1580   -1.8181   30.2072 C.3     1  UNL1        0.0746
     10 N           6.5770   -2.2013   28.8188 N.3     1  UNL1       -0.2676
     11 C           5.7432   -1.7875   27.6427 C.3     1  UNL1        0.0746
     12 C           4.4904   -0.9904   27.8549 C.3     1  UNL1        0.0449
     13 C           5.7273    0.3042   33.8380 C.ar    1  UNL1        0.2293
     14 C           5.1123    0.5673   32.4954 C.ar    1  UNL1        0.0924
     15 C           4.1437   -0.4161   31.9085 C.ar    1  UNL1        0.1453
     16 N           3.7899   -1.6626   32.6641 N.ar    1  UNL1       -0.2084
     17 C           4.4048   -1.9258   34.0067 C.ar    1  UNL1        0.2027
     18 N           5.3735   -0.9423   34.5937 N.ar    1  UNL1       -0.1892
     19 C           6.8277    1.4128   35.9140 C.3     1  UNL1        0.2542
     20 O           6.6959    1.2876   34.4251 O.3     1  UNL1       -0.4560
     21 C           0.8693    1.2835   28.1308 C.ar    1  UNL1        0.0622
     22 C           1.1191    2.3674   27.1244 C.ar    1  UNL1        0.0154
     23 C          -0.0353    3.0227   26.4257 C.ar    1  UNL1        0.0013
     24 C          -1.4394    2.5940   26.7334 C.ar    1  UNL1        0.0001
     25 C          -1.6892    1.5101   27.7399 C.ar    1  UNL1        0.0013
     26 C          -0.5348    0.8549   28.4385 C.ar    1  UNL1        0.0154
     27 C          -2.5938    3.2493   26.0348 C.ar    1  UNL1        0.0000
     28 C          -3.7232    3.8286   26.8340 C.ar    1  UNL1        0.0001
     29 C          -4.8775    4.4839   26.1353 C.ar    1  UNL1        0.0045
     30 C          -4.9024    4.5597   24.6374 C.ar    1  UNL1        0.0531
     31 C          -3.7730    3.9804   23.8382 C.ar    1  UNL1        0.0045
     32 C          -2.6187    3.3251   24.5368 C.ar    1  UNL1        0.0001
     33 C          -6.0568    5.2150   23.9388 C.2     1  UNL1        0.2427
     34 N          -7.2015    4.3836   23.4403 N.am    1  UNL1       -0.3253
     35 O          -6.0664    6.7015   23.7386 O.2     1  UNL1       -0.2704
     36 H          -7.1952    3.4079   23.5717 H       1  UNL1        0.1453
     37 H          -7.9592    4.8136   22.9817 H       1  UNL1        0.1453
     38 C           7.8299   -2.9985   28.6067 C.3     1  UNL1        0.1183
     39 C           7.8266   -4.1635   27.6619 C.ar    1  UNL1        0.0712
     40 N           8.2513   -3.9739   26.2359 N.ar    1  UNL1       -0.2471
     41 C           8.2480   -5.1391   25.2911 C.ar    1  UNL1        0.0985
     42 C           7.8201   -6.4937   25.7724 C.ar    1  UNL1        0.0203
     43 C           7.3954   -6.6833   27.1985 C.ar    1  UNL1       -0.0015
     44 C           7.3987   -5.5183   28.1432 C.ar    1  UNL1       -0.0069
     45 C           6.9740   -5.7079   29.5693 C.3     1  UNL1        0.0323
@<TRIPOS>BOND
     1    19    20    1
     2    20    13    1
     3    13    14   ar
     4    14    15   ar
     5    15     1    1
     6     1     2   am
     7     2     3    2
     8     2     4   am
     9     4    21    1
    10    21    22   ar
    11    22    23   ar
    12    23    24   ar
    13    24    27    1
    14    27    28   ar
    15    28    29   ar
    16    29    30   ar
    17    30    33    1
    18    33    34   am
    19    33    35    2
    20    30    31   ar
    21    31    32   ar
    22    24    25   ar
    23    25    26   ar
    24     4     5   am
    25     5     6    2
    26     5     7    1
    27     7     8    1
    28     8     9    1
    29     9    10    1
    30    10    38    1
    31    38    39    1
    32    39    40   ar
    33    40    41   ar
    34    41    42   ar
    35    42    43   ar
    36    43    44   ar
    37    44    45    1
    38    10    11    1
    39    11    12    1
    40    15    16   ar
    41    16    17   ar
    42    17    18   ar
    43    18    13   ar
    44     7     1    1
    45    44    39   ar
    46    26    21   ar
    47    12     7    1
    48    32    27   ar
    49    34    36    1
    50    34    37    1
@<TRIPOS>MOLECULE
*****
 45 50 0 0 0
SMALL
GASTEIGER

@<TRIPOS>ATOM
      1 N           6.2278   -2.3012   25.9676 N.am    1  UNL1       -0.2222
      2 C           6.4130   -2.1418   27.4476 C.2     1  UNL1        0.3219
      3 O           7.5573   -2.6779   28.2558 O.2     1  UNL1       -0.2512
      4 N           5.2529   -1.3522   27.9775 N.am    1  UNL1       -0.1907
      5 C           4.3507   -1.0236   26.8251 C.2     1  UNL1        0.2529
      6 O           3.0708   -0.2453   26.9013 O.2     1  UNL1       -0.2724
      7 C           4.9533   -1.6102   25.5828 C.3     1  UNL1        0.1391
      8 C           5.6721   -2.2495   24.4320 C.3     1  UNL1        0.0449
      9 C           5.1005   -2.1606   23.0481 C.3     1  UNL1        0.0746
     10 N           3.8100   -1.4323   22.8150 N.3     1  UNL1       -0.2676
     11 C           3.0912   -0.7930   23.9658 C.3     1  UNL1        0.0746
     12 C           3.6628   -0.8819   25.3497 C.3     1  UNL1        0.0449
     13 C           7.9602   -5.2330   23.9297 C.ar    1  UNL1        0.2293
     14 C           7.0336   -4.5096   24.8613 C.ar    1  UNL1        0.0924
     15 C           7.1545   -3.0247   25.0360 C.ar    1  UNL1        0.1453
     16 N           8.2020   -2.2633   24.2790 N.ar    1  UNL1       -0.2084
     17 C           9.1286   -2.9867   23.3475 C.ar    1  UNL1        0.2027
     18 N           9.0078   -4.4716   23.1728 N.ar    1  UNL1       -0.1892
     19 C           8.0663   -7.6313   24.9230 C.3     1  UNL1        0.2542
     20 O           7.8394   -6.7179   23.7550 O.3     1  UNL1       -0.4560
     21 C           5.0334   -0.9601   29.4086 C.ar    1  UNL1        0.0622
     22 C           6.1984   -0.5553   30.2624 C.ar    1  UNL1        0.0154
     23 C           5.9790   -0.1632   31.6935 C.ar    1  UNL1        0.0013
     24 C           4.5946   -0.1757   32.2708 C.ar    1  UNL1        0.0001
     25 C           3.4295   -0.5805   31.4170 C.ar    1  UNL1        0.0013
     26 C           3.6490   -0.9727   29.9859 C.ar    1  UNL1        0.0154
     27 C           4.3751    0.2164   33.7019 C.ar    1  UNL1        0.0000
     28 C           3.5869    1.4500   34.0291 C.ar    1  UNL1        0.0001
     29 C           3.3675    1.8422   35.4603 C.ar    1  UNL1        0.0045
     30 C           3.9363    1.0007   36.5641 C.ar    1  UNL1        0.0531
     31 C           4.7245   -0.2329   36.2369 C.ar    1  UNL1        0.0045
     32 C           4.9439   -0.6250   34.8058 C.ar    1  UNL1        0.0001
     33 C           3.7168    1.3928   37.9952 C.2     1  UNL1        0.2427
     34 N           2.8954    0.5179   38.8951 N.am    1  UNL1       -0.3253
     35 O           4.3188    2.6599   38.5264 O.2     1  UNL1       -0.2704
     36 H           2.5003   -0.3137   38.5464 H       1  UNL1        0.1453
     37 H           2.7513    0.7753   39.8344 H       1  UNL1        0.1453
     38 C           3.2384   -1.3434   21.4310 C.3     1  UNL1        0.1183
     39 C           4.1535   -1.2529   20.2459 C.ar    1  UNL1        0.0712
     40 N           4.8621    0.0337   19.9420 N.ar    1  UNL1       -0.2471
     41 C           5.7773    0.1241   18.7569 C.ar    1  UNL1        0.0985
     42 C           5.9838   -1.0721   17.8758 C.ar    1  UNL1        0.0203
     43 C           5.2752   -2.3588   18.1797 C.ar    1  UNL1       -0.0015
     44 C           4.3600   -2.4492   19.3648 C.ar    1  UNL1       -0.0069
     45 C           3.6514   -3.7358   19.6687 C.3     1  UNL1        0.0323
@<TRIPOS>BOND
     1    19    20    1
     2    20    13    1
     3    13    14   ar
     4    14    15   ar
     5    15     1    1
     6     1     2   am
     7     2     3    2
     8     2     4   am
     9     4    21    1
    10    21    22   ar
    11    22    23   ar
    12    23    24   ar
    13    24    27    1
    14    27    28   ar
    15    28    29   ar
    16    29    30   ar
    17    30    33    1
    18    33    34   am
    19    33    35    2
    20    30    31   ar
    21    31    32   ar
    22    24    25   ar
    23    25    26   ar
    24     4     5   am
    25     5     6    2
    26     5     7    1
    27     7     8    1
    28     8     9    1
    29     9    10    1
    30    10    38    1
    31    38    39    1
    32    39    40   ar
    33    40    41   ar
    34    41    42   ar
    35    42    43   ar
    36    43    44   ar
    37    44    45    1
    38    10    11    1
    39    11    12    1
    40    15    16   ar
    41    16    17   ar
    42    17    18   ar
    43    18    13   ar
    44     7     1    1
    45    44    39   ar
    46    26    21   ar
    47    12     7    1
    48    32    27   ar
    49    34    36    1
    50    34    37    1
