@<TRIPOS>MOLECULE
*****
 30 32 0 0 0
SMALL
GASTEIGER

@<TRIPOS>ATOM
      1 C          -8.8026  -21.1753   17.1715 C.3     1  UNL1        0.0327
      2 C          -9.0499  -20.4670   18.4704 C.ar    1  UNL1       -0.0013
      3 C         -10.3851  -19.8389   18.7398 C.ar    1  UNL1        0.0946
      4 N         -10.6324  -19.1305   20.0386 N.ar    1  UNL1       -0.2425
      5 C          -9.5445  -19.0503   21.0682 C.ar    1  UNL1        0.1028
      6 C          -9.4955  -18.4233   22.4299 C.ar    1  UNL1        0.0895
      7 C          -8.1300  -18.6639   23.0022 C.ar    1  UNL1        0.0823
      8 N          -7.3350  -19.4396   21.9941 N.ar    1  UNL1       -0.3190
      9 C          -8.2093  -19.6785   20.7988 C.ar    1  UNL1        0.0780
     10 C          -7.9620  -20.3868   19.4999 C.ar    1  UNL1        0.0160
     11 C         -10.6154  -17.6852   23.1015 C.2     1  UNL1        0.2489
     12 O         -10.3402  -16.3985   23.8216 O.2     1  UNL1       -0.2700
     13 N         -12.0106  -18.2339   23.0530 N.am    1  UNL1       -0.2984
     14 H         -12.1913  -19.0784   22.5804 H       1  UNL1        0.1498
     15 C         -13.1306  -17.4958   23.7246 C.3     1  UNL1        0.1215
     16 C         -14.2448  -18.2576   24.3789 C.3     1  UNL1        0.1583
     17 O         -14.1798  -18.5704   25.8445 O.3     1  UNL1       -0.3802
     18 H         -13.4451  -19.1811   26.0126 H       1  UNL1        0.2105
     19 C          -5.9151  -19.8964   22.1533 C.3     1  UNL1        0.1518
     20 C          -4.7891  -18.9225   21.9702 C.ar    1  UNL1        0.0841
     21 N          -4.6061  -17.7958   22.9433 N.ar    1  UNL1       -0.2265
     22 C          -3.4800  -16.8220   22.7602 C.ar    1  UNL1        0.2012
     23 N          -2.5368  -16.9748   21.6039 N.ar    1  UNL1       -0.1895
     24 C          -2.7198  -18.1016   20.6307 C.ar    1  UNL1        0.2282
     25 C          -3.8459  -19.0755   20.8138 C.ar    1  UNL1        0.0469
     26 C          -4.0288  -20.2022   19.8407 C.3     1  UNL1        0.0372
     27 O          -1.7766  -18.2545   19.4744 O.3     1  UNL1       -0.4070
     28 C          -2.0654  -17.5639   18.1746 C.3     1  UNL1        0.5097
     29 F          -3.2634  -16.6697   18.0503 F       1  UNL1       -0.1549
     30 F          -1.1564  -17.7673   16.9989 F       1  UNL1       -0.1549
@<TRIPOS>BOND
     1     1     2    1
     2     2     3   ar
     3     3     4   ar
     4     4     5   ar
     5     5     6   ar
     6     6    11    1
     7    11    12    2
     8    11    13   am
     9    13    15    1
    10    15    16    1
    11    16    17    1
    12     6     7   ar
    13     7     8   ar
    14     8    19    1
    15    19    20    1
    16    20    21   ar
    17    21    22   ar
    18    22    23   ar
    19    23    24   ar
    20    24    27    1
    21    27    28    1
    22    28    29    1
    23    28    30    1
    24    24    25   ar
    25    25    26    1
    26     8     9   ar
    27     9    10   ar
    28    10     2   ar
    29     9     5   ar
    30    25    20   ar
    31    13    14    1
    32    17    18    1
@<TRIPOS>MOLECULE
*****
 30 32 0 0 0
SMALL
GASTEIGER

@<TRIPOS>ATOM
      1 C         -10.4761  -19.6241   18.9101 C.3     1  UNL1        0.0327
      2 C          -9.6737  -18.9616   19.9906 C.ar    1  UNL1       -0.0013
      3 C         -10.3318  -17.9898   20.9247 C.ar    1  UNL1        0.0946
      4 N          -9.5295  -17.3274   22.0052 N.ar    1  UNL1       -0.2425
      5 C          -8.0691  -17.6367   22.1516 C.ar    1  UNL1        0.1028
      6 C          -7.0300  -17.1426   23.1139 C.ar    1  UNL1        0.0895
      7 C          -5.7297  -17.8090   22.7746 C.ar    1  UNL1        0.0823
      8 N          -5.9651  -18.7150   21.6026 N.ar    1  UNL1       -0.3190
      9 C          -7.4110  -18.6085   21.2176 C.ar    1  UNL1        0.0780
     10 C          -8.2134  -19.2710   20.1371 C.ar    1  UNL1        0.0160
     11 C          -7.2522  -16.1553   24.2211 C.2     1  UNL1        0.2489
     12 O          -6.2383  -15.0815   24.4833 O.2     1  UNL1       -0.2700
     13 N          -8.4885  -16.2419   25.0663 N.am    1  UNL1       -0.2984
     14 H          -9.1540  -16.9467   24.8942 H       1  UNL1        0.1498
     15 C          -8.7107  -15.2546   26.1735 C.3     1  UNL1        0.1215
     16 C          -7.8916  -15.3370   27.4274 C.3     1  UNL1        0.1583
     17 O          -6.6265  -14.5407   27.5505 O.3     1  UNL1       -0.3802
     18 H          -5.9755  -14.8668   26.9097 H       1  UNL1        0.2105
     19 C          -4.9356  -19.5763   20.9331 C.3     1  UNL1        0.1518
     20 C          -3.8497  -18.9462   20.1122 C.ar    1  UNL1        0.0841
     21 N          -4.2025  -18.0895   18.9326 N.ar    1  UNL1       -0.2265
     22 C          -3.1167  -17.4595   18.1117 C.ar    1  UNL1        0.2012
     23 N          -1.6779  -17.6862   18.4703 N.ar    1  UNL1       -0.1895
     24 C          -1.3251  -18.5431   19.6499 C.ar    1  UNL1        0.2282
     25 C          -2.4110  -19.1731   20.4709 C.ar    1  UNL1        0.0469
     26 C          -2.0581  -20.0298   21.6504 C.3     1  UNL1        0.0372
     27 O           0.1136  -18.7698   20.0085 O.3     1  UNL1       -0.4070
     28 C           0.9929  -17.6049   20.3547 C.3     1  UNL1        0.5097
     29 F           0.5361  -16.2068   20.0601 F       1  UNL1       -0.1549
     30 F           2.3290  -17.8379   20.9954 F       1  UNL1       -0.1549
@<TRIPOS>BOND
     1     1     2    1
     2     2     3   ar
     3     3     4   ar
     4     4     5   ar
     5     5     6   ar
     6     6    11    1
     7    11    12    2
     8    11    13   am
     9    13    15    1
    10    15    16    1
    11    16    17    1
    12     6     7   ar
    13     7     8   ar
    14     8    19    1
    15    19    20    1
    16    20    21   ar
    17    21    22   ar
    18    22    23   ar
    19    23    24   ar
    20    24    27    1
    21    27    28    1
    22    28    29    1
    23    28    30    1
    24    24    25   ar
    25    25    26    1
    26     8     9   ar
    27     9    10   ar
    28    10     2   ar
    29     9     5   ar
    30    25    20   ar
    31    13    14    1
    32    17    18    1
@<TRIPOS>MOLECULE
*****
 30 32 0 0 0
SMALL
GASTEIGER

@<TRIPOS>ATOM
      1 C          -9.4198   -7.5986   18.9657 C.3     1  UNL1        0.0327
      2 C         -10.2245   -6.3563   18.7225 C.ar    1  UNL1       -0.0013
      3 C          -9.6370   -5.0104   19.0279 C.ar    1  UNL1        0.0946
      4 N         -10.4417   -3.7681   18.7847 N.ar    1  UNL1       -0.2425
      5 C         -11.8339   -3.8717   18.2360 C.ar    1  UNL1        0.1028
      6 C         -12.8586   -2.8306   17.8956 C.ar    1  UNL1        0.0895
      7 C         -14.0795   -3.5331   17.3798 C.ar    1  UNL1        0.0823
      8 N         -13.8093   -5.0084   17.4014 N.ar    1  UNL1       -0.3190
      9 C         -12.4214   -5.2177   17.9307 C.ar    1  UNL1        0.0780
     10 C         -11.6167   -6.4600   18.1739 C.ar    1  UNL1        0.0160
     11 C         -12.6918   -1.3474   18.0448 C.2     1  UNL1        0.2489
     12 O         -11.3231   -0.7367   17.9841 O.2     1  UNL1       -0.2700
     13 N         -13.8937   -0.4749   18.2547 N.am    1  UNL1       -0.2984
     14 H         -14.7921   -0.8756   18.2945 H       1  UNL1        0.1498
     15 C         -13.7269    1.0083   18.4038 C.3     1  UNL1        0.1215
     16 C         -13.2068    1.8237   17.2572 C.3     1  UNL1        0.1583
     17 O         -11.7634    2.2300   17.2198 O.3     1  UNL1       -0.3802
     18 H         -11.5806    2.8418   17.9500 H       1  UNL1        0.2105
     19 C         -14.7600   -6.0853   16.9697 C.3     1  UNL1        0.1518
     20 C         -15.7464   -6.6513   17.9478 C.ar    1  UNL1        0.0841
     21 N         -16.8240   -5.7769   18.5172 N.ar    1  UNL1       -0.2265
     22 C         -17.8104   -6.3428   19.4953 C.ar    1  UNL1        0.2012
     23 N         -17.7192   -7.7832   19.9041 N.ar    1  UNL1       -0.1895
     24 C         -16.6415   -8.6576   19.3347 C.ar    1  UNL1        0.2282
     25 C         -15.6551   -8.0917   18.3565 C.ar    1  UNL1        0.0469
     26 C         -14.5775   -8.9661   17.7872 C.3     1  UNL1        0.0372
     27 O         -16.5504  -10.0979   19.7434 O.3     1  UNL1       -0.4070
     28 C         -17.0802  -11.1696   18.8375 C.3     1  UNL1        0.5097
     29 F         -16.4841  -12.5456   18.8748 F       1  UNL1       -0.1549
     30 F         -18.2061  -10.8655   17.8942 F       1  UNL1       -0.1549
@<TRIPOS>BOND
     1     1     2    1
     2     2     3   ar
     3     3     4   ar
     4     4     5   ar
     5     5     6   ar
     6     6    11    1
     7    11    12    2
     8    11    13   am
     9    13    15    1
    10    15    16    1
    11    16    17    1
    12     6     7   ar
    13     7     8   ar
    14     8    19    1
    15    19    20    1
    16    20    21   ar
    17    21    22   ar
    18    22    23   ar
    19    23    24   ar
    20    24    27    1
    21    27    28    1
    22    28    29    1
    23    28    30    1
    24    24    25   ar
    25    25    26    1
    26     8     9   ar
    27     9    10   ar
    28    10     2   ar
    29     9     5   ar
    30    25    20   ar
    31    13    14    1
    32    17    18    1
@<TRIPOS>MOLECULE
*****
 30 32 0 0 0
SMALL
GASTEIGER

@<TRIPOS>ATOM
      1 C          -9.5045   -7.6638   18.8584 C.3     1  UNL1        0.0327
      2 C         -10.3075   -6.4161   18.6384 C.ar    1  UNL1       -0.0013
      3 C          -9.7576   -5.0860   19.0607 C.ar    1  UNL1        0.0946
      4 N         -10.5606   -3.8383   18.8407 N.ar    1  UNL1       -0.2425
      5 C         -11.9135   -3.9206   18.1983 C.ar    1  UNL1        0.1028
      6 C         -12.9274   -2.8698   17.8552 C.ar    1  UNL1        0.0895
      7 C         -14.1040   -3.5504   17.2208 C.ar    1  UNL1        0.0823
      8 N         -13.8173   -5.0219   17.1718 N.ar    1  UNL1       -0.3190
      9 C         -12.4635   -5.2507   17.7759 C.ar    1  UNL1        0.0780
     10 C         -11.6605   -6.4984   17.9960 C.ar    1  UNL1        0.0160
     11 C         -12.7890   -1.3969   18.1030 C.2     1  UNL1        0.2489
     12 O         -11.4264   -0.7805   18.2185 O.2     1  UNL1       -0.2700
     13 N         -14.0132   -0.5403   18.2354 N.am    1  UNL1       -0.2984
     14 H         -14.9076   -0.9448   18.1597 H       1  UNL1        0.1498
     15 C         -13.8748    0.9326   18.4833 C.3     1  UNL1        0.1215
     16 C         -13.4192    1.8394   17.3787 C.3     1  UNL1        0.1583
     17 O         -11.9611    2.1537   17.2196 O.3     1  UNL1       -0.3802
     18 H         -11.6549    2.6642   17.9855 H       1  UNL1        0.2105
     19 C         -14.7250   -6.0790   16.6162 C.3     1  UNL1        0.1518
     20 C         -15.1255   -7.2469   17.4680 C.ar    1  UNL1        0.0841
     21 N         -14.5247   -8.5984   17.2181 N.ar    1  UNL1       -0.2265
     22 C         -14.9252   -9.7664   18.0699 C.ar    1  UNL1        0.2012
     23 N         -15.9266   -9.5828   19.1716 N.ar    1  UNL1       -0.1895
     24 C         -16.5273   -8.2312   19.4214 C.ar    1  UNL1        0.2282
     25 C         -16.1268   -7.0633   18.5696 C.ar    1  UNL1        0.0469
     26 C         -16.7276   -5.7118   18.8196 C.3     1  UNL1        0.0372
     27 O         -17.5287   -8.0477   20.5231 O.3     1  UNL1       -0.4070
     28 C         -18.9905   -8.2409   20.2478 C.3     1  UNL1        0.5097
     29 F         -19.9641   -7.1438   20.5612 F       1  UNL1       -0.1549
     30 F         -19.4787   -9.5313   19.6592 F       1  UNL1       -0.1549
@<TRIPOS>BOND
     1     1     2    1
     2     2     3   ar
     3     3     4   ar
     4     4     5   ar
     5     5     6   ar
     6     6    11    1
     7    11    12    2
     8    11    13   am
     9    13    15    1
    10    15    16    1
    11    16    17    1
    12     6     7   ar
    13     7     8   ar
    14     8    19    1
    15    19    20    1
    16    20    21   ar
    17    21    22   ar
    18    22    23   ar
    19    23    24   ar
    20    24    27    1
    21    27    28    1
    22    28    29    1
    23    28    30    1
    24    24    25   ar
    25    25    26    1
    26     8     9   ar
    27     9    10   ar
    28    10     2   ar
    29     9     5   ar
    30    25    20   ar
    31    13    14    1
    32    17    18    1
@<TRIPOS>MOLECULE
*****
 30 32 0 0 0
SMALL
GASTEIGER

@<TRIPOS>ATOM
      1 C          -0.0944    6.0548   34.0895 C.3     1  UNL1        0.0327
      2 C           0.6300    4.8335   33.6061 C.ar    1  UNL1       -0.0013
      3 C           0.0720    4.0321   32.4675 C.ar    1  UNL1        0.0946
      4 N           0.7964    2.8108   31.9841 N.ar    1  UNL1       -0.2425
      5 C           2.0787    2.3909   32.6393 C.ar    1  UNL1        0.1028
      6 C           3.0082    1.2421   32.3818 C.ar    1  UNL1        0.0895
      7 C           4.1406    1.3335   33.3612 C.ar    1  UNL1        0.0823
      8 N           3.9110    2.5388   34.2241 N.ar    1  UNL1       -0.3190
      9 C           2.6367    3.1923   33.7778 C.ar    1  UNL1        0.0780
     10 C           1.9123    4.4136   34.2613 C.ar    1  UNL1        0.0160
     11 C           2.8356    0.1871   31.3295 C.2     1  UNL1        0.2489
     12 O           3.1747   -1.2413   31.6368 O.2     1  UNL1       -0.2700
     13 N           2.3237    0.5605   29.9699 N.am    1  UNL1       -0.2984
     14 H           2.1011    1.4981   29.7682 H       1  UNL1        0.1498
     15 C           2.1511   -0.4944   28.9177 C.3     1  UNL1        0.1215
     16 C           3.2553   -0.7658   27.9394 C.3     1  UNL1        0.1583
     17 O           3.2775   -2.0543   27.1719 O.3     1  UNL1       -0.3802
     18 H           3.4181   -2.7932   27.7844 H       1  UNL1        0.2105
     19 C           4.7997    3.0082   35.3376 C.3     1  UNL1        0.1518
     20 C           4.2470    3.1638   36.7233 C.ar    1  UNL1        0.0841
     21 N           4.1689    4.5238   37.3513 N.ar    1  UNL1       -0.2265
     22 C           3.6162    4.6795   38.7370 C.ar    1  UNL1        0.2012
     23 N           3.1416    3.4751   39.4949 N.ar    1  UNL1       -0.1895
     24 C           3.2197    2.1151   38.8669 C.ar    1  UNL1        0.2282
     25 C           3.7724    1.9594   37.4811 C.ar    1  UNL1        0.0469
     26 C           3.8505    0.5994   36.8533 C.3     1  UNL1        0.0372
     27 O           2.7452    0.9107   39.6247 O.3     1  UNL1       -0.4070
     28 C           1.3018    0.5070   39.5637 C.3     1  UNL1        0.5097
     29 F           0.2529    1.5224   39.2193 F       1  UNL1       -0.1549
     30 F           0.9073   -0.9122   39.8471 F       1  UNL1       -0.1549
@<TRIPOS>BOND
     1     1     2    1
     2     2     3   ar
     3     3     4   ar
     4     4     5   ar
     5     5     6   ar
     6     6    11    1
     7    11    12    2
     8    11    13   am
     9    13    15    1
    10    15    16    1
    11    16    17    1
    12     6     7   ar
    13     7     8   ar
    14     8    19    1
    15    19    20    1
    16    20    21   ar
    17    21    22   ar
    18    22    23   ar
    19    23    24   ar
    20    24    27    1
    21    27    28    1
    22    28    29    1
    23    28    30    1
    24    24    25   ar
    25    25    26    1
    26     8     9   ar
    27     9    10   ar
    28    10     2   ar
    29     9     5   ar
    30    25    20   ar
    31    13    14    1
    32    17    18    1
@<TRIPOS>MOLECULE
*****
 30 32 0 0 0
SMALL
GASTEIGER

@<TRIPOS>ATOM
      1 C           1.7332    0.9029   23.8064 C.3     1  UNL1        0.0327
      2 C           2.7128   -0.2303   23.7292 C.ar    1  UNL1       -0.0013
      3 C           3.4731   -0.6492   24.9525 C.ar    1  UNL1        0.0946
      4 N           4.4527   -1.7824   24.8753 N.ar    1  UNL1       -0.2425
      5 C           4.6722   -2.4969   23.5748 C.ar    1  UNL1        0.1028
      6 C           5.5655   -3.6408   23.1963 C.ar    1  UNL1        0.0895
      7 C           5.3574   -3.9290   21.7390 C.ar    1  UNL1        0.0823
      8 N           4.3355   -2.9631   21.2169 N.ar    1  UNL1       -0.3190
      9 C           3.9120   -2.0780   22.3515 C.ar    1  UNL1        0.0780
     10 C           2.9323   -0.9447   22.4287 C.ar    1  UNL1        0.0160
     11 C           6.5024   -4.3688   24.1140 C.2     1  UNL1        0.2489
     12 O           7.4709   -5.3698   23.5572 O.2     1  UNL1       -0.2700
     13 N           6.4710   -4.0958   25.5886 N.am    1  UNL1       -0.2984
     14 H           5.8354   -3.4388   25.9542 H       1  UNL1        0.1498
     15 C           7.4079   -4.8238   26.5063 C.3     1  UNL1        0.1215
     16 C           6.8732   -5.8376   27.4739 C.3     1  UNL1        0.1583
     17 O           5.3986   -5.9193   27.7361 O.3     1  UNL1       -0.3802
     18 H           5.1024   -5.1056   28.1734 H       1  UNL1        0.2105
     19 C           3.8264   -2.8944   19.8076 C.3     1  UNL1        0.1518
     20 C           4.0271   -1.6480   18.9976 C.ar    1  UNL1        0.0841
     21 N           2.9207   -0.6418   18.8827 N.ar    1  UNL1       -0.2265
     22 C           3.1214    0.6046   18.0727 C.ar    1  UNL1        0.2012
     23 N           4.4287    0.8449   17.3776 N.ar    1  UNL1       -0.1895
     24 C           5.5353   -0.1613   17.4925 C.ar    1  UNL1        0.2282
     25 C           5.3345   -1.4078   18.3025 C.ar    1  UNL1        0.0469
     26 C           6.4411   -2.4139   18.4174 C.3     1  UNL1        0.0372
     27 O           6.8426    0.0790   16.7974 O.3     1  UNL1       -0.4070
     28 C           7.7184    1.2208   17.2208 C.3     1  UNL1        0.5097
     29 F           8.7264    1.7873   16.2652 F       1  UNL1       -0.1549
     30 F           7.5864    1.7961   18.5997 F       1  UNL1       -0.1549
@<TRIPOS>BOND
     1     1     2    1
     2     2     3   ar
     3     3     4   ar
     4     4     5   ar
     5     5     6   ar
     6     6    11    1
     7    11    12    2
     8    11    13   am
     9    13    15    1
    10    15    16    1
    11    16    17    1
    12     6     7   ar
    13     7     8   ar
    14     8    19    1
    15    19    20    1
    16    20    21   ar
    17    21    22   ar
    18    22    23   ar
    19    23    24   ar
    20    24    27    1
    21    27    28    1
    22    28    29    1
    23    28    30    1
    24    24    25   ar
    25    25    26    1
    26     8     9   ar
    27     9    10   ar
    28    10     2   ar
    29     9     5   ar
    30    25    20   ar
    31    13    14    1
    32    17    18    1
@<TRIPOS>MOLECULE
*****
 30 32 0 0 0
SMALL
GASTEIGER

@<TRIPOS>ATOM
      1 C          -1.2570    7.6271   35.6371 C.3     1  UNL1        0.0327
      2 C          -0.7528    6.5527   34.7198 C.ar    1  UNL1       -0.0013
      3 C          -1.5676    6.1387   33.5304 C.ar    1  UNL1        0.0946
      4 N          -1.0633    5.0643   32.6131 N.ar    1  UNL1       -0.2425
      5 C           0.2557    4.4040   32.8852 C.ar    1  UNL1        0.1028
      6 C           1.0051    3.3235   32.1634 C.ar    1  UNL1        0.0895
      7 C           2.2831    3.0698   32.9067 C.ar    1  UNL1        0.0823
      8 N           2.3235    3.9934   34.0879 N.ar    1  UNL1       -0.3190
      9 C           1.0705    4.8180   34.0746 C.ar    1  UNL1        0.0780
     10 C           0.5662    5.8924   34.9919 C.ar    1  UNL1        0.0160
     11 C           0.5555    2.6203   30.9171 C.2     1  UNL1        0.2489
     12 O          -0.1867    1.3206   31.0155 O.2     1  UNL1       -0.2700
     13 N           0.8481    3.2168   29.5723 N.am    1  UNL1       -0.2984
     14 H           1.3353    4.0698   29.5076 H       1  UNL1        0.1498
     15 C           0.3985    2.5135   28.3260 C.3     1  UNL1        0.1215
     16 C           1.0877    1.2568   27.8838 C.3     1  UNL1        0.1583
     17 O           0.5600   -0.0795   28.3149 O.3     1  UNL1       -0.3802
     18 H           0.6569   -0.1707   29.2757 H       1  UNL1        0.2105
     19 C           3.4237    4.0777   35.1040 C.3     1  UNL1        0.1518
     20 C           3.6970    2.9153   36.0117 C.ar    1  UNL1        0.0841
     21 N           4.7504    1.9113   35.6482 N.ar    1  UNL1       -0.2265
     22 C           5.0237    0.7488   36.5560 C.ar    1  UNL1        0.2012
     23 N           4.2434    0.5903   37.8272 N.ar    1  UNL1       -0.1895
     24 C           3.1899    1.5944   38.1907 C.ar    1  UNL1        0.2282
     25 C           2.9167    2.7569   37.2830 C.ar    1  UNL1        0.0469
     26 C           1.8632    3.7608   37.6465 C.3     1  UNL1        0.0372
     27 O           2.4097    1.4359   39.4620 O.3     1  UNL1       -0.4070
     28 C           1.0756    0.7504   39.4427 C.3     1  UNL1        0.5097
     29 F          -0.1652    1.5329   39.1295 F       1  UNL1       -0.1549
     30 F           0.9823   -0.7175   39.7366 F       1  UNL1       -0.1549
@<TRIPOS>BOND
     1     1     2    1
     2     2     3   ar
     3     3     4   ar
     4     4     5   ar
     5     5     6   ar
     6     6    11    1
     7    11    12    2
     8    11    13   am
     9    13    15    1
    10    15    16    1
    11    16    17    1
    12     6     7   ar
    13     7     8   ar
    14     8    19    1
    15    19    20    1
    16    20    21   ar
    17    21    22   ar
    18    22    23   ar
    19    23    24   ar
    20    24    27    1
    21    27    28    1
    22    28    29    1
    23    28    30    1
    24    24    25   ar
    25    25    26    1
    26     8     9   ar
    27     9    10   ar
    28    10     2   ar
    29     9     5   ar
    30    25    20   ar
    31    13    14    1
    32    17    18    1
@<TRIPOS>MOLECULE
*****
 30 32 0 0 0
SMALL
GASTEIGER

@<TRIPOS>ATOM
      1 C           5.1765    1.0104   24.4564 C.3     1  UNL1        0.0327
      2 C           5.5909   -0.3899   24.7988 C.ar    1  UNL1       -0.0013
      3 C           5.4430   -0.8936   26.2039 C.ar    1  UNL1        0.0946
      4 N           5.8574   -2.2939   26.5463 N.ar    1  UNL1       -0.2425
      5 C           6.4198   -3.1907   25.4835 C.ar    1  UNL1        0.1028
      6 C           6.9105   -4.6076   25.5221 C.ar    1  UNL1        0.0895
      7 C           7.3617   -4.9797   24.1408 C.ar    1  UNL1        0.0823
      8 N           7.1500   -3.7927   23.2485 N.ar    1  UNL1       -0.3190
      9 C           6.5678   -2.6870   24.0784 C.ar    1  UNL1        0.0780
     10 C           6.1534   -1.2867   23.7360 C.ar    1  UNL1        0.0160
     11 C           6.9440   -5.4964   26.7300 C.2     1  UNL1        0.2489
     12 O           6.7781   -6.9791   26.5750 O.2     1  UNL1       -0.2700
     13 N           7.1435   -4.9025   28.0929 N.am    1  UNL1       -0.2984
     14 H           7.2524   -3.9293   28.1946 H       1  UNL1        0.1498
     15 C           7.1770   -5.7913   29.3007 C.3     1  UNL1        0.1215
     16 C           6.8944   -5.2215   30.6592 C.3     1  UNL1        0.1583
     17 O           6.4986   -6.1294   31.7858 O.3     1  UNL1       -0.3802
     18 H           5.6346   -6.5259   31.5931 H       1  UNL1        0.2105
     19 C           7.4650   -3.7236   21.7836 C.3     1  UNL1        0.1518
     20 C           6.3525   -3.6584   20.7795 C.ar    1  UNL1        0.0841
     21 N           5.0960   -4.4475   21.0000 N.ar    1  UNL1       -0.2265
     22 C           3.9836   -4.3823   19.9959 C.ar    1  UNL1        0.2012
     23 N           4.1276   -3.5281   18.7713 N.ar    1  UNL1       -0.1895
     24 C           5.3842   -2.7390   18.5509 C.ar    1  UNL1        0.2282
     25 C           6.4966   -2.8042   19.5550 C.ar    1  UNL1        0.0469
     26 C           7.7531   -2.0151   19.3345 C.3     1  UNL1        0.0372
     27 O           5.5282   -1.8848   17.3263 O.3     1  UNL1       -0.4070
     28 C           4.6075   -0.7203   17.1116 C.3     1  UNL1        0.5097
     29 F           3.3360   -0.9023   16.3369 F       1  UNL1       -0.1549
     30 F           4.9581    0.6263   17.6717 F       1  UNL1       -0.1549
@<TRIPOS>BOND
     1     1     2    1
     2     2     3   ar
     3     3     4   ar
     4     4     5   ar
     5     5     6   ar
     6     6    11    1
     7    11    12    2
     8    11    13   am
     9    13    15    1
    10    15    16    1
    11    16    17    1
    12     6     7   ar
    13     7     8   ar
    14     8    19    1
    15    19    20    1
    16    20    21   ar
    17    21    22   ar
    18    22    23   ar
    19    23    24   ar
    20    24    27    1
    21    27    28    1
    22    28    29    1
    23    28    30    1
    24    24    25   ar
    25    25    26    1
    26     8     9   ar
    27     9    10   ar
    28    10     2   ar
    29     9     5   ar
    30    25    20   ar
    31    13    14    1
    32    17    18    1
@<TRIPOS>MOLECULE
*****
 30 32 0 0 0
SMALL
GASTEIGER

@<TRIPOS>ATOM
      1 C          -9.6010   -6.1380   18.9227 C.3     1  UNL1        0.0327
      2 C         -10.4004   -4.8909   18.6865 C.ar    1  UNL1       -0.0013
      3 C          -9.8612   -3.8120   17.7949 C.ar    1  UNL1        0.0946
      4 N         -10.6607   -2.5649   17.5588 N.ar    1  UNL1       -0.2425
      5 C         -11.9993   -2.3968   18.2143 C.ar    1  UNL1        0.1028
      6 C         -13.0067   -1.2864   18.1691 C.ar    1  UNL1        0.0895
      7 C         -14.1686   -1.6791   19.0328 C.ar    1  UNL1        0.0823
      8 N         -13.8792   -3.0322   19.6118 N.ar    1  UNL1       -0.3190
      9 C         -12.5385   -3.4758   19.1059 C.ar    1  UNL1        0.0780
     10 C         -11.7391   -4.7229   19.3420 C.ar    1  UNL1        0.0160
     11 C         -12.8754   -0.0078   17.3959 C.2     1  UNL1        0.2489
     12 O         -11.5171    0.5654   17.1195 O.2     1  UNL1       -0.2700
     13 N         -14.1023    0.6977   16.8991 N.am    1  UNL1       -0.2984
     14 H         -14.9939    0.3216   17.0805 H       1  UNL1        0.1498
     15 C         -13.9709    1.9764   16.1259 C.3     1  UNL1        0.1215
     16 C         -13.6029    3.2465   16.8339 C.3     1  UNL1        0.1583
     17 O         -12.1596    3.6110   17.0186 O.3     1  UNL1       -0.3802
     18 H         -11.7367    2.9678   17.6088 H       1  UNL1        0.2105
     19 C         -14.7735   -3.8060   20.5346 C.3     1  UNL1        0.1518
     20 C         -16.0581   -4.3866   20.0220 C.ar    1  UNL1        0.0841
     21 N         -17.3332   -3.6053   20.1378 N.ar    1  UNL1       -0.2265
     22 C         -18.6178   -4.1859   19.6252 C.ar    1  UNL1        0.2012
     23 N         -18.6272   -5.5479   18.9968 N.ar    1  UNL1       -0.1895
     24 C         -17.3520   -6.3292   18.8810 C.ar    1  UNL1        0.2282
     25 C         -16.0674   -5.7486   19.3936 C.ar    1  UNL1        0.0469
     26 C         -14.7923   -6.5300   19.2778 C.3     1  UNL1        0.0372
     27 O         -17.3614   -7.6912   18.2526 O.3     1  UNL1       -0.4070
     28 C         -17.3307   -8.9164   19.1174 C.3     1  UNL1        0.5097
     29 F         -16.9443   -8.8050   20.5625 F       1  UNL1       -0.1549
     30 F         -17.6862  -10.2532   18.5372 F       1  UNL1       -0.1549
@<TRIPOS>BOND
     1     1     2    1
     2     2     3   ar
     3     3     4   ar
     4     4     5   ar
     5     5     6   ar
     6     6    11    1
     7    11    12    2
     8    11    13   am
     9    13    15    1
    10    15    16    1
    11    16    17    1
    12     6     7   ar
    13     7     8   ar
    14     8    19    1
    15    19    20    1
    16    20    21   ar
    17    21    22   ar
    18    22    23   ar
    19    23    24   ar
    20    24    27    1
    21    27    28    1
    22    28    29    1
    23    28    30    1
    24    24    25   ar
    25    25    26    1
    26     8     9   ar
    27     9    10   ar
    28    10     2   ar
    29     9     5   ar
    30    25    20   ar
    31    13    14    1
    32    17    18    1
